REMARK  Name = ZINC36283109
REMARK  10 active torsions:
REMARK  status: ('A' for Active; 'I' for Inactive)
REMARK    1  A    between atoms: C_1  and  C_2
REMARK    2  A    between atoms: C_2  and  C_3
REMARK    3  A    between atoms: C_3  and  C_5
REMARK    4  A    between atoms: C_3  and  N_6
REMARK    5  A    between atoms: C_7  and  C_9
REMARK    6  A    between atoms: C_9  and  N_10
REMARK    7  A    between atoms: C_15  and  N_22
REMARK    8  A    between atoms: C_18  and  C_19
REMARK    9  A    between atoms: C_19  and  C_20
REMARK   10  A    between atoms: C_19  and  C_21
REMARK                            x       y       z     vdW  Elec       q    Type
REMARK                         _______ _______ _______ _____ _____    ______ ____
ROOT
ATOM      1  N   UNL     1       4.802   0.553  -3.667  0.00  0.00    -0.318 N 
ATOM      2  C   UNL     1       5.399  -0.470  -4.376  0.00  0.00    +0.071 A 
ATOM      3  C   UNL     1       5.686  -1.800  -4.095  0.00  0.00    +0.028 A 
ATOM      4  C   UNL     1       6.308  -2.586  -5.042  0.00  0.00    +0.004 A 
ATOM      5  C   UNL     1       6.652  -2.059  -6.278  0.00  0.00    +0.025 A 
ATOM      6  C   UNL     1       6.377  -0.738  -6.578  0.00  0.00    +0.052 A 
ATOM      7  C   UNL     1       5.743   0.073  -5.623  0.00  0.00    +0.110 A 
ATOM      8  N   UNL     1       5.347   1.372  -5.614  0.00  0.00    -0.230 NA
ATOM      9  C   UNL     1       4.792   1.651  -4.471  0.00  0.00    +0.114 A 
ENDROOT
BRANCH   9  10
ATOM     10  C   UNL     1       4.224   2.994  -4.092  0.00  0.00    +0.049 C 
ATOM     11  C   UNL     1       5.328   4.052  -4.157  0.00  0.00    +0.015 C 
ATOM     12  C   UNL     1       3.103   3.367  -5.064  0.00  0.00    +0.015 C 
ENDBRANCH   9  10
BRANCH   6  13
ATOM     13  N   UNL     1       6.727  -0.213  -7.824  0.00  0.00    -0.356 N 
ATOM     14  H   UNL     1       7.164  -0.775  -8.481  0.00  0.00    +0.142 HD
ATOM     15  H   UNL     1       6.532   0.715  -8.031  0.00  0.00    +0.142 HD
ENDBRANCH   6  13
BRANCH   1  16
ATOM     16  C   UNL     1       4.271   0.470  -2.304  0.00  0.00    +0.219 C 
BRANCH  16  18
ATOM     17  N   UNL     1       2.125  -0.091  -1.209  0.00  0.00    -0.311 N 
ATOM     18  C   UNL     1       2.824   0.051  -2.353  0.00  0.00    +0.233 C 
ATOM     19  O   UNL     1       2.289  -0.157  -3.421  0.00  0.00    -0.274 OA
ATOM     20  H   UNL     1       2.553   0.075  -0.355  0.00  0.00    +0.149 HD
BRANCH  17  21
ATOM     21  C   UNL     1       0.718  -0.497  -1.257  0.00  0.00    +0.070 C 
ATOM     22  C   UNL     1       0.630  -2.023  -1.329  0.00  0.00    +0.028 C 
BRANCH  21  24
ATOM     23  C   UNL     1      -0.019   1.526   0.010  0.00  0.00    +0.005 C 
ATOM     24  C   UNL     1       0.002  -0.004   0.002  0.00  0.00    +0.018 C 
ENDBRANCH  21  24
ENDBRANCH  17  21
ENDBRANCH  16  18
ENDBRANCH   1  16
TORSDOF 6
