REMARK  Name = ZINC39686667
REMARK  11 active torsions:
REMARK  status: ('A' for Active; 'I' for Inactive)
REMARK    1  A    between atoms: C_1  and  C_2
REMARK    2  A    between atoms: C_4  and  C_7
REMARK    3  A    between atoms: C_8  and  C_13
REMARK    4  A    between atoms: C_9  and  C_12
REMARK    5  A    between atoms: C_17  and  C_26
REMARK    6  A    between atoms: N_28  and  C_29
REMARK    7  A    between atoms: C_29  and  C_31
REMARK    8  A    between atoms: C_29  and  C_32
REMARK    9  A    between atoms: C_32  and  C_33
REMARK   10  A    between atoms: C_38  and  O_39
REMARK   11  A    between atoms: O_39  and  C_40
REMARK                            x       y       z     vdW  Elec       q    Type
REMARK                         _______ _______ _______ _____ _____    ______ ____
ROOT
ATOM      1  C   UNL     1       0.280  -4.314   0.751  0.00  0.00    +0.252 C 
ATOM      2  O   UNL     1       0.911  -4.460   1.781  0.00  0.00    -0.270 OA
ATOM      3  N   UNL     1       0.822  -4.674  -0.429  0.00  0.00    -0.296 N 
ATOM      4  C   UNL     1       0.185  -4.650  -1.766  0.00  0.00    +0.121 C 
ATOM      5  C   UNL     1       1.298  -4.163  -2.720  0.00  0.00    +0.100 C 
ATOM      6  C   UNL     1       2.612  -4.517  -2.004  0.00  0.00    -0.004 C 
ATOM      7  C   UNL     1       2.193  -5.178  -0.682  0.00  0.00    +0.115 C 
ATOM      8  C   UNL     1       3.419  -3.253  -1.722  0.00  0.00    -0.010 C 
ATOM      9  C   UNL     1       4.746  -3.636  -1.061  0.00  0.00    -0.082 C 
ATOM     10  N   UNL     1       5.496  -4.532  -1.950  0.00  0.00    +0.379 N 
ATOM     11  C   UNL     1       4.755  -5.785  -2.141  0.00  0.00    -0.082 C 
ATOM     12  C   UNL     1       3.428  -5.492  -2.847  0.00  0.00    -0.010 C 
ATOM     13  H   UNL     1       5.630  -4.083  -2.843  0.00  0.00    -0.086 HD
ATOM     14  H   UNL     1       6.396  -4.734  -1.539  0.00  0.00    -0.086 HD
ENDROOT
BRANCH   1  16
ATOM     15  C   UNL     1      -1.403  -2.394   0.768  0.00  0.00    +0.201 A 
ATOM     16  C   UNL     1      -1.077  -3.743   0.794  0.00  0.00    +0.108 A 
ATOM     17  C   UNL     1      -2.292  -4.468   0.869  0.00  0.00    +0.093 A 
ATOM     18  N   UNL     1      -3.272  -3.615   0.886  0.00  0.00    -0.082 NA
ATOM     19  O   UNL     1      -2.741  -2.305   0.830  0.00  0.00    -0.352 OA
ATOM     20  C   UNL     1      -2.424  -5.968   0.918  0.00  0.00    +0.070 C 
BRANCH  15  24
ATOM     21  C   UNL     1       0.461   2.323   0.636  0.00  0.00    +0.089 C 
ATOM     22  C   UNL     1       0.353   0.820   0.637  0.00  0.00    +0.135 A 
ATOM     23  C   UNL     1      -0.787   0.113   0.730  0.00  0.00    +0.079 A 
ATOM     24  C   UNL     1      -0.453  -1.264   0.694  0.00  0.00    +0.152 A 
ATOM     25  N   UNL     1       0.852  -1.356   0.583  0.00  0.00    -0.075 NA
ATOM     26  O   UNL     1       1.377  -0.041   0.541  0.00  0.00    -0.359 OA
ENDBRANCH  15  24
ENDBRANCH   1  16
BRANCH   5  27
ATOM     27  C   UNL     1       1.197  -2.673  -2.928  0.00  0.00    +0.218 C 
ATOM     28  O   UNL     1       0.804  -1.961  -2.029  0.00  0.00    -0.275 OA
ATOM     29  N   UNL     1       1.543  -2.133  -4.114  0.00  0.00    -0.312 N 
ATOM     30  H   UNL     1       1.788  -2.708  -4.856  0.00  0.00    +0.149 HD
BRANCH  29  31
ATOM     31  C   UNL     1       1.548  -0.678  -4.282  0.00  0.00    +0.074 C 
ATOM     32  C   UNL     1       2.914  -0.122  -3.875  0.00  0.00    +0.028 C 
BRANCH  31  33
ATOM     33  C   UNL     1       1.272  -0.333  -5.747  0.00  0.00    +0.060 C 
BRANCH  33  34
ATOM     34  C   UNL     1      -0.128  -0.757  -6.108  0.00  0.00    -0.004 A 
ATOM     35  C   UNL     1      -0.347  -1.986  -6.699  0.00  0.00    +0.007 A 
ATOM     36  C   UNL     1      -1.632  -2.376  -7.031  0.00  0.00    +0.000 A 
ATOM     37  C   UNL     1      -2.700  -1.536  -6.772  0.00  0.00    +0.004 A 
ATOM     38  C   UNL     1      -2.486  -0.307  -6.181  0.00  0.00    +0.046 A 
ATOM     39  C   UNL     1      -1.198   0.084  -5.842  0.00  0.00    +0.123 A 
BRANCH  39  40
ATOM     40  O   UNL     1      -0.986   1.292  -5.256  0.00  0.00    -0.495 OA
ATOM     41  C   UNL     1      -2.142   2.060  -4.915  0.00  0.00    +0.277 C 
ENDBRANCH  39  40
ENDBRANCH  33  34
ENDBRANCH  31  33
ENDBRANCH  29  31
ENDBRANCH   5  27
TORSDOF 7
