REMARK  Name = ZINC01374833
REMARK  10 active torsions:
REMARK  status: ('A' for Active; 'I' for Inactive)
REMARK    1  A    between atoms: C_1  and  C_2
REMARK    2  A    between atoms: C_2  and  C_3
REMARK    3  A    between atoms: C_3  and  C_5
REMARK    4  A    between atoms: C_3  and  N_18
REMARK    5  A    between atoms: N_9  and  C_10
REMARK    6  A    between atoms: C_10  and  C_11
REMARK    7  A    between atoms: N_18  and  C_19
REMARK    8  A    between atoms: N_18  and  C_26
REMARK    9  A    between atoms: C_19  and  C_20
REMARK   10  A    between atoms: C_26  and  C_27
REMARK                            x       y       z     vdW  Elec       q    Type
REMARK                         _______ _______ _______ _____ _____    ______ ____
ROOT
ATOM      1  N   UNL     1      -1.931   0.516  -1.357  0.00  0.00    -0.284 NA
ENDROOT
BRANCH   1   2
ATOM      2  C   UNL     1      -1.479  -0.837  -1.004  0.00  0.00    +0.127 C 
BRANCH   2   3
ATOM      3  C   UNL     1       0.011  -0.938  -1.208  0.00  0.00    +0.169 A 
ATOM      4  N   UNL     1       0.846   0.057  -1.384  0.00  0.00    -0.112 NA
ATOM      5  N   UNL     1       2.029  -0.436  -1.521  0.00  0.00    -0.023 NA
ATOM      6  N   UNL     1       1.969  -1.720  -1.438  0.00  0.00    -0.044 NA
ATOM      7  N   UNL     1       0.743  -2.067  -1.239  0.00  0.00    -0.223 N 
BRANCH   7   8
ATOM      8  C   UNL     1       0.240  -3.434  -1.082  0.00  0.00    +0.182 C 
BRANCH   8   9
ATOM      9  C   UNL     1      -0.130  -3.993  -2.432  0.00  0.00    -0.026 A 
ATOM     10  C   UNL     1      -1.410  -3.820  -2.923  0.00  0.00    +0.008 A 
ATOM     11  C   UNL     1      -1.751  -4.331  -4.161  0.00  0.00    +0.038 A 
ATOM     12  C   UNL     1      -0.808  -5.016  -4.910  0.00  0.00    +0.123 A 
ATOM     13  C   UNL     1       0.474  -5.189  -4.416  0.00  0.00    +0.038 A 
ATOM     14  C   UNL     1       0.813  -4.672  -3.180  0.00  0.00    +0.008 A 
ATOM     15  F   UNL     1      -1.140  -5.516  -6.120  0.00  0.00    -0.205 F 
ENDBRANCH   8   9
ENDBRANCH   7   8
ENDBRANCH   2   3
BRANCH   2  17
ATOM     16  C   UNL     1      -3.325  -1.008   0.670  0.00  0.00    +0.006 C 
ATOM     17  C   UNL     1      -1.814  -1.120   0.462  0.00  0.00    +0.023 C 
ENDBRANCH   2  17
ENDBRANCH   1   2
BRANCH   1  18
ATOM     18  C   UNL     1      -3.356   0.519  -1.712  0.00  0.00    +0.120 C 
BRANCH  18  19
ATOM     19  C   UNL     1      -3.688   1.793  -2.445  0.00  0.00    -0.033 A 
ATOM     20  C   UNL     1      -4.253   2.855  -1.764  0.00  0.00    +0.005 A 
ATOM     21  C   UNL     1      -4.558   4.024  -2.436  0.00  0.00    +0.000 A 
ATOM     22  C   UNL     1      -4.297   4.131  -3.790  0.00  0.00    +0.000 A 
ATOM     23  C   UNL     1      -3.731   3.069  -4.471  0.00  0.00    +0.000 A 
ATOM     24  C   UNL     1      -3.423   1.902  -3.797  0.00  0.00    +0.005 A 
ENDBRANCH  18  19
ENDBRANCH   1  18
BRANCH   1  25
ATOM     25  C   UNL     1      -1.657   1.463  -0.268  0.00  0.00    +0.126 C 
BRANCH  25  26
ATOM     26  C   UNL     1      -0.205   1.865  -0.305  0.00  0.00    +0.031 A 
ATOM     27  C   UNL     1       0.226   2.761  -1.229  0.00  0.00    +0.020 A 
ATOM     28  C   UNL     1       1.640   3.131  -1.239  0.00  0.00    +0.003 A 
ATOM     29  C   UNL     1       2.141   4.048  -2.170  0.00  0.00    +0.059 A 
ATOM     30  C   UNL     1       3.480   4.379  -2.154  0.00  0.00    +0.163 A 
ATOM     31  C   UNL     1       4.336   3.802  -1.212  0.00  0.00    +0.164 A 
ATOM     32  C   UNL     1       3.850   2.892  -0.289  0.00  0.00    +0.075 A 
ATOM     33  C   UNL     1       2.505   2.548  -0.292  0.00  0.00    +0.053 A 
ATOM     34  N   UNL     1       2.003   1.643   0.621  0.00  0.00    -0.322 N 
ATOM     35  H   UNL     1       2.599   1.241   1.273  0.00  0.00    +0.169 HD
ATOM     36  C   UNL     1       0.700   1.313   0.625  0.00  0.00    +0.254 A 
ATOM     37  O   UNL     1       0.291   0.514   1.449  0.00  0.00    -0.268 OA
ATOM     38  O   UNL     1       5.657   4.129  -1.185  0.00  0.00    -0.485 OA
ATOM     39  C   UNL     1       6.189   4.758  -2.355  0.00  0.00    +0.270 C 
ATOM     40  C   UNL     1       5.223   5.868  -2.788  0.00  0.00    +0.270 C 
ATOM     41  O   UNL     1       3.952   5.272  -3.069  0.00  0.00    -0.485 OA
ENDBRANCH  25  26
ENDBRANCH   1  25
TORSDOF 9
