REMARK  Name = ZINC09135575
REMARK  10 active torsions:
REMARK  status: ('A' for Active; 'I' for Inactive)
REMARK    1  A    between atoms: C_1  and  C_2
REMARK    2  A    between atoms: C_2  and  N_51
REMARK    3  A    between atoms: C_3  and  C_4
REMARK    4  A    between atoms: C_3  and  N_51
REMARK    5  A    between atoms: C_5  and  C_6
REMARK    6  A    between atoms: C_5  and  N_51
REMARK    7  A    between atoms: C_6  and  N_7
REMARK    8  A    between atoms: C_8  and  C_22
REMARK    9  A    between atoms: C_11  and  C_12
REMARK   10  A    between atoms: C_11  and  O_17
REMARK                            x       y       z     vdW  Elec       q    Type
REMARK                         _______ _______ _______ _____ _____    ______ ____
ROOT
ATOM      1  N   UNL     1      -4.303   1.060   3.760  0.00  0.00    -0.285 N 
ATOM      2  C   UNL     1      -5.536   1.851   3.824  0.00  0.00    +0.144 C 
ATOM      3  C   UNL     1      -6.071   1.703   5.230  0.00  0.00    +0.072 C 
ATOM      4  C   UNL     1      -7.223   2.279   5.748  0.00  0.00    +0.140 C 
ATOM      5  C   UNL     1      -5.172   0.871   5.904  0.00  0.00    +0.249 C 
ATOM      6  O   UNL     1      -5.262   0.516   7.067  0.00  0.00    -0.282 OA
ATOM      7  C   UNL     1      -4.092   0.487   4.958  0.00  0.00    +0.288 C 
ATOM      8  O   UNL     1      -3.154  -0.235   5.228  0.00  0.00    -0.266 OA
ENDROOT
BRANCH   2   9
ATOM      9  C   UNL     1      -5.236   3.299   3.535  0.00  0.00    -0.022 A 
ATOM     10  C   UNL     1      -4.095   3.885   4.051  0.00  0.00    +0.007 A 
ATOM     11  C   UNL     1      -3.817   5.211   3.781  0.00  0.00    +0.015 A 
ATOM     12  C   UNL     1      -4.686   5.956   3.005  0.00  0.00    +0.018 A 
ATOM     13  C   UNL     1      -5.831   5.372   2.494  0.00  0.00    +0.015 A 
ATOM     14  C   UNL     1      -6.105   4.043   2.759  0.00  0.00    +0.007 A 
ATOM     15 BR   UNL     1      -4.310   7.774   2.642  0.00  0.00    -0.050 Br
ENDBRANCH   2   9
BRANCH   4  16
ATOM     16  C   UNL     1      -7.652   1.949   7.056  0.00  0.00    +0.054 A 
ATOM     17  C   UNL     1      -8.041   2.795   8.091  0.00  0.00    +0.019 A 
ATOM     18  C   UNL     1      -8.415   2.204   9.270  0.00  0.00    +0.008 A 
ATOM     19  C   UNL     1      -8.389   0.847   9.372  0.00  0.00    +0.046 A 
ATOM     20  S   UNL     1      -7.843   0.341   7.806  0.00  0.00    -0.094 S 
ENDBRANCH   4  16
BRANCH   4  21
ATOM     21  O   UNL     1      -7.935   3.154   5.004  0.00  0.00    -0.505 OA
ATOM     22  H   UNL     1      -8.727   3.468   5.526  0.00  0.00    +0.292 HD
ENDBRANCH   4  21
BRANCH   1  23
ATOM     23  C   UNL     1      -3.445   0.913   2.582  0.00  0.00    +0.090 C 
BRANCH  23  24
ATOM     24  C   UNL     1      -2.385   2.016   2.583  0.00  0.00    -0.060 C 
BRANCH  24  25
ATOM     25  N   UNL     1      -1.515   1.841   1.400  0.00  0.00    +0.380 N 
ATOM     26  H   UNL     1      -1.175   0.873   1.377  0.00  0.00    -0.082 HD
BRANCH  25  28
ATOM     27  C   UNL     1       0.653   2.176   2.479  0.00  0.00    -0.017 C 
ATOM     28  C   UNL     1      -0.357   2.755   1.486  0.00  0.00    -0.082 C 
ENDBRANCH  25  28
BRANCH  25  29
ATOM     29  C   UNL     1      -2.281   2.111   0.165  0.00  0.00    -0.082 C 
ATOM     30  C   UNL     1      -1.536   1.491  -1.019  0.00  0.00    -0.017 C 
ENDBRANCH  25  29
ENDBRANCH  24  25
ENDBRANCH  23  24
ENDBRANCH   1  23
TORSDOF 8
