REMARK  Name = ZINC36561466
REMARK  13 active torsions:
REMARK  status: ('A' for Active; 'I' for Inactive)
REMARK    1  A    between atoms: C_1  and  C_2
REMARK    2  A    between atoms: C_2  and  C_3
REMARK    3  A    between atoms: C_3  and  N_4
REMARK    4  A    between atoms: N_4  and  C_5
REMARK    5  A    between atoms: C_5  and  C_7
REMARK    6  A    between atoms: C_5  and  C_16
REMARK    7  A    between atoms: C_8  and  O_15
REMARK    8  A    between atoms: C_10  and  O_14
REMARK    9  A    between atoms: C_12  and  O_13
REMARK   10  A    between atoms: N_18  and  C_19
REMARK   11  A    between atoms: C_25  and  C_27
REMARK   12  A    between atoms: C_27  and  C_28
REMARK   13  A    between atoms: C_33  and  C_34
REMARK                            x       y       z     vdW  Elec       q    Type
REMARK                         _______ _______ _______ _____ _____    ______ ____
ROOT
ATOM      1  C   UNL     1      -1.585  -2.715   1.149  0.00  0.00    +0.199 C 
ENDROOT
BRANCH   1   2
ATOM      2  C   UNL     1      -2.941  -2.661   1.804  0.00  0.00    +0.065 A 
ATOM      3  C   UNL     1      -3.611  -3.836   2.109  0.00  0.00    +0.129 A 
ATOM      4  C   UNL     1      -4.859  -3.786   2.711  0.00  0.00    +0.091 A 
ATOM      5  C   UNL     1      -5.437  -2.561   3.009  0.00  0.00    +0.124 A 
ATOM      6  C   UNL     1      -4.767  -1.386   2.704  0.00  0.00    +0.091 A 
ATOM      7  C   UNL     1      -3.517  -1.436   2.106  0.00  0.00    +0.129 A 
BRANCH   7   8
ATOM      8  O   UNL     1      -2.858  -0.284   1.812  0.00  0.00    -0.506 OA
ATOM      9  H   UNL     1      -3.050   0.065   0.931  0.00  0.00    +0.292 HD
ENDBRANCH   7   8
BRANCH   5  10
ATOM     10  O   UNL     1      -6.660  -2.512   3.598  0.00  0.00    -0.507 OA
ATOM     11  H   UNL     1      -6.632  -2.511   4.565  0.00  0.00    +0.292 HD
ENDBRANCH   5  10
BRANCH   3  12
ATOM     12  O   UNL     1      -3.045  -5.037   1.817  0.00  0.00    -0.506 OA
ATOM     13  H   UNL     1      -2.562  -5.433   2.555  0.00  0.00    +0.292 HD
ENDBRANCH   3  12
ENDBRANCH   1   2
BRANCH   1  14
ATOM     14  C   UNL     1      -0.520  -2.430   2.176  0.00  0.00    +0.239 C 
ATOM     15  O   UNL     1       0.272  -1.529   1.995  0.00  0.00    -0.273 OA
ATOM     16  N   UNL     1      -0.446  -3.177   3.295  0.00  0.00    -0.311 N 
ATOM     17  H   UNL     1      -1.079  -3.898   3.440  0.00  0.00    +0.149 HD
BRANCH  16  18
ATOM     18  C   UNL     1       0.590  -2.901   4.294  0.00  0.00    +0.073 C 
ATOM     19  C   UNL     1       1.881  -3.623   3.903  0.00  0.00    +0.022 C 
ATOM     20  C   UNL     1       2.962  -3.334   4.946  0.00  0.00    +0.002 C 
ATOM     21  C   UNL     1       2.495  -3.829   6.316  0.00  0.00    +0.000 C 
ATOM     22  C   UNL     1       1.204  -3.107   6.707  0.00  0.00    +0.002 C 
ATOM     23  C   UNL     1       0.123  -3.396   5.664  0.00  0.00    +0.022 C 
ENDBRANCH  16  18
ENDBRANCH   1  14
BRANCH   1  24
ATOM     24  N   UNL     1      -1.517  -1.712   0.083  0.00  0.00    -0.285 N 
ATOM     25  C   UNL     1      -2.087  -1.959  -1.113  0.00  0.00    +0.221 C 
ATOM     26  O   UNL     1      -2.656  -3.012  -1.307  0.00  0.00    -0.275 OA
BRANCH  24  27
ATOM     27  C   UNL     1      -0.829  -0.440   0.318  0.00  0.00    +0.108 C 
BRANCH  27  29
ATOM     28  C   UNL     1       1.385   0.715   0.222  0.00  0.00    +0.005 C 
ATOM     29  C   UNL     1       0.609  -0.536  -0.197  0.00  0.00    +0.016 C 
ENDBRANCH  27  29
ENDBRANCH  24  27
BRANCH  25  30
ATOM     30  C   UNL     1      -2.017  -0.927  -2.209  0.00  0.00    +0.131 C 
BRANCH  30  31
ATOM     31  C   UNL     1      -2.725  -1.446  -3.433  0.00  0.00    -0.036 A 
ATOM     32  C   UNL     1      -2.008  -2.081  -4.430  0.00  0.00    +0.004 A 
ATOM     33  C   UNL     1      -2.659  -2.557  -5.553  0.00  0.00    +0.000 A 
ATOM     34  C   UNL     1      -4.026  -2.398  -5.679  0.00  0.00    +0.000 A 
ATOM     35  C   UNL     1      -4.743  -1.764  -4.683  0.00  0.00    +0.003 A 
ATOM     36  C   UNL     1      -4.093  -1.292  -3.557  0.00  0.00    -0.047 A 
ATOM     37  C   UNL     1      -4.876  -0.605  -2.468  0.00  0.00    +0.044 C 
ENDBRANCH  30  31
ENDBRANCH  25  30
ENDBRANCH   1  24
TORSDOF 11
