REMARK  Name = ZINC01987182
REMARK  11 active torsions:
REMARK  status: ('A' for Active; 'I' for Inactive)
REMARK    1  A    between atoms: C_1  and  C_2
REMARK    2  A    between atoms: C_2  and  C_3
REMARK    3  A    between atoms: C_3  and  O_4
REMARK    4  A    between atoms: O_4  and  C_5
REMARK    5  A    between atoms: C_5  and  C_7
REMARK    6  A    between atoms: C_7  and  C_9
REMARK    7  A    between atoms: C_7  and  S_11
REMARK    8  A    between atoms: C_9  and  C_10
REMARK    9  A    between atoms: S_11  and  C_12
REMARK   10  A    between atoms: C_14  and  C_22
REMARK   11  A    between atoms: C_15  and  C_21
REMARK                            x       y       z     vdW  Elec       q    Type
REMARK                         _______ _______ _______ _____ _____    ______ ____
ROOT
ATOM      1  C   UNL     1       4.143   3.991  -1.776  0.00  0.00    +0.109 A 
ATOM      2  C   UNL     1       4.123   2.652  -2.259  0.00  0.00    +0.043 A 
ATOM      3  C   UNL     1       3.837   1.415  -1.555  0.00  0.00    -0.029 A 
ATOM      4  C   UNL     1       3.878   0.255  -2.227  0.00  0.00    -0.008 A 
ATOM      5  S   UNL     1       4.313   0.748  -3.884  0.00  0.00    -0.074 S 
ATOM      6  C   UNL     1       4.427   2.499  -3.629  0.00  0.00    +0.113 A 
ATOM      7  N   UNL     1       4.703   3.539  -4.393  0.00  0.00    -0.228 NA
ATOM      8  C   UNL     1       4.711   4.756  -3.886  0.00  0.00    +0.223 A 
ATOM      9  N   UNL     1       4.436   4.974  -2.612  0.00  0.00    -0.229 NA
ATOM     10  C   UNL     1       3.618  -1.135  -1.705  0.00  0.00    +0.052 C 
ATOM     11  C   UNL     1       3.497   1.434  -0.087  0.00  0.00    +0.045 C 
ENDROOT
BRANCH   1  12
ATOM     12  S   UNL     1       3.783   4.335  -0.086  0.00  0.00    -0.090 S 
BRANCH  12  13
ATOM     13  C   UNL     1       3.849   6.143  -0.112  0.00  0.00    +0.161 C 
BRANCH  13  14
ATOM     14  C   UNL     1       5.275   6.591  -0.299  0.00  0.00    +0.321 C 
ATOM     15  O   UNL     1       6.184   5.836  -0.047  0.00  0.00    -0.250 OA
BRANCH  14  16
ATOM     16  O   UNL     1       5.537   7.830  -0.746  0.00  0.00    -0.464 OA
BRANCH  16  17
ATOM     17  C   UNL     1       6.934   8.194  -0.902  0.00  0.00    +0.232 C 
BRANCH  17  19
ATOM     18  C   UNL     1       8.504  10.014  -1.581  0.00  0.00    +0.007 C 
ATOM     19  C   UNL     1       7.032   9.631  -1.416  0.00  0.00    +0.038 C 
ENDBRANCH  17  19
ENDBRANCH  16  17
ENDBRANCH  14  16
ENDBRANCH  13  14
BRANCH  13  20
ATOM     20  C   UNL     1       3.311   6.692   1.211  0.00  0.00    +0.022 C 
ATOM     21  C   UNL     1       1.823   6.359   1.334  0.00  0.00    +0.005 C 
ENDBRANCH  13  20
ENDBRANCH  12  13
ENDBRANCH   1  12
TORSDOF 7
