REMARK  Name = ZINC24610166
REMARK  7 active torsions:
REMARK  status: ('A' for Active; 'I' for Inactive)
REMARK    1  A    between atoms: C_3  and  C_22
REMARK    2  A    between atoms: C_6  and  C_7
REMARK    3  A    between atoms: C_7  and  N_8
REMARK    4  A    between atoms: C_9  and  C_11
REMARK    5  A    between atoms: C_11  and  C_12
REMARK    6  A    between atoms: C_22  and  S_23
REMARK    7  A    between atoms: S_23  and  N_26
REMARK                            x       y       z     vdW  Elec       q    Type
REMARK                         _______ _______ _______ _____ _____    ______ ____
ROOT
ATOM      1  N   UNL     1       0.312   1.235   7.536  0.00  0.00    -0.311 N 
ATOM      2  C   UNL     1       0.649   1.050   8.828  0.00  0.00    +0.218 C 
ATOM      3  O   UNL     1       1.681   0.479   9.109  0.00  0.00    -0.275 OA
ATOM      4  H   UNL     1      -0.624   1.753   7.281  0.00  0.00    +0.149 HD
ENDROOT
BRANCH   1   5
ATOM      5  C   UNL     1       1.193   0.748   6.472  0.00  0.00    +0.139 C 
BRANCH   5  11
ATOM      6  C   UNL     1       0.895   2.280   4.515  0.00  0.00    +0.005 A 
ATOM      7  C   UNL     1       0.345   2.584   3.284  0.00  0.00    +0.005 A 
ATOM      8  C   UNL     1      -0.509   1.688   2.668  0.00  0.00    -0.025 A 
ATOM      9  C   UNL     1      -0.817   0.490   3.286  0.00  0.00    +0.005 A 
ATOM     10  C   UNL     1      -0.263   0.184   4.515  0.00  0.00    +0.005 A 
ATOM     11  C   UNL     1       0.592   1.080   5.130  0.00  0.00    -0.030 A 
BRANCH   8  12
ATOM     12  C   UNL     1      -1.110   2.020   1.327  0.00  0.00    +0.219 C 
BRANCH  12  13
ATOM     13  S   UNL     1      -0.017   1.417   0.010  0.00  0.00    +0.031 S 
ATOM     14  O   UNL     1       0.002  -0.004   0.002  0.00  0.00    -0.158 OA
ATOM     15  O   UNL     1       1.195   2.158   0.002  0.00  0.00    -0.158 OA
BRANCH  13  16
ATOM     16  N   UNL     1      -0.778   1.837  -1.400  0.00  0.00    -0.208 NA
ATOM     17  H   UNL     1      -0.173   1.503  -2.256  0.00  0.00    +0.144 HD
ATOM     18  H   UNL     1      -0.899   2.929  -1.440  0.00  0.00    +0.144 HD
ENDBRANCH  13  16
ENDBRANCH  12  13
ENDBRANCH   8  12
ENDBRANCH   5  11
ENDBRANCH   1   5
BRANCH   2  19
ATOM     19  C   UNL     1      -0.257   1.551   9.922  0.00  0.00    +0.130 C 
BRANCH  19  20
ATOM     20  C   UNL     1       0.344   1.219  11.264  0.00  0.00    -0.038 A 
ATOM     21  C   UNL     1       0.038   0.022  11.884  0.00  0.00    +0.004 A 
ATOM     22  C   UNL     1       0.595  -0.276  13.110  0.00  0.00    +0.004 A 
ATOM     23  C   UNL     1       1.452   0.622  13.733  0.00  0.00    -0.044 A 
ATOM     24  C   UNL     1       1.755   1.814  13.117  0.00  0.00    -0.044 A 
ATOM     25  C   UNL     1       1.197   2.111  11.879  0.00  0.00    +0.008 A 
ATOM     26  C   UNL     1       2.684   2.830  13.728  0.00  0.00    +0.035 C 
ATOM     27  C   UNL     1       2.859   2.567  15.223  0.00  0.00    +0.005 C 
ATOM     28  C   UNL     1       3.234   1.093  15.414  0.00  0.00    +0.005 C 
ATOM     29  C   UNL     1       2.013   0.238  15.078  0.00  0.00    +0.035 C 
ENDBRANCH  19  20
ENDBRANCH   2  19
TORSDOF 7
