REMARK  Name = ZINC05731684
REMARK  5 active torsions:
REMARK  status: ('A' for Active; 'I' for Inactive)
REMARK    1  A    between atoms: N_8  and  N_9
REMARK    2  A    between atoms: N_9  and  C_10
REMARK    3  A    between atoms: C_10  and  N_12
REMARK    4  A    between atoms: N_15  and  C_16
REMARK    5  A    between atoms: C_16  and  C_17
REMARK                            x       y       z     vdW  Elec       q    Type
REMARK                         _______ _______ _______ _____ _____    ______ ____
ROOT
ATOM      1  C   UNL     1       0.047   1.318   0.763  0.00  0.00    +0.001 A 
ATOM      2  C   UNL     1       1.229   2.035   0.675  0.00  0.00    +0.002 A 
ATOM      3  C   UNL     1       2.418   1.397   0.384  0.00  0.00    +0.024 A 
ATOM      4  C   UNL     1       2.440   0.023   0.175  0.00  0.00    +0.046 A 
ATOM      5  C   UNL     1       1.242  -0.698   0.265  0.00  0.00    +0.028 A 
ATOM      6  C   UNL     1       0.049  -0.047   0.559  0.00  0.00    +0.012 A 
ATOM      7  C   UNL     1       1.585  -2.114  -0.004  0.00  0.00    +0.153 C 
ATOM      8  N   UNL     1       0.772  -3.143  -0.024  0.00  0.00    -0.175 NA
ATOM      9  C   UNL     1       3.041  -2.115  -0.244  0.00  0.00    +0.271 C 
ATOM     10  O   UNL     1       3.724  -3.088  -0.502  0.00  0.00    -0.268 OA
ATOM     11  N   UNL     1       3.479  -0.850  -0.127  0.00  0.00    -0.264 N 
ENDROOT
BRANCH   8  12
ATOM     12  N   UNL     1      -0.610  -2.947   0.096  0.00  0.00    -0.218 N 
ATOM     13  H   UNL     1      -0.973  -2.047   0.104  0.00  0.00    +0.176 HD
BRANCH  12  14
ATOM     14  C   UNL     1      -1.435  -4.007   0.199  0.00  0.00    +0.147 C 
ATOM     15  S   UNL     1      -3.124  -3.767   0.345  0.00  0.00    -0.017 S 
BRANCH  14  16
ATOM     16  N   UNL     1      -0.931  -5.257   0.186  0.00  0.00    -0.339 N 
ATOM     17  H   UNL     1       0.026  -5.393   0.104  0.00  0.00    +0.144 HD
ATOM     18  H   UNL     1      -1.525  -6.020   0.261  0.00  0.00    +0.144 HD
ENDBRANCH  14  16
ENDBRANCH  12  14
ENDBRANCH   8  12
BRANCH  11  19
ATOM     19  C   UNL     1       4.876  -0.441  -0.297  0.00  0.00    +0.130 C 
BRANCH  19  20
ATOM     20  C   UNL     1       5.595  -0.509   1.052  0.00  0.00    +0.128 C 
ATOM     21 CL   UNL     1       7.314  -0.006   0.843  0.00  0.00    -0.124 Cl
ENDBRANCH  19  20
ENDBRANCH  11  19
TORSDOF 5
