REMARK  Name = ZINC51044247
REMARK  7 active torsions:
REMARK  status: ('A' for Active; 'I' for Inactive)
REMARK    1  A    between atoms: C_1  and  C_2
REMARK    2  A    between atoms: C_2  and  C_3
REMARK    3  A    between atoms: N_12  and  C_13
REMARK    4  A    between atoms: C_13  and  C_15
REMARK    5  A    between atoms: C_15  and  N_16
REMARK    6  A    between atoms: C_20  and  C_23
REMARK    7  A    between atoms: N_25  and  C_26
REMARK                            x       y       z     vdW  Elec       q    Type
REMARK                         _______ _______ _______ _____ _____    ______ ____
ROOT
ATOM      1  C   UNL     1       5.561  -3.208   5.555  0.00  0.00    +0.222 C 
ATOM      2  O   UNL     1       4.537  -3.865   5.550  0.00  0.00    -0.276 OA
ENDROOT
BRANCH   1  11
ATOM      3  C   UNL     1       0.742  -0.511   1.242  0.00  0.00    -0.006 C 
ATOM      4  C   UNL     1       0.663  -2.039   1.297  0.00  0.00    +0.010 C 
ATOM      5  C   UNL     1       1.190  -2.540   2.644  0.00  0.00    +0.054 C 
ATOM      6  C   UNL     1       2.568  -1.938   2.886  0.00  0.00    +0.028 A 
ATOM      7  C   UNL     1       2.976  -0.856   2.206  0.00  0.00    +0.012 A 
ATOM      8  S   UNL     1       4.604  -0.556   2.833  0.00  0.00    -0.057 S 
ATOM      9  C   UNL     1       4.679  -1.828   3.933  0.00  0.00    +0.163 A 
ATOM     10  N   UNL     1       3.473  -2.434   3.787  0.00  0.00    -0.339 N 
ATOM     11  N   UNL     1       5.681  -2.161   4.749  0.00  0.00    -0.158 NA
ATOM     12  C   UNL     1       2.218  -0.092   1.167  0.00  0.00    +0.047 C 
ATOM     13  H   UNL     1       3.252  -3.215   4.319  0.00  0.00    +0.167 HD
BRANCH   3  15
ATOM     14  C   UNL     1      -0.019   1.526   0.010  0.00  0.00    +0.004 C 
ATOM     15  C   UNL     1       0.002  -0.004   0.002  0.00  0.00    +0.000 C 
ENDBRANCH   3  15
ENDBRANCH   1  11
BRANCH   1  16
ATOM     16  C   UNL     1       6.692  -3.583   6.477  0.00  0.00    +0.021 C 
BRANCH  16  17
ATOM     17  N   UNL     1       6.314  -4.768   7.259  0.00  0.00    +0.386 N 
ATOM     18  C   UNL     1       5.184  -4.434   8.134  0.00  0.00    -0.078 C 
ATOM     19  C   UNL     1       4.734  -5.686   8.892  0.00  0.00    -0.018 C 
ATOM     20  C   UNL     1       5.898  -6.210   9.737  0.00  0.00    +0.009 C 
ATOM     21  C   UNL     1       7.096  -6.485   8.823  0.00  0.00    +0.058 C 
ATOM     22  C   UNL     1       7.458  -5.204   8.068  0.00  0.00    -0.065 C 
ATOM     23  H   UNL     1       6.044  -5.511   6.633  0.00  0.00    -0.081 HD
BRANCH  21  24
ATOM     24  C   UNL     1       8.271  -6.930   9.655  0.00  0.00    +0.215 C 
ATOM     25  O   UNL     1       9.300  -6.288   9.643  0.00  0.00    -0.276 OA
ATOM     26  N   UNL     1       8.179  -8.041  10.412  0.00  0.00    -0.312 N 
ATOM     27  H   UNL     1       7.356  -8.554  10.422  0.00  0.00    +0.149 HD
BRANCH  26  28
ATOM     28  C   UNL     1       9.321  -8.474  11.220  0.00  0.00    +0.073 C 
ATOM     29  C   UNL     1       9.664  -9.965  11.218  0.00  0.00    +0.024 C 
ATOM     30  C   UNL     1       9.030  -9.328  12.456  0.00  0.00    +0.024 C 
ENDBRANCH  26  28
ENDBRANCH  21  24
ENDBRANCH  16  17
ENDBRANCH   1  16
TORSDOF 6
