REMARK  Name = ZINC40940697
REMARK  13 active torsions:
REMARK  status: ('A' for Active; 'I' for Inactive)
REMARK    1  A    between atoms: C_1  and  C_2
REMARK    2  A    between atoms: C_2  and  O_3
REMARK    3  A    between atoms: O_3  and  C_4
REMARK    4  A    between atoms: C_6  and  C_16
REMARK    5  A    between atoms: C_9  and  O_10
REMARK    6  A    between atoms: O_10  and  C_11
REMARK    7  A    between atoms: C_11  and  C_12
REMARK    8  A    between atoms: C_12  and  C_13
REMARK    9  A    between atoms: C_13  and  C_14
REMARK   10  A    between atoms: C_13  and  C_15
REMARK   11  A    between atoms: N_20  and  N_24
REMARK   12  A    between atoms: C_25  and  C_27
REMARK   13  A    between atoms: C_32  and  C_33
REMARK                            x       y       z     vdW  Elec       q    Type
REMARK                         _______ _______ _______ _____ _____    ______ ____
ROOT
ATOM      1  C   UNL     1      -0.028  -4.840   0.770  0.00  0.00    +0.028 C 
ATOM      2  C   UNL     1       0.402  -6.128   0.745  0.00  0.00    +0.079 C 
ATOM      3  C   UNL     1       1.587  -6.712   0.085  0.00  0.00    +0.275 C 
ATOM      4  O   UNL     1       2.362  -6.029  -0.558  0.00  0.00    -0.267 OA
ATOM      5  N   UNL     1       1.763  -8.014   0.229  0.00  0.00    -0.169 N 
ATOM      6  C   UNL     1       0.902  -8.767   0.943  0.00  0.00    +0.138 C 
ATOM      7  S   UNL     1       0.958 -10.452   1.242  0.00  0.00    -0.026 S 
ATOM      8  S   UNL     1      -0.307  -7.581   1.507  0.00  0.00    -0.059 S 
ENDROOT
BRANCH   1  11
ATOM      9  C   UNL     1       1.411  -1.585  -0.411  0.00  0.00    +0.162 A 
ATOM     10  C   UNL     1       0.800  -2.527   0.392  0.00  0.00    +0.057 A 
ATOM     11  C   UNL     1       0.621  -3.833  -0.080  0.00  0.00    -0.020 A 
ATOM     12  C   UNL     1       1.062  -4.176  -1.363  0.00  0.00    +0.012 A 
ATOM     13  C   UNL     1       1.671  -3.229  -2.157  0.00  0.00    +0.050 A 
ATOM     14  C   UNL     1       1.843  -1.933  -1.690  0.00  0.00    +0.162 A 
BRANCH   9  15
ATOM     15  O   UNL     1       1.587  -0.315   0.043  0.00  0.00    -0.489 OA
BRANCH  15  17
ATOM     16  C   UNL     1       1.403   1.438   1.696  0.00  0.00    +0.048 C 
ATOM     17  C   UNL     1       1.120  -0.028   1.363  0.00  0.00    +0.226 C 
ENDBRANCH  15  17
ENDBRANCH   9  15
BRANCH  14  18
ATOM     18  O   UNL     1       2.439  -1.002  -2.481  0.00  0.00    -0.488 OA
BRANCH  18  19
ATOM     19  C   UNL     1       2.858  -1.426  -3.780  0.00  0.00    +0.229 C 
BRANCH  19  20
ATOM     20  C   UNL     1       3.502  -0.250  -4.517  0.00  0.00    +0.044 C 
BRANCH  20  21
ATOM     21  C   UNL     1       3.950  -0.704  -5.908  0.00  0.00    -0.014 C 
ATOM     22  C   UNL     1       4.480   0.499  -6.690  0.00  0.00    +0.007 C 
ATOM     23  C   UNL     1       5.057  -1.751  -5.770  0.00  0.00    +0.007 C 
ENDBRANCH  20  21
ENDBRANCH  19  20
ENDBRANCH  18  19
ENDBRANCH  14  18
ENDBRANCH   1  11
BRANCH   5  24
ATOM     24  N   UNL     1       2.870  -8.626  -0.374  0.00  0.00    -0.222 N 
ATOM     25  C   UNL     1       3.925  -9.002   0.377  0.00  0.00    +0.261 C 
ATOM     26  O   UNL     1       3.915  -8.810   1.578  0.00  0.00    -0.269 OA
ATOM     27  H   UNL     1       2.878  -8.779  -1.331  0.00  0.00    +0.174 HD
BRANCH  25  28
ATOM     28  C   UNL     1       5.093  -9.648  -0.259  0.00  0.00    +0.041 A 
ATOM     29  C   UNL     1       5.053  -9.991  -1.611  0.00  0.00    +0.013 A 
ATOM     30  C   UNL     1       6.147 -10.593  -2.199  0.00  0.00    +0.001 A 
ATOM     31  C   UNL     1       7.281 -10.856  -1.450  0.00  0.00    +0.000 A 
ATOM     32  C   UNL     1       7.326 -10.519  -0.110  0.00  0.00    +0.004 A 
ATOM     33  C   UNL     1       6.241  -9.911   0.489  0.00  0.00    -0.038 A 
ATOM     34  C   UNL     1       6.295  -9.538   1.948  0.00  0.00    +0.044 C 
ENDBRANCH  25  28
ENDBRANCH   5  24
TORSDOF 9
