REMARK  Name = ZINC12028175
REMARK  6 active torsions:
REMARK  status: ('A' for Active; 'I' for Inactive)
REMARK    1  A    between atoms: C_1  and  C_2
REMARK    2  A    between atoms: C_3  and  C_18
REMARK    3  A    between atoms: C_11  and  C_13
REMARK    4  A    between atoms: N_20  and  C_21
REMARK    5  A    between atoms: C_21  and  C_22
REMARK    6  A    between atoms: C_22  and  N_62
REMARK                            x       y       z     vdW  Elec       q    Type
REMARK                         _______ _______ _______ _____ _____    ______ ____
ROOT
ATOM      1  C   UNL     1       1.208  10.330  -0.340  0.00  0.00    +0.066 C 
ATOM      2  C   UNL     1      -0.169   9.732  -0.206  0.00  0.00    +0.057 A 
ATOM      3  C   UNL     1      -1.356  10.429  -0.109  0.00  0.00    +0.077 A 
ATOM      4  C   UNL     1      -2.393   9.474   0.006  0.00  0.00    +0.148 A 
ATOM      5  N   UNL     1      -1.855   8.287  -0.027  0.00  0.00    -0.171 NA
ATOM      6  N   UNL     1      -0.469   8.420  -0.163  0.00  0.00    -0.202 N 
ATOM      7  C   UNL     1       0.449   7.371  -0.235  0.00  0.00    +0.252 A 
ATOM      8  N   UNL     1       1.736   7.649  -0.362  0.00  0.00    -0.219 NA
ATOM      9  C   UNL     1       2.640   6.684  -0.435  0.00  0.00    +0.117 A 
ATOM     10  C   UNL     1       2.229   5.366  -0.376  0.00  0.00    +0.049 A 
ATOM     11  C   UNL     1       0.860   5.102  -0.240  0.00  0.00    +0.083 A 
ATOM     12  N   UNL     1       0.008   6.127  -0.179  0.00  0.00    -0.210 NA
ENDROOT
BRANCH  11  13
ATOM     13  C   UNL     1       0.367   3.713  -0.172  0.00  0.00    +0.038 A 
ATOM     14  C   UNL     1      -0.919   3.257  -0.042  0.00  0.00    +0.017 A 
ATOM     15  C   UNL     1      -1.140   1.900  -0.005  0.00  0.00    +0.008 A 
ATOM     16  C   UNL     1      -0.080   1.054  -0.088  0.00  0.00    +0.046 A 
ATOM     17  S   UNL     1       1.292   2.187  -0.237  0.00  0.00    -0.095 S 
ENDBRANCH  11  13
BRANCH   3  18
ATOM     18  C   UNL     1      -1.513  11.895  -0.116  0.00  0.00    +0.247 C 
ATOM     19  O   UNL     1      -0.536  12.611  -0.221  0.00  0.00    -0.270 OA
ATOM     20  N   UNL     1      -2.740  12.441  -0.007  0.00  0.00    -0.313 N 
ATOM     21  H   UNL     1      -3.520  11.870   0.076  0.00  0.00    +0.149 HD
BRANCH  20  22
ATOM     22  C   UNL     1      -2.897  13.898  -0.015  0.00  0.00    +0.092 C 
BRANCH  22  23
ATOM     23  C   UNL     1      -4.386  14.251  -0.005  0.00  0.00    -0.050 C 
ATOM     24  C   UNL     1      -5.049  13.709   1.278  0.00  0.00    -0.010 C 
ATOM     25  C   UNL     1      -6.452  13.245   0.813  0.00  0.00    -0.001 C 
ATOM     26  C   UNL     1      -6.167  12.640  -0.584  0.00  0.00    -0.001 C 
ATOM     27  C   UNL     1      -5.096  13.572  -1.189  0.00  0.00    -0.010 C 
BRANCH  23  33
ATOM     28  C   UNL     1      -4.071  16.227  -1.369  0.00  0.00    -0.078 C 
ATOM     29  C   UNL     1      -4.397  17.718  -1.474  0.00  0.00    -0.019 C 
ATOM     30  C   UNL     1      -3.731  18.465  -0.316  0.00  0.00    -0.004 C 
ATOM     31  C   UNL     1      -4.217  17.873   1.010  0.00  0.00    -0.019 C 
ATOM     32  C   UNL     1      -3.896  16.377   1.044  0.00  0.00    -0.078 C 
ATOM     33  N   UNL     1      -4.587  15.713  -0.082  0.00  0.00    +0.384 N 
ATOM     34  H   UNL     1      -5.592  15.915  -0.022  0.00  0.00    -0.081 HD
ENDBRANCH  23  33
ENDBRANCH  22  23
ENDBRANCH  20  22
ENDBRANCH   3  18
TORSDOF 5
