REMARK  Name = ZINC36491592
REMARK  12 active torsions:
REMARK  status: ('A' for Active; 'I' for Inactive)
REMARK    1  A    between atoms: C_1  and  C_2
REMARK    2  A    between atoms: C_5  and  S_8
REMARK    3  A    between atoms: S_8  and  C_11
REMARK    4  A    between atoms: C_11  and  N_12
REMARK    5  A    between atoms: C_13  and  C_15
REMARK    6  A    between atoms: C_15  and  C_17
REMARK    7  A    between atoms: C_15  and  N_24
REMARK    8  A    between atoms: C_22  and  O_23
REMARK    9  A    between atoms: N_24  and  C_25
REMARK   10  A    between atoms: C_31  and  C_33
REMARK   11  A    between atoms: C_33  and  O_34
REMARK   12  A    between atoms: O_34  and  C_35
REMARK                            x       y       z     vdW  Elec       q    Type
REMARK                         _______ _______ _______ _____ _____    ______ ____
ROOT
ATOM      1  C   UNL     1       3.631  -5.361   2.997  0.00  0.00    +0.196 C 
ENDROOT
BRANCH   1   2
ATOM      2  C   UNL     1       2.638  -4.370   3.546  0.00  0.00    +0.023 A 
ATOM      3  C   UNL     1       1.568  -3.962   2.772  0.00  0.00    +0.009 A 
ATOM      4  C   UNL     1       0.657  -3.052   3.275  0.00  0.00    +0.001 A 
ATOM      5  C   UNL     1       0.813  -2.548   4.554  0.00  0.00    +0.004 A 
ATOM      6  C   UNL     1       1.880  -2.953   5.331  0.00  0.00    +0.046 A 
ATOM      7  C   UNL     1       2.793  -3.870   4.830  0.00  0.00    +0.122 A 
BRANCH   7   8
ATOM      8  O   UNL     1       3.841  -4.275   5.595  0.00  0.00    -0.506 OA
ATOM      9  H   UNL     1       4.606  -3.684   5.558  0.00  0.00    +0.292 HD
ENDBRANCH   7   8
ENDBRANCH   1   2
BRANCH   1  11
ATOM     10  N   UNL     1       2.958  -5.102   0.630  0.00  0.00    -0.294 N 
ATOM     11  C   UNL     1       3.118  -5.916   1.693  0.00  0.00    +0.239 C 
ATOM     12  O   UNL     1       2.849  -7.095   1.599  0.00  0.00    -0.273 OA
ATOM     13  H   UNL     1       3.101  -4.148   0.725  0.00  0.00    +0.150 HD
BRANCH  10  14
ATOM     14  C   UNL     1       2.568  -5.660  -0.667  0.00  0.00    +0.278 C 
BRANCH  14  15
ATOM     15  S   UNL     1       0.770  -5.520  -0.869  0.00  0.00    +0.013 S 
ATOM     16  O   UNL     1       0.111  -5.939   0.318  0.00  0.00    -0.168 OA
ATOM     17  O   UNL     1       0.379  -6.033  -2.135  0.00  0.00    -0.168 OA
BRANCH  15  22
ATOM     18  C   UNL     1      -0.300   0.408  -1.215  0.00  0.00    +0.044 C 
ATOM     19  C   UNL     1      -0.032  -1.073  -1.129  0.00  0.00    -0.050 A 
ATOM     20  C   UNL     1       0.371  -1.769  -2.253  0.00  0.00    +0.005 A 
ATOM     21  C   UNL     1       0.616  -3.127  -2.173  0.00  0.00    +0.027 A 
ATOM     22  C   UNL     1       0.459  -3.789  -0.970  0.00  0.00    +0.090 A 
ATOM     23  C   UNL     1       0.057  -3.092   0.154  0.00  0.00    +0.027 A 
ATOM     24  C   UNL     1      -0.184  -1.733   0.076  0.00  0.00    +0.005 A 
ENDBRANCH  15  22
ENDBRANCH  14  15
ENDBRANCH  10  14
ENDBRANCH   1  11
BRANCH   1  25
ATOM     25  N   UNL     1       3.811  -6.454   3.955  0.00  0.00    -0.281 N 
ATOM     26  C   UNL     1       5.041  -6.744   4.424  0.00  0.00    +0.242 C 
ATOM     27  O   UNL     1       5.986  -6.049   4.116  0.00  0.00    -0.273 OA
BRANCH  25  28
ATOM     28  C   UNL     1       2.654  -7.233   4.404  0.00  0.00    +0.077 C 
ATOM     29  C   UNL     1       2.727  -8.642   3.813  0.00  0.00    +0.022 C 
ATOM     30  C   UNL     1       1.519  -9.455   4.282  0.00  0.00    +0.002 C 
ATOM     31  C   UNL     1       0.232  -8.773   3.815  0.00  0.00    +0.000 C 
ATOM     32  C   UNL     1       0.159  -7.363   4.405  0.00  0.00    +0.002 C 
ATOM     33  C   UNL     1       1.367  -6.550   3.936  0.00  0.00    +0.022 C 
ENDBRANCH  25  28
BRANCH  26  34
ATOM     34  C   UNL     1       5.242  -7.930   5.332  0.00  0.00    +0.255 C 
BRANCH  34  35
ATOM     35  O   UNL     1       6.589  -7.943   5.808  0.00  0.00    -0.374 OA
ATOM     36  C   UNL     1       6.886  -9.034   6.682  0.00  0.00    +0.194 C 
ENDBRANCH  34  35
ENDBRANCH  26  34
ENDBRANCH   1  25
TORSDOF 10
