REMARK  Name = ZINC16842317
REMARK  11 active torsions:
REMARK  status: ('A' for Active; 'I' for Inactive)
REMARK    1  A    between atoms: C_1  and  C_2
REMARK    2  A    between atoms: C_2  and  C_3
REMARK    3  A    between atoms: C_3  and  C_4
REMARK    4  A    between atoms: C_4  and  O_5
REMARK    5  A    between atoms: O_5  and  C_6
REMARK    6  A    between atoms: C_9  and  C_12
REMARK    7  A    between atoms: N_17  and  C_22
REMARK    8  A    between atoms: C_22  and  C_23
REMARK    9  A    between atoms: C_25  and  C_28
REMARK   10  A    between atoms: C_31  and  O_34
REMARK   11  A    between atoms: O_34  and  C_35
REMARK                            x       y       z     vdW  Elec       q    Type
REMARK                         _______ _______ _______ _____ _____    ______ ____
ROOT
ATOM      1  C   UNL     1       0.002  -0.004   0.002  0.00  0.00    +0.094 A 
ATOM      2  C   UNL     1       1.345  -0.412  -0.013  0.00  0.00    +0.063 A 
ATOM      3  C   UNL     1       2.078   0.757  -0.014  0.00  0.00    +0.132 A 
ATOM      4  C   UNL     1       3.513   1.053  -0.026  0.00  0.00    +0.277 A 
ATOM      5  O   UNL     1       4.334   0.155  -0.038  0.00  0.00    -0.265 OA
ATOM      6  N   UNL     1       3.903   2.347  -0.023  0.00  0.00    -0.303 N 
ATOM      7  C   UNL     1       2.957   3.353  -0.009  0.00  0.00    +0.109 A 
ATOM      8  C   UNL     1       1.656   3.095   0.003  0.00  0.00    +0.131 A 
ATOM      9  N   UNL     1       1.179   1.793   0.000  0.00  0.00    -0.233 N 
ATOM     10  N   UNL     1      -0.016   1.316   0.009  0.00  0.00    -0.166 NA
ENDROOT
BRANCH   1  14
ATOM     11  C   UNL     1      -3.398  -2.560   0.020  0.00  0.00    +0.121 A 
ATOM     12  C   UNL     1      -3.567  -1.183   0.030  0.00  0.00    +0.046 A 
ATOM     13  C   UNL     1      -2.467  -0.351   0.024  0.00  0.00    +0.013 A 
ATOM     14  C   UNL     1      -1.184  -0.896   0.009  0.00  0.00    +0.002 A 
ATOM     15  C   UNL     1      -1.018  -2.279  -0.007  0.00  0.00    +0.013 A 
ATOM     16  C   UNL     1      -2.122  -3.106   0.004  0.00  0.00    +0.046 A 
BRANCH  11  17
ATOM     17  O   UNL     1      -4.484  -3.377   0.026  0.00  0.00    -0.492 OA
BRANCH  17  18
ATOM     18  C   UNL     1      -4.238  -4.785   0.016  0.00  0.00    +0.229 C 
BRANCH  18  19
ATOM     19  C   UNL     1      -5.571  -5.536   0.024  0.00  0.00    +0.041 C 
BRANCH  19  21
ATOM     20  C   UNL     1      -6.640  -7.794   0.022  0.00  0.00    +0.004 C 
ATOM     21  C   UNL     1      -5.307  -7.043   0.013  0.00  0.00    -0.000 C 
ENDBRANCH  19  21
ENDBRANCH  18  19
ENDBRANCH  17  18
ENDBRANCH  11  17
ENDBRANCH   1  14
BRANCH   6  22
ATOM     22  C   UNL     1       5.329   2.683  -0.035  0.00  0.00    +0.223 C 
BRANCH  22  23
ATOM     23  C   UNL     1       5.832   2.790   1.382  0.00  0.00    +0.248 A 
ATOM     24  N   UNL     1       6.332   1.819   2.105  0.00  0.00    -0.190 NA
ATOM     25  C   UNL     1       6.644   2.378   3.297  0.00  0.00    +0.202 A 
ATOM     26  N   UNL     1       6.318   3.643   3.227  0.00  0.00    -0.056 NA
ATOM     27  O   UNL     1       5.856   3.894   2.134  0.00  0.00    -0.336 OA
BRANCH  25  28
ATOM     28  C   UNL     1       7.244   1.687   4.464  0.00  0.00    +0.023 A 
ATOM     29  C   UNL     1       7.535   0.325   4.394  0.00  0.00    +0.015 A 
ATOM     30  C   UNL     1       8.098  -0.314   5.479  0.00  0.00    +0.046 A 
ATOM     31  C   UNL     1       8.364   0.395   6.643  0.00  0.00    +0.120 A 
ATOM     32  C   UNL     1       8.070   1.750   6.717  0.00  0.00    +0.046 A 
ATOM     33  C   UNL     1       7.513   2.395   5.633  0.00  0.00    +0.015 A 
BRANCH  31  34
ATOM     34  O   UNL     1       8.914  -0.239   7.712  0.00  0.00    -0.495 OA
ATOM     35  C   UNL     1       9.191  -1.633   7.567  0.00  0.00    +0.277 C 
ENDBRANCH  31  34
ENDBRANCH  25  28
ENDBRANCH  22  23
ENDBRANCH   6  22
TORSDOF 9
