REMARK  Name = ZINC12441900
REMARK  8 active torsions:
REMARK  status: ('A' for Active; 'I' for Inactive)
REMARK    1  A    between atoms: C_1  and  C_2
REMARK    2  A    between atoms: C_2  and  C_25
REMARK    3  A    between atoms: C_8  and  C_10
REMARK    4  A    between atoms: C_10  and  C_11
REMARK    5  A    between atoms: C_10  and  C_12
REMARK    6  A    between atoms: C_10  and  C_13
REMARK    7  A    between atoms: C_14  and  N_17
REMARK    8  A    between atoms: C_18  and  C_20
REMARK                            x       y       z     vdW  Elec       q    Type
REMARK                         _______ _______ _______ _____ _____    ______ ____
ROOT
ATOM      1  C   UNL     1       4.934   4.126  -0.202  0.00  0.00    +0.011 C 
ATOM      2  C   UNL     1       3.598   3.416  -0.430  0.00  0.00    -0.027 C 
ATOM      3  C   UNL     1       3.715   1.952  -0.006  0.00  0.00    +0.062 C 
ATOM      4  C   UNL     1       2.362   1.294  -0.008  0.00  0.00    +0.050 A 
ATOM      5  C   UNL     1       1.187   2.014   0.002  0.00  0.00    +0.012 A 
ATOM      6  C   UNL     1      -0.016   1.318   0.009  0.00  0.00    +0.120 A 
ATOM      7  N   UNL     1       0.002  -0.004   0.002  0.00  0.00    -0.239 NA
ATOM      8  C   UNL     1       1.145  -0.660  -0.012  0.00  0.00    +0.135 A 
ATOM      9  N   UNL     1       2.302  -0.033  -0.016  0.00  0.00    -0.236 NA
ATOM     10  C   UNL     1       1.153   3.517  -0.003  0.00  0.00    +0.107 C 
ATOM     11  C   UNL     1       2.509   4.083   0.418  0.00  0.00    +0.034 C 
ATOM     12  C   UNL     1       3.221   3.493  -1.911  0.00  0.00    +0.011 C 
ENDROOT
BRANCH   8  13
ATOM     13  C   UNL     1       1.126  -2.167  -0.023  0.00  0.00    +0.022 C 
ATOM     14  C   UNL     1      -0.322  -2.659  -0.015  0.00  0.00    +0.019 C 
ATOM     15  C   UNL     1       1.831  -2.677  -1.282  0.00  0.00    +0.019 C 
ATOM     16  C   UNL     1       1.851  -2.695   1.216  0.00  0.00    +0.019 C 
ENDBRANCH   8  13
BRANCH  10  17
ATOM     17  N   UNL     1       0.124   3.980   0.932  0.00  0.00    -0.302 N 
ATOM     18  C   UNL     1      -1.162   4.058   0.534  0.00  0.00    +0.280 C 
ATOM     19  O   UNL     1      -1.468   3.743  -0.601  0.00  0.00    -0.267 OA
ATOM     20  H   UNL     1       0.367   4.231   1.836  0.00  0.00    +0.150 HD
BRANCH  18  21
ATOM     21  C   UNL     1      -2.192   4.522   1.469  0.00  0.00    +0.189 A 
ATOM     22  C   UNL     1      -3.524   4.647   1.198  0.00  0.00    +0.054 A 
ATOM     23  C   UNL     1      -4.133   5.120   2.371  0.00  0.00    +0.042 A 
ATOM     24  C   UNL     1      -3.157   5.260   3.296  0.00  0.00    +0.196 A 
ATOM     25  O   UNL     1      -1.990   4.894   2.750  0.00  0.00    -0.458 OA
ENDBRANCH  18  21
ENDBRANCH  10  17
TORSDOF 3
