REMARK  Name = ZINC31160178
REMARK  14 active torsions:
REMARK  status: ('A' for Active; 'I' for Inactive)
REMARK    1  A    between atoms: C_1  and  C_2
REMARK    2  A    between atoms: C_2  and  C_3
REMARK    3  A    between atoms: C_2  and  C_4
REMARK    4  A    between atoms: C_2  and  O_23
REMARK    5  A    between atoms: C_4  and  C_6
REMARK    6  A    between atoms: C_4  and  O_22
REMARK    7  A    between atoms: C_6  and  O_7
REMARK    8  A    between atoms: O_7  and  C_8
REMARK    9  A    between atoms: O_23  and  C_24
REMARK   10  A    between atoms: C_26  and  O_39
REMARK   11  A    between atoms: C_28  and  O_38
REMARK   12  A    between atoms: C_30  and  O_37
REMARK   13  A    between atoms: C_32  and  C_35
REMARK   14  A    between atoms: C_35  and  O_36
REMARK                            x       y       z     vdW  Elec       q    Type
REMARK                         _______ _______ _______ _____ _____    ______ ____
ROOT
ATOM      1  C   UNL     1       0.256   1.150   0.543  0.00  0.00    +0.044 C 
ATOM      2  C   UNL     1       0.093  -0.309   0.112  0.00  0.00    +0.096 C 
ATOM      3  C   UNL     1       0.901  -1.210   1.048  0.00  0.00    +0.044 C 
ENDROOT
BRANCH   2   4
ATOM      4  C   UNL     1      -1.385  -0.698   0.179  0.00  0.00    +0.183 C 
BRANCH   4   5
ATOM      5  O   UNL     1      -1.859  -0.541   1.519  0.00  0.00    -0.386 OA
ATOM      6  H   UNL     1      -1.786   0.361   1.858  0.00  0.00    +0.210 HD
ENDBRANCH   4   5
BRANCH   4   7
ATOM      7  C   UNL     1      -2.193   0.203  -0.756  0.00  0.00    +0.263 C 
BRANCH   7   8
ATOM      8  O   UNL     1      -3.553  -0.234  -0.782  0.00  0.00    -0.488 OA
BRANCH   8   9
ATOM      9  C   UNL     1      -4.410   0.463  -1.570  0.00  0.00    +0.142 A 
ATOM     10  C   UNL     1      -5.107   1.565  -1.057  0.00  0.00    +0.060 A 
ATOM     11  C   UNL     1      -4.927   1.985   0.333  0.00  0.00    +0.022 A 
ATOM     12  C   UNL     1      -5.629   3.061   0.775  0.00  0.00    +0.093 A 
ATOM     13  C   UNL     1      -6.501   3.737  -0.101  0.00  0.00    +0.337 A 
ATOM     14  O   UNL     1      -7.123   4.701   0.308  0.00  0.00    -0.245 OA
ATOM     15  O   UNL     1      -6.663   3.349  -1.376  0.00  0.00    -0.422 OA
ATOM     16  C   UNL     1      -5.996   2.287  -1.881  0.00  0.00    +0.146 A 
ATOM     17  C   UNL     1      -6.181   1.908  -3.198  0.00  0.00    +0.094 A 
ATOM     18  C   UNL     1      -5.495   0.816  -3.716  0.00  0.00    +0.142 A 
ATOM     19  C   UNL     1      -4.603   0.096  -2.900  0.00  0.00    +0.063 A 
ATOM     20  C   UNL     1      -4.057  -0.966  -3.757  0.00  0.00    +0.053 A 
ATOM     21  C   UNL     1      -4.628  -0.807  -4.957  0.00  0.00    +0.196 A 
ATOM     22  O   UNL     1      -5.480   0.234  -4.933  0.00  0.00    -0.463 OA
ENDBRANCH   8   9
ENDBRANCH   7   8
ENDBRANCH   4   7
ENDBRANCH   2   4
BRANCH   2  23
ATOM     23  O   UNL     1       0.566  -0.466  -1.227  0.00  0.00    -0.340 OA
BRANCH  23  24
ATOM     24  C   UNL     1       1.942  -0.120  -1.402  0.00  0.00    +0.282 C 
ATOM     25  C   UNL     1       2.438  -0.662  -2.744  0.00  0.00    +0.201 C 
ATOM     26  C   UNL     1       3.895  -0.236  -2.951  0.00  0.00    +0.179 C 
ATOM     27  C   UNL     1       3.984   1.291  -2.872  0.00  0.00    +0.177 C 
ATOM     28  C   UNL     1       3.428   1.758  -1.524  0.00  0.00    +0.178 C 
ATOM     29  O   UNL     1       2.081   1.302  -1.382  0.00  0.00    -0.341 OA
BRANCH  27  30
ATOM     30  O   UNL     1       5.349   1.696  -2.993  0.00  0.00    -0.386 OA
ATOM     31  H   UNL     1       5.767   1.429  -3.823  0.00  0.00    +0.210 HD
ENDBRANCH  27  30
BRANCH  26  32
ATOM     32  O   UNL     1       4.344  -0.677  -4.234  0.00  0.00    -0.386 OA
ATOM     33  H   UNL     1       4.308  -1.636  -4.355  0.00  0.00    +0.210 HD
ENDBRANCH  26  32
BRANCH  25  34
ATOM     34  O   UNL     1       2.352  -2.089  -2.745  0.00  0.00    -0.384 OA
ATOM     35  H   UNL     1       1.456  -2.429  -2.614  0.00  0.00    +0.210 HD
ENDBRANCH  25  34
BRANCH  28  36
ATOM     36  C   UNL     1       3.459   3.286  -1.461  0.00  0.00    +0.190 C 
BRANCH  36  37
ATOM     37  O   UNL     1       3.050   3.718  -0.162  0.00  0.00    -0.392 OA
ATOM     38  H   UNL     1       3.046   4.678  -0.050  0.00  0.00    +0.210 HD
ENDBRANCH  36  37
ENDBRANCH  28  36
ENDBRANCH  23  24
ENDBRANCH   2  23
TORSDOF 12
