REMARK  Name = ZINC39633850
REMARK  3 active torsions:
REMARK  status: ('A' for Active; 'I' for Inactive)
REMARK    1  A    between atoms: C_5  and  C_8
REMARK    2  A    between atoms: C_12  and  C_21
REMARK    3  A    between atoms: N_23  and  C_24
REMARK                            x       y       z     vdW  Elec       q    Type
REMARK                         _______ _______ _______ _____ _____    ______ ____
ROOT
ATOM      1  C   UNL     1       1.130  -1.885  -0.156  0.00  0.00    +0.252 C 
ATOM      2  O   UNL     1       1.115  -2.408   0.942  0.00  0.00    -0.270 OA
ATOM      3  N   UNL     1       1.176  -2.647  -1.266  0.00  0.00    -0.296 N 
ATOM      4  C   UNL     1       1.207  -2.196  -2.677  0.00  0.00    +0.121 C 
ATOM      5  C   UNL     1       2.192  -3.162  -3.374  0.00  0.00    +0.100 C 
ATOM      6  C   UNL     1       2.185  -4.427  -2.500  0.00  0.00    -0.004 C 
ATOM      7  C   UNL     1       1.212  -4.127  -1.351  0.00  0.00    +0.115 C 
ATOM      8  C   UNL     1       3.581  -4.694  -1.945  0.00  0.00    -0.010 C 
ATOM      9  C   UNL     1       3.562  -5.988  -1.127  0.00  0.00    -0.082 C 
ATOM     10  N   UNL     1       3.132  -7.102  -1.980  0.00  0.00    +0.379 N 
ATOM     11  C   UNL     1       1.753  -6.882  -2.435  0.00  0.00    -0.082 C 
ATOM     12  C   UNL     1       1.696  -5.625  -3.308  0.00  0.00    -0.010 C 
ATOM     13  H   UNL     1       3.742  -7.166  -2.781  0.00  0.00    -0.086 HD
ATOM     14  H   UNL     1       3.178  -7.963  -1.456  0.00  0.00    -0.086 HD
ENDROOT
BRANCH   1  19
ATOM     15  C   UNL     1      -0.145   1.636  -0.467  0.00  0.00    +0.041 A 
ATOM     16  C   UNL     1       1.039   2.350  -0.491  0.00  0.00    +0.026 A 
ATOM     17  C   UNL     1       2.254   1.693  -0.407  0.00  0.00    +0.077 A 
ATOM     18  C   UNL     1       2.293   0.315  -0.297  0.00  0.00    +0.156 A 
ATOM     19  C   UNL     1       1.099  -0.414  -0.272  0.00  0.00    +0.108 A 
ATOM     20  C   UNL     1      -0.124   0.259  -0.358  0.00  0.00    +0.138 A 
ATOM     21  F   UNL     1      -1.283  -0.436  -0.334  0.00  0.00    -0.205 F 
ATOM     22  F   UNL     1       3.479  -0.326  -0.215  0.00  0.00    -0.203 F 
ATOM     23 CL   UNL     1       3.734   2.601  -0.439  0.00  0.00    -0.081 Cl
ENDBRANCH   1  19
BRANCH   5  24
ATOM     24  C   UNL     1       3.572  -2.560  -3.419  0.00  0.00    +0.218 C 
ATOM     25  O   UNL     1       3.932  -1.801  -2.544  0.00  0.00    -0.275 OA
ATOM     26  N   UNL     1       4.407  -2.865  -4.432  0.00  0.00    -0.312 N 
ATOM     27  H   UNL     1       4.120  -3.472  -5.132  0.00  0.00    +0.149 HD
BRANCH  26  28
ATOM     28  C   UNL     1       5.750  -2.280  -4.476  0.00  0.00    +0.073 C 
ATOM     29  C   UNL     1       5.658  -0.864  -5.080  0.00  0.00    +0.022 C 
ATOM     30  C   UNL     1       6.880  -0.088  -4.669  0.00  0.00    +0.002 C 
ATOM     31  C   UNL     1       8.002  -0.154  -5.722  0.00  0.00    +0.000 C 
ATOM     32  C   UNL     1       8.174  -1.561  -6.325  0.00  0.00    +0.000 C 
ATOM     33  C   UNL     1       8.076  -2.647  -5.289  0.00  0.00    +0.002 C 
ATOM     34  C   UNL     1       6.621  -3.156  -5.246  0.00  0.00    +0.022 C 
ENDBRANCH  26  28
ENDBRANCH   5  24
TORSDOF 3
