REMARK  Name = ZINC33936048
REMARK  15 active torsions:
REMARK  status: ('A' for Active; 'I' for Inactive)
REMARK    1  A    between atoms: C_1  and  C_2
REMARK    2  A    between atoms: C_6  and  C_15
REMARK    3  A    between atoms: C_13  and  C_14
REMARK    4  A    between atoms: C_15  and  C_17
REMARK    5  A    between atoms: C_15  and  N_26
REMARK    6  A    between atoms: N_21  and  C_22
REMARK    7  A    between atoms: C_22  and  C_23
REMARK    8  A    between atoms: C_22  and  C_24
REMARK    9  A    between atoms: C_22  and  C_25
REMARK   10  A    between atoms: N_26  and  C_27
REMARK   11  A    between atoms: N_26  and  C_36
REMARK   12  A    between atoms: C_27  and  C_28
REMARK   13  A    between atoms: C_31  and  O_34
REMARK   14  A    between atoms: O_34  and  C_35
REMARK   15  A    between atoms: C_36  and  C_37
REMARK                            x       y       z     vdW  Elec       q    Type
REMARK                         _______ _______ _______ _____ _____    ______ ____
ROOT
ATOM      1  C   UNL     1       0.130  -4.678  -2.619  0.00  0.00    +0.163 C 
ENDROOT
BRANCH   1   7
ATOM      2  C   UNL     1      -0.551   1.889   0.849  0.00  0.00    +0.044 C 
ATOM      3  C   UNL     1      -0.400   0.391   0.891  0.00  0.00    -0.047 A 
ATOM      4  C   UNL     1      -0.323  -0.315  -0.277  0.00  0.00    +0.013 A 
ATOM      5  C   UNL     1      -0.183  -1.706  -0.238  0.00  0.00    -0.001 A 
ATOM      6  C   UNL     1      -0.097  -2.493  -1.470  0.00  0.00    +0.021 A 
ATOM      7  C   UNL     1       0.038  -3.838  -1.371  0.00  0.00    +0.042 A 
ATOM      8  C   UNL     1       0.094  -4.456  -0.103  0.00  0.00    +0.254 A 
ATOM      9  O   UNL     1       0.216  -5.667  -0.037  0.00  0.00    -0.268 OA
ATOM     10  N   UNL     1       0.016  -3.742   1.034  0.00  0.00    -0.322 N 
ATOM     11  H   UNL     1       0.058  -4.198   1.889  0.00  0.00    +0.169 HD
ATOM     12  C   UNL     1      -0.123  -2.370   1.001  0.00  0.00    +0.049 A 
ATOM     13  C   UNL     1      -0.204  -1.631   2.177  0.00  0.00    +0.030 A 
ATOM     14  C   UNL     1      -0.336  -0.261   2.115  0.00  0.00    -0.046 A 
ATOM     15  C   UNL     1      -0.417   0.539   3.390  0.00  0.00    +0.044 C 
ENDBRANCH   1   7
BRANCH   1  16
ATOM     16  C   UNL     1       1.489  -5.323  -2.692  0.00  0.00    +0.174 A 
ATOM     17  N   UNL     1       1.916  -6.333  -1.974  0.00  0.00    -0.111 NA
ATOM     18  N   UNL     1       3.127  -6.591  -2.330  0.00  0.00    -0.023 NA
ATOM     19  N   UNL     1       3.484  -5.772  -3.257  0.00  0.00    -0.043 NA
ATOM     20  N   UNL     1       2.500  -4.978  -3.512  0.00  0.00    -0.222 N 
BRANCH  20  21
ATOM     21  C   UNL     1       2.486  -3.901  -4.505  0.00  0.00    +0.059 C 
ATOM     22  C   UNL     1       2.149  -2.577  -3.816  0.00  0.00    +0.036 C 
ATOM     23  C   UNL     1       3.862  -3.797  -5.164  0.00  0.00    +0.036 C 
ATOM     24  C   UNL     1       1.431  -4.204  -5.571  0.00  0.00    +0.036 C 
ENDBRANCH  20  21
ENDBRANCH   1  16
BRANCH   1  25
ATOM     25  N   UNL     1      -0.906  -5.719  -2.586  0.00  0.00    -0.282 NA
BRANCH  25  26
ATOM     26  C   UNL     1      -0.934  -6.474  -3.846  0.00  0.00    +0.120 C 
BRANCH  26  27
ATOM     27  C   UNL     1       0.088  -7.580  -3.792  0.00  0.00    -0.033 A 
ATOM     28  C   UNL     1       1.338  -7.392  -4.352  0.00  0.00    +0.008 A 
ATOM     29  C   UNL     1       2.277  -8.405  -4.304  0.00  0.00    +0.046 A 
ATOM     30  C   UNL     1       1.964  -9.611  -3.694  0.00  0.00    +0.120 A 
ATOM     31  C   UNL     1       0.709  -9.796  -3.132  0.00  0.00    +0.046 A 
ATOM     32  C   UNL     1      -0.224  -8.779  -3.178  0.00  0.00    +0.008 A 
BRANCH  30  33
ATOM     33  O   UNL     1       2.886 -10.608  -3.646  0.00  0.00    -0.495 OA
ATOM     34  C   UNL     1       2.494 -11.822  -3.002  0.00  0.00    +0.277 C 
ENDBRANCH  30  33
ENDBRANCH  26  27
ENDBRANCH  25  26
BRANCH  25  35
ATOM     35  C   UNL     1      -2.223  -5.142  -2.287  0.00  0.00    +0.117 C 
BRANCH  35  36
ATOM     36  C   UNL     1      -3.186  -6.257  -1.871  0.00  0.00    +0.132 C 
ATOM     37  C   UNL     1      -4.581  -5.663  -1.582  0.00  0.00    +0.035 C 
ATOM     38  C   UNL     1      -5.037  -6.481  -0.343  0.00  0.00    +0.031 C 
ATOM     39  C   UNL     1      -3.684  -6.694   0.383  0.00  0.00    +0.160 C 
ATOM     40  O   UNL     1      -2.719  -6.877  -0.668  0.00  0.00    -0.375 OA
ENDBRANCH  35  36
ENDBRANCH  25  35
ENDBRANCH   1  25
TORSDOF 9
