REMARK  Name = ZINC41313882
REMARK  6 active torsions:
REMARK  status: ('A' for Active; 'I' for Inactive)
REMARK    1  A    between atoms: C_1  and  C_2
REMARK    2  A    between atoms: C_9  and  C_11
REMARK    3  A    between atoms: N_13  and  C_14
REMARK    4  A    between atoms: C_15  and  C_25
REMARK    5  A    between atoms: C_20  and  C_24
REMARK    6  A    between atoms: N_27  and  C_28
REMARK                            x       y       z     vdW  Elec       q    Type
REMARK                         _______ _______ _______ _____ _____    ______ ____
ROOT
ATOM      1  C   UNL     1       0.068  -0.105   6.793  0.00  0.00    +0.085 A 
ATOM      2  C   UNL     1       0.054   1.019   7.604  0.00  0.00    +0.069 A 
ATOM      3  C   UNL     1       0.071   0.801   9.040  0.00  0.00    -0.023 A 
ATOM      4  C   UNL     1       0.100  -0.500   9.401  0.00  0.00    -0.004 A 
ATOM      5  S   UNL     1       0.096  -1.390   7.873  0.00  0.00    -0.077 S 
ATOM      6  C   UNL     1       0.126  -1.047  10.795  0.00  0.00    +0.046 C 
ATOM      7  C   UNL     1       0.495   0.095  11.754  0.00  0.00    -0.009 C 
ATOM      8  C   UNL     1      -0.368   1.317  11.426  0.00  0.00    +0.008 C 
ATOM      9  C   UNL     1       0.059   1.910  10.082  0.00  0.00    +0.037 C 
ATOM     10  C   UNL     1       0.238  -0.344  13.197  0.00  0.00    +0.008 C 
ENDROOT
BRANCH   1  13
ATOM     11  C   UNL     1       0.066  -1.347   4.778  0.00  0.00    +0.284 C 
ATOM     12  O   UNL     1       0.087  -2.378   5.424  0.00  0.00    -0.266 OA
ATOM     13  N   UNL     1       0.055  -0.156   5.409  0.00  0.00    -0.273 N 
ATOM     14  H   UNL     1       0.038   0.665   4.893  0.00  0.00    +0.156 HD
BRANCH  11  23
ATOM     15  C   UNL     1      -0.018   1.503   0.010  0.00  0.00    +0.047 C 
ATOM     16  C   UNL     1       0.002  -0.004   0.002  0.00  0.00    -0.008 A 
ATOM     17  C   UNL     1       0.006  -0.688  -1.195  0.00  0.00    +0.007 A 
ATOM     18  C   UNL     1       0.025  -2.076  -1.219  0.00  0.00    +0.001 A 
ATOM     19  C   UNL     1       0.040  -2.788  -0.053  0.00  0.00    +0.012 A 
ATOM     20  C   UNL     1       0.037  -2.114   1.171  0.00  0.00    +0.021 A 
ATOM     21  C   UNL     1       0.023  -0.707   1.201  0.00  0.00    +0.139 A 
ATOM     22  O   UNL     1       0.030  -0.327   2.493  0.00  0.00    -0.450 OA
ATOM     23  C   UNL     1       0.053  -1.401   3.310  0.00  0.00    +0.191 A 
ATOM     24  C   UNL     1       0.049  -2.540   2.570  0.00  0.00    +0.063 A 
ENDBRANCH  11  23
ENDBRANCH   1  13
BRANCH   2  25
ATOM     25  C   UNL     1       0.023   2.370   7.037  0.00  0.00    +0.247 C 
ATOM     26  O   UNL     1      -1.044   2.911   6.812  0.00  0.00    -0.270 OA
ATOM     27  N   UNL     1       1.176   3.014   6.765  0.00  0.00    -0.307 N 
ATOM     28  H   UNL     1       2.026   2.582   6.945  0.00  0.00    +0.149 HD
BRANCH  27  29
ATOM     29  C   UNL     1       1.145   4.364   6.199  0.00  0.00    +0.096 C 
ATOM     30  C   UNL     1       1.040   4.282   4.667  0.00  0.00    +0.046 C 
ATOM     31  C   UNL     1       1.327   5.670   4.043  0.00  0.00    +0.168 C 
ATOM     32  S   UNL     1       2.446   6.444   5.281  0.00  0.00    -0.029 S 
ATOM     33  O   UNL     1       1.810   7.595   5.821  0.00  0.00    -0.174 OA
ATOM     34  O   UNL     1       3.746   6.562   4.719  0.00  0.00    -0.174 OA
ATOM     35  C   UNL     1       2.461   5.113   6.554  0.00  0.00    +0.188 C 
ENDBRANCH  27  29
ENDBRANCH   2  25
TORSDOF 4
