REMARK  Name = ZINC59224377
REMARK  7 active torsions:
REMARK  status: ('A' for Active; 'I' for Inactive)
REMARK    1  A    between atoms: C_1  and  C_2
REMARK    2  A    between atoms: C_7  and  N_8
REMARK    3  A    between atoms: C_14  and  C_15
REMARK    4  A    between atoms: C_19  and  O_23
REMARK    5  A    between atoms: C_20  and  O_21
REMARK    6  A    between atoms: O_21  and  C_22
REMARK    7  A    between atoms: O_23  and  C_24
REMARK                            x       y       z     vdW  Elec       q    Type
REMARK                         _______ _______ _______ _____ _____    ______ ____
ROOT
ATOM      1  N   UNL     1      -0.524  -0.112   2.361  0.00  0.00    -0.225 NA
ATOM      2  C   UNL     1      -0.470  -0.759   3.503  0.00  0.00    +0.166 C 
ATOM      3  N   UNL     1      -0.392  -2.119   3.714  0.00  0.00    -0.260 N 
ATOM      4  C   UNL     1      -0.346  -2.609   4.942  0.00  0.00    +0.256 C 
ATOM      5  O   UNL     1      -0.277  -3.807   5.146  0.00  0.00    -0.269 OA
ATOM      6  C   UNL     1      -0.380  -1.637   6.051  0.00  0.00    +0.078 C 
ATOM      7  C   UNL     1      -0.347  -1.858   7.391  0.00  0.00    +0.032 C 
ATOM      8  S   UNL     1      -0.471  -0.092   5.159  0.00  0.00    -0.049 S 
ATOM      9  H   UNL     1      -0.372  -2.722   2.955  0.00  0.00    +0.157 HD
ENDROOT
BRANCH   1  16
ATOM     10  C   UNL     1       1.265   0.604   0.272  0.00  0.00    +0.046 C 
ATOM     11  C   UNL     1       0.245  -0.496   0.124  0.00  0.00    -0.025 A 
ATOM     12  C   UNL     1       0.157  -1.202  -1.058  0.00  0.00    +0.007 A 
ATOM     13  C   UNL     1      -0.779  -2.212  -1.196  0.00  0.00    +0.020 A 
ATOM     14  C   UNL     1      -1.633  -2.521  -0.151  0.00  0.00    +0.043 A 
ATOM     15  C   UNL     1      -1.556  -1.822   1.037  0.00  0.00    +0.048 A 
ATOM     16  C   UNL     1      -0.610  -0.805   1.185  0.00  0.00    +0.071 A 
ATOM     17 CL   UNL     1      -2.804  -3.790  -0.335  0.00  0.00    -0.083 Cl
ENDBRANCH   1  16
BRANCH   7  18
ATOM     18  C   UNL     1      -0.553  -0.744   8.324  0.00  0.00    +0.022 A 
ATOM     19  C   UNL     1      -1.151   0.444   7.882  0.00  0.00    +0.012 A 
ATOM     20  C   UNL     1      -1.343   1.486   8.761  0.00  0.00    +0.004 A 
ATOM     21  C   UNL     1      -0.947   1.368  10.084  0.00  0.00    +0.049 A 
ATOM     22  C   UNL     1      -0.354   0.201  10.537  0.00  0.00    +0.162 A 
ATOM     23  C   UNL     1      -0.158  -0.864   9.664  0.00  0.00    +0.169 A 
BRANCH  23  24
ATOM     24  O   UNL     1       0.418  -2.012  10.106  0.00  0.00    -0.491 OA
ATOM     25  C   UNL     1       1.842  -2.098  10.020  0.00  0.00    +0.277 C 
ENDBRANCH  23  24
BRANCH  22  26
ATOM     26  O   UNL     1       0.032   0.094  11.837  0.00  0.00    -0.491 OA
ATOM     27  C   UNL     1      -0.205   1.224  12.678  0.00  0.00    +0.277 C 
ENDBRANCH  22  26
ENDBRANCH   7  18
TORSDOF 4
