REMARK  Name = ZINC09049270
REMARK  6 active torsions:
REMARK  status: ('A' for Active; 'I' for Inactive)
REMARK    1  A    between atoms: C_1  and  C_2
REMARK    2  A    between atoms: C_4  and  O_31
REMARK    3  A    between atoms: C_5  and  C_23
REMARK    4  A    between atoms: C_11  and  C_12
REMARK    5  A    between atoms: C_23  and  N_55
REMARK    6  A    between atoms: C_27  and  C_30
REMARK                            x       y       z     vdW  Elec       q    Type
REMARK                         _______ _______ _______ _____ _____    ______ ____
ROOT
ATOM      1  C   UNL     1       3.139  10.506   0.024  0.00  0.00    +0.045 C 
ATOM      2  C   UNL     1       1.935   9.600   0.031  0.00  0.00    -0.033 A 
ATOM      3  C   UNL     1       0.677  10.133   0.045  0.00  0.00    +0.050 A 
ATOM      4  C   UNL     1      -0.437   9.299   0.051  0.00  0.00    +0.122 A 
ATOM      5  C   UNL     1      -0.285   7.921   0.043  0.00  0.00    +0.020 A 
ATOM      6  C   UNL     1       0.987   7.362   0.029  0.00  0.00    +0.145 A 
ATOM      7  C   UNL     1       2.103   8.215   0.023  0.00  0.00    +0.071 A 
ATOM      8  C   UNL     1       3.291   7.343   0.008  0.00  0.00    +0.232 C 
ATOM      9  O   UNL     1       4.463   7.679   0.000  0.00  0.00    -0.283 OA
ATOM     10  C   UNL     1       2.748   5.979   0.006  0.00  0.00    +0.179 C 
ATOM     11  C   UNL     1       3.471   4.825  -0.006  0.00  0.00    +0.096 C 
ATOM     12  O   UNL     1       1.398   6.076   0.014  0.00  0.00    -0.451 OA
ENDROOT
BRANCH  11  13
ATOM     13  C   UNL     1       2.809   3.574  -0.006  0.00  0.00    +0.133 A 
ATOM     14  C   UNL     1       3.423   2.357  -0.018  0.00  0.00    +0.058 A 
ATOM     15  C   UNL     1       2.397   1.379  -0.013  0.00  0.00    +0.022 A 
ATOM     16  C   UNL     1       2.394  -0.021  -0.021  0.00  0.00    +0.027 A 
ATOM     17  C   UNL     1       1.206  -0.696  -0.013  0.00  0.00    +0.019 A 
ATOM     18  C   UNL     1       0.002  -0.004   0.002  0.00  0.00    +0.019 A 
ATOM     19  C   UNL     1      -0.017   1.375   0.010  0.00  0.00    +0.048 A 
ATOM     20  C   UNL     1       1.178   2.083   0.002  0.00  0.00    +0.136 A 
ATOM     21  O   UNL     1       1.469   3.400   0.005  0.00  0.00    -0.455 OA
ATOM     22 BR   UNL     1       1.202  -2.587  -0.022  0.00  0.00    -0.050 Br
ENDBRANCH  11  13
BRANCH   4  23
ATOM     23  O   UNL     1      -1.682   9.838   0.064  0.00  0.00    -0.506 OA
ATOM     24  H   UNL     1      -2.051   9.999  -0.815  0.00  0.00    +0.292 HD
ENDBRANCH   4  23
BRANCH   5  25
ATOM     25  C   UNL     1      -1.500   7.029   0.050  0.00  0.00    -0.036 C 
BRANCH  25  32
ATOM     26  C   UNL     1      -2.367   7.966  -2.007  0.00  0.00    -0.078 C 
ATOM     27  C   UNL     1      -2.644   7.663  -3.481  0.00  0.00    -0.018 C 
ATOM     28  C   UNL     1      -3.711   6.570  -3.581  0.00  0.00    -0.001 C 
ATOM     29  C   UNL     1      -3.228   5.326  -2.830  0.00  0.00    -0.031 C 
ATOM     30  C   UNL     1      -2.934   5.697  -1.374  0.00  0.00    -0.075 C 
ATOM     31  C   UNL     1      -4.313   4.249  -2.873  0.00  0.00    +0.005 C 
ATOM     32  N   UNL     1      -1.882   6.736  -1.347  0.00  0.00    +0.383 N 
ATOM     33  H   UNL     1      -1.058   6.389  -1.852  0.00  0.00    -0.081 HD
ENDBRANCH  25  32
ENDBRANCH   5  25
TORSDOF 4
