REMARK  Name = ZINC39730724
REMARK  6 active torsions:
REMARK  status: ('A' for Active; 'I' for Inactive)
REMARK    1  A    between atoms: C_1  and  C_2
REMARK    2  A    between atoms: C_2  and  O_3
REMARK    3  A    between atoms: O_3  and  C_4
REMARK    4  A    between atoms: C_7  and  C_10
REMARK    5  A    between atoms: C_16  and  S_20
REMARK    6  A    between atoms: S_20  and  C_21
REMARK                            x       y       z     vdW  Elec       q    Type
REMARK                         _______ _______ _______ _____ _____    ______ ____
ROOT
ATOM      1  C   UNL     1       1.144  -6.059   1.764  0.00  0.00    +0.073 C 
ATOM      2  C   UNL     1       2.617  -6.453   1.823  0.00  0.00    +0.156 C 
ATOM      3  C   UNL     1       3.209  -5.999   3.128  0.00  0.00    +0.145 C 
ATOM      4  N   UNL     1       4.388  -5.414   3.162  0.00  0.00    -0.208 NA
ATOM      5  C   UNL     1       5.054  -5.099   2.051  0.00  0.00    +0.182 C 
ATOM      6  N   UNL     1       4.550  -5.298   0.840  0.00  0.00    -0.154 NA
ATOM      7  C   UNL     1       3.391  -5.895   0.670  0.00  0.00    +0.250 C 
ATOM      8  O   UNL     1       2.947  -6.002  -0.456  0.00  0.00    -0.273 OA
ATOM      9  N   UNL     1       2.504  -6.134   4.248  0.00  0.00    -0.236 NA
ATOM     10  C   UNL     1       1.231  -6.479   4.245  0.00  0.00    +0.050 C 
ATOM     11  C   UNL     1       0.487  -6.487   3.060  0.00  0.00    +0.025 C 
ATOM     12  C   UNL     1      -0.809  -6.872   3.040  0.00  0.00    +0.162 C 
ATOM     13  O   UNL     1      -1.467  -6.888   1.866  0.00  0.00    -0.292 OA
ATOM     14  C   UNL     1      -1.537  -7.281   4.290  0.00  0.00    +0.080 C 
ATOM     15  C   UNL     1      -0.541  -7.846   5.305  0.00  0.00    +0.014 C 
ATOM     16  C   UNL     1       0.555  -6.804   5.556  0.00  0.00    +0.056 C 
ENDROOT
BRANCH   1  20
ATOM     17  C   UNL     1       0.802  -1.824   1.306  0.00  0.00    +0.121 A 
ATOM     18  C   UNL     1       0.260  -2.673   0.351  0.00  0.00    +0.046 A 
ATOM     19  C   UNL     1       0.372  -4.041   0.502  0.00  0.00    +0.008 A 
ATOM     20  C   UNL     1       1.024  -4.566   1.603  0.00  0.00    -0.038 A 
ATOM     21  C   UNL     1       1.565  -3.722   2.555  0.00  0.00    +0.008 A 
ATOM     22  C   UNL     1       1.460  -2.353   2.406  0.00  0.00    +0.046 A 
BRANCH  17  23
ATOM     23  O   UNL     1       0.693  -0.477   1.160  0.00  0.00    -0.492 OA
BRANCH  23  25
ATOM     24  C   UNL     1      -0.019   1.526   0.010  0.00  0.00    +0.048 C 
ATOM     25  C   UNL     1       0.002  -0.004   0.002  0.00  0.00    +0.225 C 
ENDBRANCH  23  25
ENDBRANCH  17  23
ENDBRANCH   1  20
BRANCH   5  26
ATOM     26  S   UNL     1       6.662  -4.391   2.197  0.00  0.00    -0.092 S 
ATOM     27  C   UNL     1       7.182  -4.128   0.479  0.00  0.00    +0.093 C 
ENDBRANCH   5  26
TORSDOF 4
