REMARK  Name = ZINC21235357
REMARK  9 active torsions:
REMARK  status: ('A' for Active; 'I' for Inactive)
REMARK    1  A    between atoms: C_1  and  C_2
REMARK    2  A    between atoms: C_11  and  N_31
REMARK    3  A    between atoms: C_13  and  S_15
REMARK    4  A    between atoms: S_15  and  C_16
REMARK    5  A    between atoms: C_16  and  C_18
REMARK    6  A    between atoms: C_16  and  C_19
REMARK    7  A    between atoms: N_21  and  C_22
REMARK    8  A    between atoms: C_26  and  C_28
REMARK    9  A    between atoms: C_28  and  C_30
REMARK                            x       y       z     vdW  Elec       q    Type
REMARK                         _______ _______ _______ _____ _____    ______ ____
ROOT
ATOM      1  C   UNL     1      -9.921  -7.180  -1.165  0.00  0.00    +0.008 C 
ATOM      2  C   UNL     1      -8.681  -6.287  -1.250  0.00  0.00    -0.009 C 
ATOM      3  C   UNL     1      -8.443  -5.611   0.104  0.00  0.00    +0.008 C 
ATOM      4  C   UNL     1      -7.364  -4.536  -0.037  0.00  0.00    +0.037 C 
ATOM      5  C   UNL     1      -6.132  -5.157  -0.689  0.00  0.00    -0.025 A 
ATOM      6  C   UNL     1      -6.223  -6.316  -1.370  0.00  0.00    -0.004 A 
ATOM      7  S   UNL     1      -4.577  -6.650  -1.938  0.00  0.00    -0.073 S 
ATOM      8  C   UNL     1      -3.766  -5.227  -1.257  0.00  0.00    +0.115 A 
ATOM      9  C   UNL     1      -4.808  -4.536  -0.608  0.00  0.00    +0.051 A 
ATOM     10  C   UNL     1      -4.431  -3.326   0.040  0.00  0.00    +0.129 A 
ATOM     11  N   UNL     1      -3.168  -2.935  -0.004  0.00  0.00    -0.207 NA
ATOM     12  C   UNL     1      -2.234  -3.637  -0.635  0.00  0.00    +0.192 A 
ATOM     13  N   UNL     1      -2.529  -4.769  -1.261  0.00  0.00    -0.214 NA
ATOM     14  C   UNL     1      -7.453  -7.141  -1.596  0.00  0.00    +0.046 C 
ENDROOT
BRANCH  10  15
ATOM     15  N   UNL     1      -5.375  -2.567   0.708  0.00  0.00    -0.343 N 
ATOM     16  H   UNL     1      -5.077  -1.633   1.206  0.00  0.00    +0.144 HD
ATOM     17  H   UNL     1      -6.423  -2.898   0.741  0.00  0.00    +0.144 HD
ENDBRANCH  10  15
BRANCH  12  18
ATOM     18  S   UNL     1      -0.573  -3.049  -0.648  0.00  0.00    -0.073 S 
BRANCH  18  19
ATOM     19  C   UNL     1      -0.770  -1.529   0.315  0.00  0.00    +0.137 C 
ATOM     20  C   UNL     1      -1.177  -1.881   1.747  0.00  0.00    +0.029 C 
BRANCH  19  21
ATOM     21  C   UNL     1       0.534  -0.775   0.335  0.00  0.00    +0.230 C 
ATOM     22  O   UNL     1       1.572  -1.352   0.088  0.00  0.00    -0.274 OA
ATOM     23  N   UNL     1       0.547   0.541   0.626  0.00  0.00    -0.285 N 
ATOM     24  H   UNL     1      -0.400   1.083   0.764  0.00  0.00    +0.155 HD
BRANCH  23  25
ATOM     25  C   UNL     1       1.766   1.218   0.753  0.00  0.00    +0.034 A 
ATOM     26  C   UNL     1       1.864   2.551   0.370  0.00  0.00    +0.023 A 
ATOM     27  C   UNL     1       3.064   3.225   0.493  0.00  0.00    +0.002 A 
ATOM     28  C   UNL     1       4.175   2.580   0.997  0.00  0.00    +0.011 A 
ATOM     29  C   UNL     1       4.089   1.240   1.385  0.00  0.00    +0.019 A 
ATOM     30  C   UNL     1       2.873   0.561   1.265  0.00  0.00    +0.034 A 
BRANCH  29  31
ATOM     31  C   UNL     1       5.271   0.548   1.923  0.00  0.00    +0.160 C 
ATOM     32  O   UNL     1       5.194  -0.614   2.258  0.00  0.00    -0.292 OA
ATOM     33  C   UNL     1       6.579   1.285   2.057  0.00  0.00    +0.091 C 
ENDBRANCH  29  31
ENDBRANCH  23  25
ENDBRANCH  19  21
ENDBRANCH  18  19
ENDBRANCH  12  18
TORSDOF 6
