REMARK  Name = ZINC33744444
REMARK  3 active torsions:
REMARK  status: ('A' for Active; 'I' for Inactive)
REMARK    1  A    between atoms: C_2  and  O_28
REMARK    2  A    between atoms: C_5  and  N_8
REMARK    3  A    between atoms: C_18  and  C_21
REMARK                            x       y       z     vdW  Elec       q    Type
REMARK                         _______ _______ _______ _____ _____    ______ ____
ROOT
ATOM      1  C   UNL     1       2.628   5.447  -0.414  0.00  0.00    +0.069 A 
ATOM      2  C   UNL     1       2.530   4.069  -0.448  0.00  0.00    +0.139 A 
ATOM      3  C   UNL     1       1.402   3.429   0.074  0.00  0.00    +0.075 A 
ATOM      4  C   UNL     1       0.380   4.178   0.627  0.00  0.00    +0.016 A 
ATOM      5  C   UNL     1       0.490   5.563   0.657  0.00  0.00    +0.150 A 
ATOM      6  C   UNL     1       1.604   6.194   0.140  0.00  0.00    +0.075 A 
ATOM      7 CL   UNL     1       1.719   7.926   0.187  0.00  0.00    -0.081 Cl
ATOM      8  C   UNL     1      -0.859   3.558   1.202  0.00  0.00    +0.051 C 
ATOM      9  C   UNL     1      -2.048   3.807   0.302  0.00  0.00    -0.023 C 
ATOM     10  C   UNL     1      -2.814   2.746   0.252  0.00  0.00    -0.030 C 
ATOM     11  C   UNL     1      -2.248   1.639   1.119  0.00  0.00    +0.033 C 
ATOM     12  C   UNL     1      -0.748   2.019   1.262  0.00  0.00    +0.024 C 
ATOM     13  C   UNL     1      -0.019   1.526   0.010  0.00  0.00    +0.078 C 
ATOM     14  N   UNL     1       1.354   2.033   0.015  0.00  0.00    -0.337 N 
ATOM     15  H   UNL     1       2.200   1.330  -0.024  0.00  0.00    +0.146 HD
ENDROOT
BRANCH  13  16
ATOM     16  C   UNL     1       0.002  -0.004   0.002  0.00  0.00    +0.014 C 
ATOM     17  C   UNL     1       0.870  -0.514   1.159  0.00  0.00    +0.010 C 
ATOM     18  C   UNL     1       0.729  -2.036   1.235  0.00  0.00    +0.027 C 
ATOM     19  C   UNL     1       0.935  -2.643  -0.122  0.00  0.00    -0.031 C 
ATOM     20  C   UNL     1       0.877  -1.977  -1.230  0.00  0.00    -0.031 C 
ATOM     21  C   UNL     1       0.606  -0.503  -1.313  0.00  0.00    +0.032 C 
ENDBRANCH  13  16
BRANCH   5  22
ATOM     22  N   UNL     1      -0.600   6.370   1.249  0.00  0.00    +0.058 N 
ATOM     23  O   UNL     1      -1.518   6.760   0.550  0.00  0.00    -0.126 OA
ATOM     24  O   UNL     1      -0.578   6.646   2.435  0.00  0.00    -0.126 OA
ENDBRANCH   5  22
BRANCH   2  25
ATOM     25  O   UNL     1       3.535   3.331  -0.992  0.00  0.00    -0.505 OA
ATOM     26  H   UNL     1       3.460   2.234  -1.020  0.00  0.00    +0.292 HD
ENDBRANCH   2  25
TORSDOF 3
