REMARK  Name = ZINC13064017
REMARK  15 active torsions:
REMARK  status: ('A' for Active; 'I' for Inactive)
REMARK    1  A    between atoms: C_1  and  C_2
REMARK    2  A    between atoms: C_2  and  C_3
REMARK    3  A    between atoms: C_3  and  C_5
REMARK    4  A    between atoms: C_3  and  N_69
REMARK    5  A    between atoms: N_9  and  C_10
REMARK    6  A    between atoms: C_10  and  C_11
REMARK    7  A    between atoms: C_10  and  C_12
REMARK    8  A    between atoms: C_10  and  C_13
REMARK    9  A    between atoms: C_13  and  C_14
REMARK   10  A    between atoms: C_15  and  C_16
REMARK   11  A    between atoms: C_15  and  N_69
REMARK   12  A    between atoms: C_23  and  C_24
REMARK   13  A    between atoms: C_23  and  N_69
REMARK   14  A    between atoms: C_28  and  O_36
REMARK   15  A    between atoms: O_36  and  C_37
REMARK                            x       y       z     vdW  Elec       q    Type
REMARK                         _______ _______ _______ _____ _____    ______ ____
ROOT
ATOM      1  N   UNL     1      -0.278  -0.203   4.310  0.00  0.00    +0.392 N 
ATOM      2  H   UNL     1      -0.576   0.305   5.151  0.00  0.00    -0.080 HD
ENDROOT
BRANCH   1   3
ATOM      3  C   UNL     1       0.180   0.771   3.297  0.00  0.00    +0.003 C 
BRANCH   3   4
ATOM      4  C   UNL     1       0.784   1.955   4.009  0.00  0.00    +0.139 A 
ATOM      5  N   UNL     1       1.400   1.942   5.166  0.00  0.00    -0.115 NA
ATOM      6  N   UNL     1       1.766   3.147   5.436  0.00  0.00    -0.023 NA
ATOM      7  N   UNL     1       1.404   3.928   4.478  0.00  0.00    -0.043 NA
ATOM      8  N   UNL     1       0.799   3.230   3.578  0.00  0.00    -0.225 N 
BRANCH   8   9
ATOM      9  C   UNL     1       0.229   3.732   2.325  0.00  0.00    +0.061 C 
ATOM     10  C   UNL     1      -1.297   3.630   2.382  0.00  0.00    +0.036 C 
ATOM     11  C   UNL     1       0.752   2.895   1.156  0.00  0.00    +0.036 C 
BRANCH   9  12
ATOM     12  C   UNL     1       0.636   5.193   2.129  0.00  0.00    +0.026 C 
ATOM     13  C   UNL     1       0.040   5.717   0.821  0.00  0.00    +0.006 C 
ENDBRANCH   9  12
ENDBRANCH   8   9
ENDBRANCH   3   4
BRANCH   3  15
ATOM     14  C   UNL     1       0.614  -1.061   1.655  0.00  0.00    +0.002 C 
ATOM     15  C   UNL     1       1.229   0.137   2.382  0.00  0.00    -0.011 C 
ENDBRANCH   3  15
ENDBRANCH   1   3
BRANCH   1  16
ATOM     16  C   UNL     1      -1.423  -0.977   3.785  0.00  0.00    -0.042 C 
BRANCH  16  17
ATOM     17  C   UNL     1      -2.101  -1.677   4.934  0.00  0.00    -0.064 A 
ATOM     18  C   UNL     1      -1.782  -2.990   5.228  0.00  0.00    +0.004 A 
ATOM     19  C   UNL     1      -2.400  -3.632   6.284  0.00  0.00    +0.038 A 
ATOM     20  C   UNL     1      -3.346  -2.963   7.042  0.00  0.00    +0.123 A 
ATOM     21  C   UNL     1      -3.668  -1.650   6.744  0.00  0.00    +0.038 A 
ATOM     22  C   UNL     1      -3.045  -1.009   5.690  0.00  0.00    +0.004 A 
ATOM     23  F   UNL     1      -3.954  -3.591   8.072  0.00  0.00    -0.205 F 
ENDBRANCH  16  17
ENDBRANCH   1  16
BRANCH   1  24
ATOM     24  C   UNL     1       0.828  -1.117   4.668  0.00  0.00    -0.036 C 
BRANCH  24  25
ATOM     25  C   UNL     1       1.647  -0.476   5.758  0.00  0.00    +0.001 A 
ATOM     26  C   UNL     1       1.221  -0.532   7.045  0.00  0.00    +0.017 A 
ATOM     27  C   UNL     1       2.042   0.097   8.082  0.00  0.00    +0.002 A 
ATOM     28  C   UNL     1       1.655   0.066   9.426  0.00  0.00    +0.055 A 
ATOM     29  C   UNL     1       2.450   0.673  10.377  0.00  0.00    +0.121 A 
ATOM     30  C   UNL     1       3.630   1.312  10.004  0.00  0.00    +0.047 A 
ATOM     31  C   UNL     1       4.020   1.350   8.684  0.00  0.00    +0.030 A 
ATOM     32  C   UNL     1       3.234   0.744   7.709  0.00  0.00    +0.049 A 
ATOM     33  N   UNL     1       3.609   0.770   6.381  0.00  0.00    -0.322 N 
ATOM     34  H   UNL     1       4.431   1.217   6.125  0.00  0.00    +0.169 HD
ATOM     35  C   UNL     1       2.851   0.186   5.437  0.00  0.00    +0.251 A 
ATOM     36  O   UNL     1       3.213   0.229   4.274  0.00  0.00    -0.268 OA
BRANCH  29  37
ATOM     37  O   UNL     1       2.079   0.646  11.685  0.00  0.00    -0.495 OA
ATOM     38  C   UNL     1       2.946   1.293  12.618  0.00  0.00    +0.277 C 
ENDBRANCH  29  37
ENDBRANCH  24  25
ENDBRANCH   1  24
TORSDOF 10
