REMARK  Name = ZINC31755856
REMARK  14 active torsions:
REMARK  status: ('A' for Active; 'I' for Inactive)
REMARK    1  A    between atoms: C_1  and  C_2
REMARK    2  A    between atoms: C_2  and  C_3
REMARK    3  A    between atoms: C_3  and  N_4
REMARK    4  A    between atoms: C_8  and  S_32
REMARK    5  A    between atoms: C_12  and  C_13
REMARK    6  A    between atoms: C_13  and  C_14
REMARK    7  A    between atoms: C_14  and  C_15
REMARK    8  A    between atoms: N_17  and  C_18
REMARK    9  A    between atoms: C_18  and  C_20
REMARK   10  A    between atoms: C_18  and  C_22
REMARK   11  A    between atoms: C_20  and  C_21
REMARK   12  A    between atoms: C_27  and  O_28
REMARK   13  A    between atoms: O_28  and  C_29
REMARK   14  A    between atoms: S_32  and  N_35
REMARK                            x       y       z     vdW  Elec       q    Type
REMARK                         _______ _______ _______ _____ _____    ______ ____
ROOT
ATOM      1  C   UNL     1      -3.682   6.776   5.786  0.00  0.00    +0.083 C 
ENDROOT
BRANCH   1  10
ATOM      2  N   UNL     1      -4.763   7.449   7.988  0.00  0.00    -0.328 N 
ATOM      3  C   UNL     1      -4.495   8.352   8.998  0.00  0.00    +0.069 A 
ATOM      4  C   UNL     1      -5.121   8.680  10.192  0.00  0.00    +0.030 A 
ATOM      5  C   UNL     1      -4.585   9.663  10.996  0.00  0.00    +0.030 A 
ATOM      6  C   UNL     1      -3.426  10.326  10.619  0.00  0.00    +0.107 A 
ATOM      7  C   UNL     1      -2.796  10.016   9.448  0.00  0.00    +0.058 A 
ATOM      8  C   UNL     1      -3.321   9.023   8.616  0.00  0.00    +0.091 A 
ATOM      9  N   UNL     1      -2.937   8.502   7.423  0.00  0.00    -0.232 NA
ATOM     10  C   UNL     1      -3.779   7.579   7.058  0.00  0.00    +0.111 A 
BRANCH   6  11
ATOM     11  S   UNL     1      -2.759  11.580  11.663  0.00  0.00    +0.056 S 
ATOM     12  O   UNL     1      -1.978  12.427  10.831  0.00  0.00    -0.153 OA
ATOM     13  O   UNL     1      -3.837  12.068  12.450  0.00  0.00    -0.153 OA
BRANCH  11  14
ATOM     14  N   UNL     1      -1.707  10.840  12.706  0.00  0.00    -0.204 NA
ATOM     15  H   UNL     1      -1.267  11.592  13.377  0.00  0.00    +0.144 HD
ATOM     16  H   UNL     1      -0.907  10.348  12.133  0.00  0.00    +0.144 HD
ENDBRANCH  11  14
ENDBRANCH   6  11
BRANCH   2  17
ATOM     17  C   UNL     1      -5.894   6.520   7.932  0.00  0.00    +0.123 C 
BRANCH  17  19
ATOM     18  C   UNL     1      -6.686   4.230   8.542  0.00  0.00    +0.005 C 
ATOM     19  C   UNL     1      -5.504   5.200   8.601  0.00  0.00    +0.018 C 
ENDBRANCH  17  19
ENDBRANCH   2  17
ENDBRANCH   1  10
BRANCH   1  20
ATOM     20  C   UNL     1      -2.860   5.512   6.043  0.00  0.00    +0.103 C 
BRANCH  20  21
ATOM     21  C   UNL     1      -2.763   4.709   4.771  0.00  0.00    +0.214 C 
ATOM     22  O   UNL     1      -3.298   5.109   3.759  0.00  0.00    -0.276 OA
ATOM     23  N   UNL     1      -2.080   3.547   4.758  0.00  0.00    -0.308 N 
ATOM     24  H   UNL     1      -1.594   3.184   5.676  0.00  0.00    +0.149 HD
BRANCH  23  25
ATOM     25  C   UNL     1      -1.986   2.766   3.522  0.00  0.00    +0.106 C 
BRANCH  25  26
ATOM     26  C   UNL     1      -0.748   1.908   3.563  0.00  0.00    +0.015 A 
ATOM     27  C   UNL     1      -0.207   1.532   4.777  0.00  0.00    +0.009 A 
ATOM     28  C   UNL     1       0.932   0.749   4.816  0.00  0.00    +0.001 A 
ATOM     29  C   UNL     1       1.530   0.337   3.639  0.00  0.00    +0.004 A 
ATOM     30  C   UNL     1       0.990   0.706   2.422  0.00  0.00    +0.046 A 
ATOM     31  C   UNL     1      -0.153   1.491   2.381  0.00  0.00    +0.132 A 
BRANCH  31  32
ATOM     32  O   UNL     1      -0.686   1.856   1.185  0.00  0.00    -0.434 OA
BRANCH  32  33
ATOM     33  C   UNL     1      -0.017   1.395   0.010  0.00  0.00    +0.541 C 
ATOM     34  F   UNL     1       0.002  -0.004   0.002  0.00  0.00    -0.166 F 
ATOM     35  F   UNL     1       1.296   1.879  -0.000  0.00  0.00    -0.166 F 
ENDBRANCH  32  33
ENDBRANCH  31  32
ENDBRANCH  25  26
BRANCH  25  36
ATOM     36  C   UNL     1      -3.221   1.873   3.387  0.00  0.00    +0.024 C 
ATOM     37  C   UNL     1      -4.466   2.747   3.220  0.00  0.00    +0.006 C 
ENDBRANCH  25  36
ENDBRANCH  23  25
ENDBRANCH  20  21
ENDBRANCH   1  20
TORSDOF 12
