REMARK  Name = ZINC01098384
REMARK  8 active torsions:
REMARK  status: ('A' for Active; 'I' for Inactive)
REMARK    1  A    between atoms: C_1  and  C_2
REMARK    2  A    between atoms: C_6  and  C_27
REMARK    3  A    between atoms: C_7  and  N_8
REMARK    4  A    between atoms: C_9  and  C_26
REMARK    5  A    between atoms: C_10  and  C_15
REMARK    6  A    between atoms: C_12  and  C_13
REMARK    7  A    between atoms: N_16  and  N_17
REMARK    8  A    between atoms: C_18  and  C_20
REMARK                            x       y       z     vdW  Elec       q    Type
REMARK                         _______ _______ _______ _____ _____    ______ ____
ROOT
ATOM      1  N   UNL     1      -0.069   5.244   0.031  0.00  0.00    -0.315 N 
ATOM      2  C   UNL     1      -0.090   6.030  -1.079  0.00  0.00    +0.031 A 
ATOM      3  C   UNL     1      -0.105   7.336  -0.678  0.00  0.00    +0.030 A 
ATOM      4  C   UNL     1      -0.091   7.316   0.788  0.00  0.00    +0.048 A 
ATOM      5  C   UNL     1      -0.075   6.021   1.155  0.00  0.00    +0.036 A 
ATOM      6  C   UNL     1      -0.063   5.511   2.574  0.00  0.00    +0.065 C 
ATOM      7 BR   UNL     1      -0.102   8.817   1.939  0.00  0.00    -0.048 Br
ATOM      8  C   UNL     1      -0.096   5.545  -2.505  0.00  0.00    +0.064 C 
ENDROOT
BRANCH   1  15
ATOM      9  C   UNL     1       2.457   3.932  -0.001  0.00  0.00    +0.046 C 
ATOM     10  C   UNL     1       1.161   3.163   0.008  0.00  0.00    -0.026 A 
ATOM     11  C   UNL     1       1.176   1.782   0.000  0.00  0.00    +0.005 A 
ATOM     12  C   UNL     1      -0.013   1.076   0.008  0.00  0.00    +0.001 A 
ATOM     13  C   UNL     1      -1.220   1.749   0.017  0.00  0.00    +0.005 A 
ATOM     14  C   UNL     1      -1.242   3.130   0.031  0.00  0.00    -0.026 A 
ATOM     15  C   UNL     1      -0.050   3.842   0.023  0.00  0.00    +0.052 A 
ATOM     16  C   UNL     1      -2.558   3.864   0.047  0.00  0.00    +0.046 C 
ENDBRANCH   1  15
BRANCH   3  17
ATOM     17  C   UNL     1      -0.129   8.527  -1.545  0.00  0.00    +0.141 C 
ATOM     18  N   UNL     1      -0.141   9.714  -1.019  0.00  0.00    -0.187 NA
BRANCH  18  19
ATOM     19  N   UNL     1      -0.164  10.846  -1.844  0.00  0.00    -0.203 N 
ATOM     20  C   UNL     1      -0.176  12.078  -1.297  0.00  0.00    +0.265 C 
ATOM     21  O   UNL     1      -0.167  12.206  -0.088  0.00  0.00    -0.268 OA
ATOM     22  H   UNL     1      -0.171  10.743  -2.808  0.00  0.00    +0.178 HD
BRANCH  20  23
ATOM     23  C   UNL     1      -0.201  13.272  -2.167  0.00  0.00    +0.056 A 
ATOM     24  C   UNL     1      -0.220  14.557  -1.612  0.00  0.00    +0.016 A 
ATOM     25  C   UNL     1      -0.238  15.642  -2.470  0.00  0.00    +0.020 A 
ATOM     26  C   UNL     1      -0.247  15.425  -3.837  0.00  0.00    +0.111 A 
ATOM     27  N   UNL     1      -0.234  14.202  -4.332  0.00  0.00    -0.263 NA
ATOM     28  C   UNL     1      -0.212  13.138  -3.556  0.00  0.00    +0.123 A 
ENDBRANCH  20  23
ENDBRANCH  18  19
ENDBRANCH   3  17
TORSDOF 4
