REMARK  Name = ZINC21167882
REMARK  13 active torsions:
REMARK  status: ('A' for Active; 'I' for Inactive)
REMARK    1  A    between atoms: C_1  and  C_2
REMARK    2  A    between atoms: C_5  and  N_8
REMARK    3  A    between atoms: C_9  and  C_34
REMARK    4  A    between atoms: C_10  and  C_31
REMARK    5  A    between atoms: C_15  and  O_17
REMARK    6  A    between atoms: O_17  and  C_18
REMARK    7  A    between atoms: C_18  and  C_19
REMARK    8  A    between atoms: C_19  and  C_21
REMARK    9  A    between atoms: C_19  and  O_30
REMARK   10  A    between atoms: C_21  and  N_22
REMARK   11  A    between atoms: N_22  and  C_23
REMARK   12  A    between atoms: C_23  and  C_24
REMARK   13  A    between atoms: C_31  and  C_33
REMARK                            x       y       z     vdW  Elec       q    Type
REMARK                         _______ _______ _______ _____ _____    ______ ____
ROOT
ATOM      1  N   UNL     1       0.273   2.401   4.613  0.00  0.00    -0.313 N 
ATOM      2  C   UNL     1      -0.671   2.243   3.656  0.00  0.00    +0.032 A 
ATOM      3  C   UNL     1      -0.073   1.842   2.480  0.00  0.00    +0.046 A 
ATOM      4  C   UNL     1       1.373   1.746   2.762  0.00  0.00    +0.014 A 
ATOM      5  C   UNL     1       1.529   2.112   4.108  0.00  0.00    +0.055 A 
ATOM      6  C   UNL     1       2.801   2.122   4.671  0.00  0.00    +0.030 A 
ATOM      7  C   UNL     1       3.895   1.779   3.907  0.00  0.00    +0.048 A 
ATOM      8  C   UNL     1       3.742   1.422   2.571  0.00  0.00    +0.121 A 
ATOM      9  C   UNL     1       2.484   1.408   1.996  0.00  0.00    +0.056 A 
ATOM     10  C   UNL     1      -2.149   2.469   3.847  0.00  0.00    +0.064 C 
ENDROOT
BRANCH   1  15
ATOM     11  C   UNL     1      -0.771   4.021   9.950  0.00  0.00    +0.044 C 
ATOM     12  C   UNL     1      -0.494   3.591   8.532  0.00  0.00    -0.050 A 
ATOM     13  C   UNL     1      -0.983   2.383   8.070  0.00  0.00    +0.005 A 
ATOM     14  C   UNL     1      -0.730   1.986   6.771  0.00  0.00    +0.026 A 
ATOM     15  C   UNL     1       0.015   2.801   5.930  0.00  0.00    +0.047 A 
ATOM     16  C   UNL     1       0.510   4.011   6.399  0.00  0.00    +0.026 A 
ATOM     17  C   UNL     1       0.249   4.405   7.697  0.00  0.00    +0.005 A 
ENDBRANCH   1  15
BRANCH   3  18
ATOM     18  C   UNL     1      -0.718   1.572   1.248  0.00  0.00    +0.162 C 
ATOM     19  O   UNL     1      -0.848   2.454   0.424  0.00  0.00    -0.292 OA
ATOM     20  C   UNL     1      -1.243   0.189   0.960  0.00  0.00    +0.091 C 
ENDBRANCH   3  18
BRANCH   8  21
ATOM     21  O   UNL     1       4.831   1.087   1.829  0.00  0.00    -0.489 OA
BRANCH  21  22
ATOM     22  C   UNL     1       6.099   1.124   2.486  0.00  0.00    +0.258 C 
BRANCH  22  23
ATOM     23  C   UNL     1       7.197   0.719   1.499  0.00  0.00    +0.135 C 
BRANCH  23  24
ATOM     24  O   UNL     1       7.010  -0.644   1.113  0.00  0.00    -0.390 OA
ATOM     25  H   UNL     1       7.707  -1.115   0.404  0.00  0.00    +0.210 HD
ENDBRANCH  23  24
BRANCH  23  26
ATOM     26  C   UNL     1       8.565   0.877   2.165  0.00  0.00    -0.047 C 
BRANCH  26  27
ATOM     27  N   UNL     1       9.622   0.604   1.182  0.00  0.00    +0.383 N 
ATOM     28  H   UNL     1       9.515  -0.423   0.805  0.00  0.00    -0.085 HD
ATOM     29  H   UNL     1       9.537   1.313   0.345  0.00  0.00    -0.085 HD
BRANCH  27  30
ATOM     30  C   UNL     1      10.953   0.747   1.787  0.00  0.00    -0.047 C 
BRANCH  30  31
ATOM     31  C   UNL     1      12.009   0.460   0.751  0.00  0.00    -0.064 A 
ATOM     32  C   UNL     1      12.483  -0.828   0.586  0.00  0.00    +0.002 A 
ATOM     33  C   UNL     1      13.448  -1.093  -0.368  0.00  0.00    +0.000 A 
ATOM     34  C   UNL     1      13.947  -0.067  -1.149  0.00  0.00    +0.000 A 
ATOM     35  C   UNL     1      13.477   1.222  -0.980  0.00  0.00    +0.000 A 
ATOM     36  C   UNL     1      12.508   1.485  -0.030  0.00  0.00    +0.002 A 
ENDBRANCH  30  31
ENDBRANCH  27  30
ENDBRANCH  26  27
ENDBRANCH  23  26
ENDBRANCH  22  23
ENDBRANCH  21  22
ENDBRANCH   8  21
TORSDOF 10
