REMARK  Name = ZINC49192504
REMARK  9 active torsions:
REMARK  status: ('A' for Active; 'I' for Inactive)
REMARK    1  A    between atoms: C_1  and  C_2
REMARK    2  A    between atoms: C_2  and  C_3
REMARK    3  A    between atoms: C_3  and  N_4
REMARK    4  A    between atoms: C_5  and  C_7
REMARK    5  A    between atoms: C_7  and  C_9
REMARK    6  A    between atoms: C_7  and  N_10
REMARK    7  A    between atoms: N_10  and  S_11
REMARK    8  A    between atoms: S_11  and  C_14
REMARK    9  A    between atoms: C_19  and  N_20
REMARK                            x       y       z     vdW  Elec       q    Type
REMARK                         _______ _______ _______ _____ _____    ______ ____
ROOT
ATOM      1  S   UNL     1       1.608  -6.076  -4.197  0.00  0.00    +0.061 S 
ATOM      2  O   UNL     1       2.471  -6.417  -5.273  0.00  0.00    -0.153 OA
ATOM      3  O   UNL     1       1.448  -6.907  -3.055  0.00  0.00    -0.153 OA
ENDROOT
BRANCH   1   4
ATOM      4  C   UNL     1       0.002  -5.858  -4.889  0.00  0.00    +0.126 A 
ATOM      5  C   UNL     1      -1.088  -6.487  -4.318  0.00  0.00    +0.033 A 
ATOM      6  C   UNL     1      -2.348  -6.317  -4.859  0.00  0.00    +0.040 A 
ATOM      7  C   UNL     1      -2.523  -5.516  -5.976  0.00  0.00    +0.125 A 
ATOM      8  C   UNL     1      -1.436  -4.885  -6.552  0.00  0.00    +0.063 A 
ATOM      9  C   UNL     1      -0.170  -5.050  -6.005  0.00  0.00    +0.054 A 
ATOM     10  F   UNL     1      -3.756  -5.353  -6.503  0.00  0.00    -0.205 F 
BRANCH   9  11
ATOM     11  N   UNL     1       0.930  -4.409  -6.580  0.00  0.00    -0.356 N 
ATOM     12  H   UNL     1       1.799  -4.461  -6.154  0.00  0.00    +0.142 HD
ATOM     13  H   UNL     1       0.824  -3.912  -7.407  0.00  0.00    +0.142 HD
ENDBRANCH   9  11
ENDBRANCH   1   4
BRANCH   1  14
ATOM     14  N   UNL     1       2.106  -4.598  -3.641  0.00  0.00    -0.178 NA
ATOM     15  H   UNL     1       2.872  -4.161  -4.044  0.00  0.00    +0.149 HD
BRANCH  14  16
ATOM     16  C   UNL     1       1.389  -3.950  -2.540  0.00  0.00    +0.159 C 
ATOM     17  C   UNL     1       2.096  -4.257  -1.219  0.00  0.00    +0.035 C 
BRANCH  16  19
ATOM     18  N   UNL     1       0.757  -1.653  -1.871  0.00  0.00    -0.314 N 
ATOM     19  C   UNL     1       1.367  -2.459  -2.763  0.00  0.00    +0.231 C 
ATOM     20  O   UNL     1       1.898  -1.985  -3.745  0.00  0.00    -0.274 OA
ATOM     21  H   UNL     1       0.333  -2.032  -1.086  0.00  0.00    +0.149 HD
BRANCH  18  22
ATOM     22  C   UNL     1       0.737  -0.204  -2.088  0.00  0.00    +0.104 C 
BRANCH  22  24
ATOM     23  C   UNL     1      -0.034   1.986  -1.165  0.00  0.00    +0.005 C 
ATOM     24  C   UNL     1      -0.012   0.472  -0.939  0.00  0.00    +0.015 C 
ENDBRANCH  22  24
ENDBRANCH  18  22
ENDBRANCH  16  19
ENDBRANCH  14  16
ENDBRANCH   1  14
TORSDOF 7
