REMARK  Name = ZINC19013733
REMARK  8 active torsions:
REMARK  status: ('A' for Active; 'I' for Inactive)
REMARK    1  A    between atoms: C_5  and  N_7
REMARK    2  A    between atoms: C_13  and  C_15
REMARK    3  A    between atoms: C_15  and  O_16
REMARK    4  A    between atoms: O_16  and  C_17
REMARK    5  A    between atoms: C_17  and  C_19
REMARK    6  A    between atoms: C_19  and  C_20
REMARK    7  A    between atoms: C_20  and  N_21
REMARK    8  A    between atoms: N_24  and  C_25
REMARK                            x       y       z     vdW  Elec       q    Type
REMARK                         _______ _______ _______ _____ _____    ______ ____
ROOT
ATOM      1  C   UNL     1      -9.551   0.922   3.096  0.00  0.00    +0.309 C 
ATOM      2  O   UNL     1      -9.156   1.617   4.002  0.00  0.00    -0.251 OA
ENDROOT
BRANCH   1   3
ATOM      3  O   UNL     1     -10.810   0.458   3.106  0.00  0.00    -0.455 OA
BRANCH   3   4
ATOM      4  C   UNL     1     -11.642   0.830   4.236  0.00  0.00    +0.327 C 
BRANCH   4  11
ATOM      5  N   UNL     1     -16.088   1.653   6.330  0.00  0.00    -0.325 N 
ATOM      6  C   UNL     1     -16.337   0.962   5.057  0.00  0.00    +0.124 C 
ATOM      7  C   UNL     1     -15.300  -0.151   4.873  0.00  0.00    +0.127 C 
ATOM      8  N   UNL     1     -13.957   0.434   5.011  0.00  0.00    -0.296 N 
ATOM      9  C   UNL     1     -13.673   1.251   6.200  0.00  0.00    +0.127 C 
ATOM     10  C   UNL     1     -14.776   2.314   6.329  0.00  0.00    +0.124 C 
ATOM     11  C   UNL     1     -13.011   0.222   4.075  0.00  0.00    +0.253 C 
ATOM     12  O   UNL     1     -13.261  -0.460   3.103  0.00  0.00    -0.272 OA
BRANCH   5  17
ATOM     13  C   UNL     1     -19.425   3.030   7.026  0.00  0.00    +0.002 A 
ATOM     14  C   UNL     1     -19.130   4.373   7.170  0.00  0.00    +0.003 A 
ATOM     15  C   UNL     1     -17.827   4.817   7.037  0.00  0.00    +0.040 A 
ATOM     16  C   UNL     1     -16.815   3.917   6.758  0.00  0.00    +0.144 A 
ATOM     17  C   UNL     1     -17.109   2.566   6.612  0.00  0.00    +0.065 A 
ATOM     18  C   UNL     1     -18.419   2.126   6.742  0.00  0.00    +0.026 A 
ATOM     19  F   UNL     1     -15.542   4.351   6.626  0.00  0.00    -0.204 F 
ENDBRANCH   5  17
ENDBRANCH   4  11
ENDBRANCH   3   4
ENDBRANCH   1   3
BRANCH   1  20
ATOM     20  C   UNL     1      -8.629   0.577   1.955  0.00  0.00    +0.139 C 
BRANCH  20  21
ATOM     21  C   UNL     1      -7.264   1.227   2.188  0.00  0.00    +0.117 C 
BRANCH  21  22
ATOM     22  N   UNL     1      -6.368   0.892   1.079  0.00  0.00    -0.299 N 
ATOM     23  C   UNL     1      -5.103   1.358   1.069  0.00  0.00    +0.300 C 
ATOM     24  O   UNL     1      -4.706   2.058   1.981  0.00  0.00    -0.253 OA
ATOM     25  N   UNL     1      -4.279   1.049   0.049  0.00  0.00    -0.294 N 
ATOM     26  H   UNL     1      -6.684   0.334   0.351  0.00  0.00    +0.150 HD
ATOM     27  H   UNL     1      -4.595   0.491  -0.679  0.00  0.00    +0.151 HD
BRANCH  25  28
ATOM     28  C   UNL     1      -2.904   1.556   0.038  0.00  0.00    +0.037 C 
ATOM     29  C   UNL     1      -2.188   1.063  -1.221  0.00  0.00    +0.029 C 
ATOM     30  C   UNL     1      -0.753   1.593  -1.232  0.00  0.00    -0.008 C 
ATOM     31  C   UNL     1      -0.013   1.086   0.008  0.00  0.00    +0.007 C 
ATOM     32  C   UNL     1      -0.729   1.579   1.267  0.00  0.00    -0.008 C 
ATOM     33  C   UNL     1      -2.164   1.050   1.278  0.00  0.00    +0.029 C 
ATOM     34  C   UNL     1      -0.750   3.109   1.275  0.00  0.00    +0.007 C 
ATOM     35  C   UNL     1      -1.490   3.616   0.036  0.00  0.00    -0.008 C 
ATOM     36  C   UNL     1      -0.773   3.123  -1.223  0.00  0.00    +0.007 C 
ATOM     37  C   UNL     1      -2.925   3.086   0.047  0.00  0.00    +0.029 C 
ENDBRANCH  25  28
ENDBRANCH  21  22
ENDBRANCH  20  21
ENDBRANCH   1  20
TORSDOF 8
