REMARK  Name = ZINC06021917
REMARK  3 active torsions:
REMARK  status: ('A' for Active; 'I' for Inactive)
REMARK    1  A    between atoms: C_5  and  N_9
REMARK    2  A    between atoms: C_10  and  C_12
REMARK    3  A    between atoms: N_14  and  C_15
REMARK                            x       y       z     vdW  Elec       q    Type
REMARK                         _______ _______ _______ _____ _____    ______ ____
ROOT
ATOM      1  N   UNL     1       1.143   1.899   0.001  0.00  0.00    -0.305 N 
ATOM      2  C   UNL     1      -0.014   1.209   0.009  0.00  0.00    +0.299 C 
ATOM      3  O   UNL     1       0.002  -0.004   0.002  0.00  0.00    -0.265 OA
ATOM      4  H   UNL     1       1.130   2.869   0.007  0.00  0.00    +0.149 HD
ENDROOT
BRANCH   1   9
ATOM      5  C   UNL     1       4.559  -1.258  -0.809  0.00  0.00    +0.000 C 
ATOM      6  C   UNL     1       4.239  -0.055  -1.699  0.00  0.00    +0.000 C 
ATOM      7  C   UNL     1       4.712   1.228  -1.013  0.00  0.00    +0.002 C 
ATOM      8  C   UNL     1       3.499   2.079  -0.630  0.00  0.00    +0.022 C 
ATOM      9  C   UNL     1       2.422   1.184  -0.015  0.00  0.00    +0.073 C 
ATOM     10  C   UNL     1       2.819   0.817   1.417  0.00  0.00    +0.022 C 
ATOM     11  C   UNL     1       3.915  -0.250   1.384  0.00  0.00    +0.002 C 
ATOM     12  C   UNL     1       3.559  -1.316   0.347  0.00  0.00    +0.000 C 
ENDBRANCH   1   9
BRANCH   2  13
ATOM     13  C   UNL     1      -1.319   1.939   0.019  0.00  0.00    +0.299 C 
ATOM     14  O   UNL     1      -1.335   3.152   0.025  0.00  0.00    -0.265 OA
ATOM     15  N   UNL     1      -2.477   1.249   0.021  0.00  0.00    -0.305 N 
ATOM     16  H   UNL     1      -2.463   0.279   0.015  0.00  0.00    +0.149 HD
BRANCH  15  17
ATOM     17  C   UNL     1      -3.755   1.964   0.030  0.00  0.00    +0.073 C 
ATOM     18  C   UNL     1      -4.132   2.315   1.471  0.00  0.00    +0.022 C 
ATOM     19  C   UNL     1      -5.228   3.383   1.466  0.00  0.00    +0.002 C 
ATOM     20  C   UNL     1      -4.886   4.460   0.435  0.00  0.00    +0.000 C 
ATOM     21  C   UNL     1      -5.904   4.414  -0.707  0.00  0.00    +0.000 C 
ATOM     22  C   UNL     1      -5.596   3.221  -1.614  0.00  0.00    +0.000 C 
ATOM     23  C   UNL     1      -6.059   1.931  -0.935  0.00  0.00    +0.002 C 
ATOM     24  C   UNL     1      -4.841   1.076  -0.579  0.00  0.00    +0.022 C 
ENDBRANCH  15  17
ENDBRANCH   2  13
TORSDOF 3
