REMARK  Name = ZINC57294603
REMARK  11 active torsions:
REMARK  status: ('A' for Active; 'I' for Inactive)
REMARK    1  A    between atoms: C_1  and  C_2
REMARK    2  A    between atoms: C_2  and  C_3
REMARK    3  A    between atoms: C_3  and  C_5
REMARK    4  A    between atoms: C_3  and  C_6
REMARK    5  A    between atoms: C_6  and  C_8
REMARK    6  A    between atoms: C_6  and  N_27
REMARK    7  A    between atoms: N_10  and  C_11
REMARK    8  A    between atoms: C_11  and  C_12
REMARK    9  A    between atoms: C_16  and  C_18
REMARK   10  A    between atoms: N_20  and  C_21
REMARK   11  A    between atoms: C_21  and  C_22
REMARK                            x       y       z     vdW  Elec       q    Type
REMARK                         _______ _______ _______ _____ _____    ______ ____
ROOT
ATOM      1  C   UNL     1      -4.453  -3.064  -2.227  0.00  0.00    +0.139 C 
ENDROOT
BRANCH   1   2
ATOM      2  C   UNL     1      -4.423  -3.056  -3.733  0.00  0.00    -0.030 A 
ATOM      3  C   UNL     1      -4.794  -1.917  -4.425  0.00  0.00    +0.005 A 
ATOM      4  C   UNL     1      -4.768  -1.901  -5.808  0.00  0.00    +0.001 A 
ATOM      5  C   UNL     1      -4.372  -3.023  -6.507  0.00  0.00    +0.013 A 
ATOM      6  C   UNL     1      -3.996  -4.176  -5.815  0.00  0.00    +0.037 A 
ATOM      7  C   UNL     1      -4.019  -4.183  -4.419  0.00  0.00    +0.018 A 
BRANCH   6   8
ATOM      8  C   UNL     1      -3.571  -5.382  -6.557  0.00  0.00    +0.244 C 
ATOM      9  O   UNL     1      -3.244  -6.384  -5.952  0.00  0.00    -0.270 OA
ATOM     10  N   UNL     1      -3.546  -5.370  -7.904  0.00  0.00    -0.304 N 
ATOM     11  H   UNL     1      -3.807  -4.570  -8.387  0.00  0.00    +0.149 HD
BRANCH  10  12
ATOM     12  C   UNL     1      -3.124  -6.565  -8.640  0.00  0.00    +0.179 C 
BRANCH  12  13
ATOM     13  C   UNL     1      -3.185  -6.291 -10.120  0.00  0.00    +0.122 A 
ATOM     14  C   UNL     1      -2.182  -5.803 -10.872  0.00  0.00    +0.046 A 
ATOM     15  C   UNL     1      -2.671  -5.705 -12.195  0.00  0.00    +0.041 A 
ATOM     16  C   UNL     1      -3.944  -6.140 -12.172  0.00  0.00    +0.195 A 
ATOM     17  O   UNL     1      -4.248  -6.499 -10.915  0.00  0.00    -0.466 OA
ENDBRANCH  12  13
ENDBRANCH  10  12
ENDBRANCH   6   8
ENDBRANCH   1   2
BRANCH   1  20
ATOM     18  C   UNL     1      -2.952  -2.543  -0.380  0.00  0.00    +0.234 C 
ATOM     19  O   UNL     1      -3.839  -2.848   0.389  0.00  0.00    -0.274 OA
ATOM     20  N   UNL     1      -3.158  -2.617  -1.709  0.00  0.00    -0.310 N 
ATOM     21  H   UNL     1      -2.448  -2.373  -2.324  0.00  0.00    +0.149 HD
BRANCH  18  22
ATOM     22  C   UNL     1      -1.619  -2.083   0.152  0.00  0.00    +0.163 C 
BRANCH  22  23
ATOM     23  N   UNL     1      -1.467  -2.528   1.540  0.00  0.00    -0.288 N 
ATOM     24  C   UNL     1      -0.997  -3.763   1.804  0.00  0.00    +0.298 C 
ATOM     25  O   UNL     1      -0.786  -4.541   0.893  0.00  0.00    -0.253 OA
ATOM     26  N   UNL     1      -0.760  -4.136   3.077  0.00  0.00    -0.313 N 
ATOM     27  H   UNL     1      -1.704  -1.933   2.269  0.00  0.00    +0.151 HD
ATOM     28  H   UNL     1      -0.928  -3.516   3.804  0.00  0.00    +0.146 HD
ATOM     29  H   UNL     1      -0.422  -5.025   3.267  0.00  0.00    +0.146 HD
ENDBRANCH  22  23
BRANCH  22  30
ATOM     30  C   UNL     1      -1.547  -0.556   0.096  0.00  0.00    +0.015 C 
ATOM     31  C   UNL     1      -2.656   0.040   0.966  0.00  0.00    +0.010 C 
BRANCH  30  33
ATOM     32  C   UNL     1      -0.066   1.426   0.443  0.00  0.00    +0.004 C 
ATOM     33  C   UNL     1      -0.186  -0.089   0.615  0.00  0.00    +0.002 C 
ENDBRANCH  30  33
ENDBRANCH  22  30
ENDBRANCH  18  22
ENDBRANCH   1  20
TORSDOF 9
