REMARK  Name = ZINC24899324
REMARK  9 active torsions:
REMARK  status: ('A' for Active; 'I' for Inactive)
REMARK    1  A    between atoms: C_1  and  C_2
REMARK    2  A    between atoms: C_12  and  C_14
REMARK    3  A    between atoms: C_14  and  N_15
REMARK    4  A    between atoms: N_19  and  C_22
REMARK    5  A    between atoms: C_22  and  C_23
REMARK    6  A    between atoms: C_23  and  C_25
REMARK    7  A    between atoms: C_23  and  O_33
REMARK    8  A    between atoms: C_25  and  O_26
REMARK    9  A    between atoms: O_26  and  C_27
REMARK                            x       y       z     vdW  Elec       q    Type
REMARK                         _______ _______ _______ _____ _____    ______ ____
ROOT
ATOM      1  N   UNL     1       3.361  -4.902   1.017  0.00  0.00    -0.297 NA
ATOM      2  C   UNL     1       4.277  -4.903  -0.144  0.00  0.00    +0.083 C 
ATOM      3  C   UNL     1       5.696  -4.949   0.365  0.00  0.00    -0.003 C 
ATOM      4  C   UNL     1       6.224  -6.388   0.474  0.00  0.00    -0.077 C 
ATOM      5  N   UNL     1       5.214  -7.323   1.020  0.00  0.00    +0.382 N 
ATOM      6  C   UNL     1       4.455  -6.783   2.125  0.00  0.00    -0.063 C 
ATOM      7  C   UNL     1       3.151  -6.166   1.580  0.00  0.00    +0.066 C 
ATOM      8  H   UNL     1       4.469  -7.486   0.227  0.00  0.00    -0.082 HD
ENDROOT
BRANCH   1   9
ATOM      9  C   UNL     1       2.085  -4.256   0.681  0.00  0.00    +0.157 C 
BRANCH   9  21
ATOM     10  C   UNL     1       1.138   3.598   0.009  0.00  0.00    +0.044 C 
ATOM     11  C   UNL     1       1.167   2.091   0.002  0.00  0.00    -0.048 A 
ATOM     12  C   UNL     1      -0.017   1.377   0.010  0.00  0.00    +0.005 A 
ATOM     13  C   UNL     1       0.002  -0.004   0.002  0.00  0.00    +0.025 A 
ATOM     14  C   UNL     1       1.216  -0.680  -0.013  0.00  0.00    +0.059 A 
ATOM     15  C   UNL     1       2.401   0.047  -0.019  0.00  0.00    +0.134 A 
ATOM     16  C   UNL     1       2.380   1.423  -0.012  0.00  0.00    +0.034 A 
ATOM     17  S   UNL     1       3.929  -0.836  -0.034  0.00  0.00    +0.102 S 
ATOM     18  O   UNL     1       4.388  -0.840  -1.378  0.00  0.00    -0.146 OA
ATOM     19  O   UNL     1       4.708  -0.329   1.041  0.00  0.00    -0.146 OA
ATOM     20  N   UNL     1       3.547  -2.405   0.347  0.00  0.00    -0.117 NA
ATOM     21  C   UNL     1       2.333  -2.816   0.312  0.00  0.00    +0.135 C 
ATOM     22  N   UNL     1       1.252  -2.072  -0.028  0.00  0.00    -0.299 N 
ATOM     23  H   UNL     1       0.361  -2.642  -0.331  0.00  0.00    +0.153 HD
ENDBRANCH   9  21
ENDBRANCH   1   9
BRANCH   5  24
ATOM     24  C   UNL     1       5.826  -8.609   1.380  0.00  0.00    -0.044 C 
BRANCH  24  25
ATOM     25  C   UNL     1       6.815  -9.026   0.289  0.00  0.00    +0.135 C 
BRANCH  25  26
ATOM     26  O   UNL     1       7.896  -8.092   0.243  0.00  0.00    -0.390 OA
ATOM     27  H   UNL     1       8.710  -8.229  -0.484  0.00  0.00    +0.210 HD
ENDBRANCH  25  26
BRANCH  25  28
ATOM     28  C   UNL     1       7.359 -10.421   0.601  0.00  0.00    +0.258 C 
BRANCH  28  29
ATOM     29  O   UNL     1       8.192 -10.859  -0.474  0.00  0.00    -0.489 OA
BRANCH  29  30
ATOM     30  C   UNL     1       8.759 -12.089  -0.355  0.00  0.00    +0.121 A 
ATOM     31  C   UNL     1       8.524 -12.855   0.778  0.00  0.00    +0.045 A 
ATOM     32  C   UNL     1       9.096 -14.107   0.894  0.00  0.00    +0.004 A 
ATOM     33  C   UNL     1       9.913 -14.591  -0.111  0.00  0.00    +0.000 A 
ATOM     34  C   UNL     1      10.154 -13.827  -1.238  0.00  0.00    +0.004 A 
ATOM     35  C   UNL     1       9.579 -12.577  -1.362  0.00  0.00    +0.045 A 
ENDBRANCH  29  30
ENDBRANCH  28  29
ENDBRANCH  25  28
ENDBRANCH  24  25
ENDBRANCH   5  24
TORSDOF 8
