REMARK  Name = ZINC64043921
REMARK  8 active torsions:
REMARK  status: ('A' for Active; 'I' for Inactive)
REMARK    1  A    between atoms: C_1  and  N_2
REMARK    2  A    between atoms: N_2  and  C_3
REMARK    3  A    between atoms: C_3  and  C_4
REMARK    4  A    between atoms: C_4  and  C_5
REMARK    5  A    between atoms: C_16  and  C_18
REMARK    6  A    between atoms: C_21  and  C_24
REMARK    7  A    between atoms: C_24  and  O_25
REMARK    8  A    between atoms: O_25  and  C_26
REMARK                            x       y       z     vdW  Elec       q    Type
REMARK                         _______ _______ _______ _____ _____    ______ ____
ROOT
ATOM      1  C   UNL     1      -0.018   1.461   0.010  0.00  0.00    +0.132 C 
ATOM      2  N   UNL     1       0.002  -0.004   0.002  0.00  0.00    -0.303 N 
ATOM      3  C   UNL     1       0.000  -0.672  -1.169  0.00  0.00    +0.240 C 
ATOM      4  O   UNL     1       0.017  -1.884  -1.175  0.00  0.00    -0.273 OA
ENDROOT
BRANCH   3   5
ATOM      5  C   UNL     1      -0.023   0.089  -2.470  0.00  0.00    +0.204 C 
ATOM      6  C   UNL     1       1.374   0.537  -2.855  0.00  0.00    +0.051 C 
ATOM      7  C   UNL     1       1.549   0.265  -4.130  0.00  0.00    +0.161 C 
ATOM      8  O   UNL     1       0.455  -0.306  -4.689  0.00  0.00    -0.407 OA
ATOM      9  N   UNL     1      -0.404  -0.803  -3.595  0.00  0.00    -0.140 NA
ATOM     10  H   UNL     1      -0.195  -1.767  -3.380  0.00  0.00    +0.168 HD
BRANCH   7  11
ATOM     11  C   UNL     1       2.821   0.557  -4.884  0.00  0.00    +0.304 C 
BRANCH  11  12
ATOM     12  O   UNL     1       3.420  -0.672  -5.301  0.00  0.00    -0.484 OA
BRANCH  12  13
ATOM     13  C   UNL     1       4.583  -0.586  -5.998  0.00  0.00    +0.129 A 
ATOM     14  C   UNL     1       5.136   0.635  -6.269  0.00  0.00    +0.046 A 
ATOM     15  C   UNL     1       6.327   0.738  -6.983  0.00  0.00    +0.004 A 
ATOM     16  C   UNL     1       6.978  -0.371  -7.433  0.00  0.00    +0.010 A 
ATOM     17  C   UNL     1       6.443  -1.642  -7.174  0.00  0.00    +0.004 A 
ATOM     18  C   UNL     1       5.232  -1.752  -6.443  0.00  0.00    +0.027 A 
ATOM     19  C   UNL     1       4.720  -3.037  -6.193  0.00  0.00    +0.032 A 
ATOM     20  C   UNL     1       5.408  -4.117  -6.658  0.00  0.00    +0.111 A 
ATOM     21  N   UNL     1       6.541  -3.986  -7.335  0.00  0.00    -0.263 NA
ATOM     22  C   UNL     1       7.071  -2.819  -7.614  0.00  0.00    +0.119 A 
ENDBRANCH  12  13
ENDBRANCH  11  12
ENDBRANCH   7  11
ENDBRANCH   3   5
BRANCH   2  23
ATOM     23  C   UNL     1       0.024  -0.743   1.267  0.00  0.00    +0.111 C 
BRANCH  23  24
ATOM     24  C   UNL     1      -1.411  -1.020   1.720  0.00  0.00    +0.065 C 
BRANCH  24  25
ATOM     25  C   UNL     1      -1.387  -1.792   3.041  0.00  0.00    +0.175 C 
ATOM     26  N   UNL     1      -0.854  -0.942   4.113  0.00  0.00    -0.363 N 
ATOM     27  C   UNL     1      -1.784  -0.820   5.015  0.00  0.00    +0.060 A 
ATOM     28  C   UNL     1      -1.844  -0.104   6.297  0.00  0.00    +0.030 A 
ATOM     29  C   UNL     1      -2.967  -0.159   7.038  0.00  0.00    +0.040 A 
ATOM     30  C   UNL     1      -4.107  -0.883   6.636  0.00  0.00    +0.125 A 
ATOM     31  C   UNL     1      -4.156  -1.576   5.477  0.00  0.00    +0.065 A 
ATOM     32  C   UNL     1      -2.988  -1.586   4.589  0.00  0.00    +0.063 A 
ATOM     33  N   UNL     1      -2.754  -2.153   3.438  0.00  0.00    -0.363 N 
ATOM     34  F   UNL     1      -5.192  -0.886   7.440  0.00  0.00    -0.205 F 
ATOM     35  H   UNL     1       0.030  -0.544   4.143  0.00  0.00    +0.162 HD
ATOM     36  H   UNL     1      -3.370  -2.709   2.936  0.00  0.00    +0.162 HD
ENDBRANCH  24  25
ENDBRANCH  23  24
ENDBRANCH   2  23
TORSDOF 7
