REMARK  Name = ZINC55624242
REMARK  12 active torsions:
REMARK  status: ('A' for Active; 'I' for Inactive)
REMARK    1  A    between atoms: C_1  and  C_2
REMARK    2  A    between atoms: C_2  and  C_4
REMARK    3  A    between atoms: C_2  and  N_22
REMARK    4  A    between atoms: N_6  and  C_7
REMARK    5  A    between atoms: C_7  and  C_8
REMARK    6  A    between atoms: C_11  and  C_14
REMARK    7  A    between atoms: C_14  and  N_15
REMARK    8  A    between atoms: C_23  and  O_25
REMARK    9  A    between atoms: O_25  and  C_26
REMARK   10  A    between atoms: C_26  and  C_27
REMARK   11  A    between atoms: C_26  and  C_28
REMARK   12  A    between atoms: C_26  and  C_29
REMARK                            x       y       z     vdW  Elec       q    Type
REMARK                         _______ _______ _______ _____ _____    ______ ____
ROOT
ATOM      1  C   UNL     1      -1.412  -0.526   0.013  0.00  0.00    +0.233 C 
ATOM      2  O   UNL     1      -1.808  -1.223  -0.897  0.00  0.00    -0.274 OA
ATOM      3  N   UNL     1      -2.236  -0.217   1.033  0.00  0.00    -0.310 N 
ATOM      4  H   UNL     1      -1.920   0.341   1.761  0.00  0.00    +0.149 HD
ENDROOT
BRANCH   1   6
ATOM      5  C   UNL     1      -0.019   1.526   0.010  0.00  0.00    +0.038 C 
ATOM      6  C   UNL     1       0.002  -0.004   0.002  0.00  0.00    +0.159 C 
BRANCH   6   7
ATOM      7  N   UNL     1       0.688  -0.476  -1.203  0.00  0.00    -0.270 N 
ATOM      8  C   UNL     1       2.031  -0.587  -1.215  0.00  0.00    +0.401 C 
ATOM      9  O   UNL     1       2.673  -0.295  -0.226  0.00  0.00    -0.226 OA
ATOM     10  H   UNL     1       0.175  -0.710  -1.993  0.00  0.00    +0.153 HD
BRANCH   8  11
ATOM     11  O   UNL     1       2.661  -1.021  -2.323  0.00  0.00    -0.445 OA
BRANCH  11  12
ATOM     12  C   UNL     1       4.086  -1.114  -2.264  0.00  0.00    +0.107 C 
ATOM     13  C   UNL     1       4.489  -2.087  -1.154  0.00  0.00    +0.055 C 
ATOM     14  C   UNL     1       4.619  -1.621  -3.606  0.00  0.00    +0.055 C 
ATOM     15  C   UNL     1       4.675   0.267  -1.971  0.00  0.00    +0.055 C 
ENDBRANCH  11  12
ENDBRANCH   8  11
ENDBRANCH   6   7
ENDBRANCH   1   6
BRANCH   3  16
ATOM     16  C   UNL     1      -3.611  -0.724   1.044  0.00  0.00    +0.139 C 
BRANCH  16  17
ATOM     17  C   UNL     1      -4.316  -0.238   2.283  0.00  0.00    -0.030 A 
ATOM     18  C   UNL     1      -4.270  -0.988   3.444  0.00  0.00    +0.005 A 
ATOM     19  C   UNL     1      -4.917  -0.542   4.581  0.00  0.00    +0.006 A 
ATOM     20  C   UNL     1      -5.610   0.654   4.558  0.00  0.00    -0.028 A 
ATOM     21  C   UNL     1      -5.655   1.405   3.398  0.00  0.00    +0.006 A 
ATOM     22  C   UNL     1      -5.004   0.961   2.262  0.00  0.00    +0.005 A 
BRANCH  20  23
ATOM     23  C   UNL     1      -6.316   1.139   5.798  0.00  0.00    +0.160 C 
BRANCH  23  24
ATOM     24  N   UNL     1      -5.401   1.966   6.589  0.00  0.00    -0.311 N 
ATOM     25  C   UNL     1      -4.615   1.384   7.530  0.00  0.00    +0.089 A 
ATOM     26  C   UNL     1      -3.762   2.127   8.274  0.00  0.00    +0.018 A 
ATOM     27  C   UNL     1      -3.685   3.513   8.075  0.00  0.00    +0.007 A 
ATOM     28  C   UNL     1      -4.475   4.096   7.128  0.00  0.00    +0.070 A 
ATOM     29  C   UNL     1      -5.346   3.294   6.370  0.00  0.00    +0.252 A 
ATOM     30  O   UNL     1      -6.055   3.801   5.517  0.00  0.00    -0.268 OA
ENDBRANCH  23  24
ENDBRANCH  20  23
ENDBRANCH  16  17
ENDBRANCH   3  16
TORSDOF 8
