REMARK  Name = ZINC50583219
REMARK  9 active torsions:
REMARK  status: ('A' for Active; 'I' for Inactive)
REMARK    1  A    between atoms: C_3  and  C_22
REMARK    2  A    between atoms: C_6  and  C_7
REMARK    3  A    between atoms: C_7  and  N_8
REMARK    4  A    between atoms: C_9  and  C_11
REMARK    5  A    between atoms: C_11  and  N_12
REMARK    6  A    between atoms: N_15  and  C_16
REMARK    7  A    between atoms: C_16  and  C_17
REMARK    8  A    between atoms: N_24  and  C_25
REMARK    9  A    between atoms: C_25  and  C_26
REMARK                            x       y       z     vdW  Elec       q    Type
REMARK                         _______ _______ _______ _____ _____    ______ ____
ROOT
ATOM      1  C   UNL     1      -1.295  -0.772   0.010  0.00  0.00    +0.139 C 
ENDROOT
BRANCH   1   7
ATOM      2  C   UNL     1      -0.017   1.379   0.010  0.00  0.00    +0.006 A 
ATOM      3  C   UNL     1       1.167   2.088   0.002  0.00  0.00    +0.013 A 
ATOM      4  C   UNL     1       2.385   1.407  -0.013  0.00  0.00    +0.037 A 
ATOM      5  C   UNL     1       2.397   0.011  -0.021  0.00  0.00    +0.013 A 
ATOM      6  C   UNL     1       1.206  -0.686  -0.013  0.00  0.00    +0.006 A 
ATOM      7  C   UNL     1       0.002  -0.004   0.002  0.00  0.00    -0.030 A 
BRANCH   4   8
ATOM      8  C   UNL     1       3.657   2.160  -0.022  0.00  0.00    +0.244 C 
ATOM      9  O   UNL     1       3.643   3.376  -0.015  0.00  0.00    -0.270 OA
ATOM     10  N   UNL     1       4.831   1.499  -0.037  0.00  0.00    -0.303 N 
ATOM     11  H   UNL     1       4.842   0.529  -0.042  0.00  0.00    +0.150 HD
BRANCH  10  12
ATOM     12  C   UNL     1       6.092   2.246  -0.045  0.00  0.00    +0.200 C 
BRANCH  12  13
ATOM     13  C   UNL     1       7.248   1.279  -0.061  0.00  0.00    +0.228 C 
ATOM     14  O   UNL     1       7.040   0.085  -0.065  0.00  0.00    -0.274 OA
ATOM     15  N   UNL     1       8.514   1.743  -0.071  0.00  0.00    -0.328 N 
ATOM     16  H   UNL     1       8.680   2.698  -0.068  0.00  0.00    +0.145 HD
ATOM     17  H   UNL     1       9.258   1.120  -0.082  0.00  0.00    +0.145 HD
ENDBRANCH  12  13
ENDBRANCH  10  12
ENDBRANCH   4   8
ENDBRANCH   1   7
BRANCH   1  18
ATOM     18  N   UNL     1      -1.728  -1.013  -1.368  0.00  0.00    -0.310 N 
ATOM     19  C   UNL     1      -2.870  -1.687  -1.607  0.00  0.00    +0.231 C 
ATOM     20  O   UNL     1      -3.540  -2.094  -0.681  0.00  0.00    -0.274 OA
ATOM     21  H   UNL     1      -1.193  -0.688  -2.109  0.00  0.00    +0.149 HD
BRANCH  19  22
ATOM     22  C   UNL     1      -3.316  -1.935  -3.025  0.00  0.00    +0.201 C 
BRANCH  22  23
ATOM     23  N   UNL     1      -4.577  -2.682  -3.017  0.00  0.00    -0.291 N 
ATOM     24  C   UNL     1      -5.168  -3.019  -4.181  0.00  0.00    +0.300 C 
ATOM     25  O   UNL     1      -4.655  -2.704  -5.237  0.00  0.00    -0.253 OA
ATOM     26  N   UNL     1      -6.327  -3.706  -4.173  0.00  0.00    -0.299 N 
ATOM     27  H   UNL     1      -4.986  -2.934  -2.174  0.00  0.00    +0.151 HD
ATOM     28  H   UNL     1      -6.737  -3.958  -3.330  0.00  0.00    +0.150 HD
BRANCH  26  29
ATOM     29  C   UNL     1      -6.970  -4.072  -5.438  0.00  0.00    +0.109 C 
BRANCH  29  30
ATOM     30  C   UNL     1      -8.261  -4.840  -5.150  0.00  0.00    +0.006 C 
ATOM     31  C   UNL     1      -7.933  -6.212  -4.526  0.00  0.00    +0.005 C 
ATOM     32  C   UNL     1      -8.986  -7.169  -5.136  0.00  0.00    +0.000 C 
ATOM     33  C   UNL     1      -9.111  -6.657  -6.593  0.00  0.00    +0.000 C 
ATOM     34  C   UNL     1      -9.011  -5.123  -6.464  0.00  0.00    +0.005 C 
ENDBRANCH  29  30
ENDBRANCH  26  29
ENDBRANCH  22  23
ENDBRANCH  19  22
ENDBRANCH   1  18
TORSDOF 9
