REMARK  Name = ZINC04578129
REMARK  7 active torsions:
REMARK  status: ('A' for Active; 'I' for Inactive)
REMARK    1  A    between atoms: C_1  and  C_2
REMARK    2  A    between atoms: C_5  and  N_24
REMARK    3  A    between atoms: C_7  and  S_8
REMARK    4  A    between atoms: S_8  and  N_11
REMARK    5  A    between atoms: N_11  and  C_12
REMARK    6  A    between atoms: C_12  and  C_13
REMARK    7  A    between atoms: C_13  and  C_14
REMARK                            x       y       z     vdW  Elec       q    Type
REMARK                         _______ _______ _______ _____ _____    ______ ____
ROOT
ATOM      1  N   UNL     1       0.085   0.867   0.079  0.00  0.00    -0.190 NA
ATOM      2  H   UNL     1       0.231  -0.082   0.218  0.00  0.00    +0.148 HD
ENDROOT
BRANCH   1   3
ATOM      3  S   UNL     1       1.377   1.883  -0.126  0.00  0.00    +0.059 S 
ATOM      4  O   UNL     1       2.545   1.087   0.020  0.00  0.00    -0.153 OA
ATOM      5  O   UNL     1       1.114   2.643  -1.297  0.00  0.00    -0.153 OA
BRANCH   3  12
ATOM      6  C   UNL     1       1.797   1.090   2.763  0.00  0.00    +0.046 C 
ATOM      7  C   UNL     1       1.569   2.558   2.512  0.00  0.00    -0.024 A 
ATOM      8  C   UNL     1       1.562   3.447   3.571  0.00  0.00    +0.007 A 
ATOM      9  C   UNL     1       1.354   4.794   3.341  0.00  0.00    +0.033 A 
ATOM     10  C   UNL     1       1.152   5.252   2.052  0.00  0.00    +0.128 A 
ATOM     11  C   UNL     1       1.163   4.364   0.993  0.00  0.00    +0.061 A 
ATOM     12  C   UNL     1       1.367   3.016   1.224  0.00  0.00    +0.110 A 
BRANCH  10  13
ATOM     13  N   UNL     1       0.929   6.694   1.805  0.00  0.00    +0.056 N 
ATOM     14  O   UNL     1       0.923   7.478   2.738  0.00  0.00    -0.126 OA
ATOM     15  O   UNL     1       0.752   7.098   0.670  0.00  0.00    -0.126 OA
ENDBRANCH  10  13
ENDBRANCH   3  12
ENDBRANCH   1   3
BRANCH   1  16
ATOM     16  C   UNL     1      -1.279   1.401   0.044  0.00  0.00    +0.106 C 
BRANCH  16  17
ATOM     17  C   UNL     1      -2.271   0.253  -0.161  0.00  0.00    +0.024 C 
BRANCH  17  18
ATOM     18  C   UNL     1      -3.695   0.811  -0.198  0.00  0.00    -0.027 C 
ATOM     19  C   UNL     1      -4.000   1.519   1.124  0.00  0.00    +0.010 C 
ATOM     20  C   UNL     1      -5.425   2.076   1.087  0.00  0.00    -0.010 C 
ATOM     21  C   UNL     1      -6.416   0.929   0.883  0.00  0.00    +0.007 C 
ATOM     22  C   UNL     1      -6.111   0.221  -0.439  0.00  0.00    -0.010 C 
ATOM     23  C   UNL     1      -4.686  -0.337  -0.402  0.00  0.00    +0.010 C 
ATOM     24  C   UNL     1      -6.239   1.217  -1.593  0.00  0.00    +0.007 C 
ATOM     25  C   UNL     1      -5.248   2.364  -1.389  0.00  0.00    -0.010 C 
ATOM     26  C   UNL     1      -5.553   3.073  -0.067  0.00  0.00    +0.007 C 
ATOM     27  C   UNL     1      -3.823   1.807  -1.352  0.00  0.00    +0.010 C 
ENDBRANCH  17  18
ENDBRANCH  16  17
ENDBRANCH   1  16
TORSDOF 6
