REMARK  Name = ZINC34428559
REMARK  3 active torsions:
REMARK  status: ('A' for Active; 'I' for Inactive)
REMARK    1  A    between atoms: C_6  and  N_7
REMARK    2  A    between atoms: N_7  and  C_8
REMARK    3  A    between atoms: C_14  and  O_16
REMARK                            x       y       z     vdW  Elec       q    Type
REMARK                         _______ _______ _______ _____ _____    ______ ____
ROOT
ATOM      1  N   UNL     1      -1.191  -0.719   0.010  0.00  0.00    -0.322 N 
ATOM      2  H   UNL     1      -1.176  -1.689   0.004  0.00  0.00    +0.148 HD
ENDROOT
BRANCH   1   8
ATOM      3  C   UNL     1      -0.017   1.390   0.010  0.00  0.00    +0.048 A 
ATOM      4  C   UNL     1       1.199   2.056   0.002  0.00  0.00    +0.045 A 
ATOM      5  C   UNL     1       2.360   1.294  -0.013  0.00  0.00    +0.152 A 
ATOM      6  N   UNL     1       2.284  -0.023  -0.020  0.00  0.00    -0.136 NA
ATOM      7  N   UNL     1       1.161  -0.645  -0.013  0.00  0.00    -0.133 NA
ATOM      8  C   UNL     1       0.002  -0.004   0.002  0.00  0.00    +0.142 A 
ATOM      9 CL   UNL     1       3.910   2.074  -0.025  0.00  0.00    -0.060 Cl
ENDBRANCH   1   8
BRANCH   1  10
ATOM     10  C   UNL     1      -2.472  -0.007   0.026  0.00  0.00    +0.100 C 
ATOM     11  C   UNL     1      -2.870   0.358  -1.406  0.00  0.00    +0.025 C 
ATOM     12  C   UNL     1      -4.207   1.102  -1.389  0.00  0.00    +0.002 C 
ATOM     13  C   UNL     1      -5.282   0.204  -0.774  0.00  0.00    +0.003 C 
ATOM     14  C   UNL     1      -4.884  -0.161   0.657  0.00  0.00    +0.033 C 
ATOM     15  C   UNL     1      -3.547  -0.905   0.641  0.00  0.00    +0.135 C 
BRANCH  15  16
ATOM     16  O   UNL     1      -3.175  -1.246   1.978  0.00  0.00    -0.390 OA
ATOM     17  H   UNL     1      -3.812  -1.816   2.430  0.00  0.00    +0.210 HD
ENDBRANCH  15  16
ENDBRANCH   1  10
TORSDOF 3
