REMARK  Name = ZINC13498456
REMARK  15 active torsions:
REMARK  status: ('A' for Active; 'I' for Inactive)
REMARK    1  A    between atoms: C_1  and  C_2
REMARK    2  A    between atoms: C_2  and  C_3
REMARK    3  A    between atoms: C_10  and  C_15
REMARK    4  A    between atoms: C_15  and  N_71
REMARK    5  A    between atoms: C_16  and  N_71
REMARK    6  A    between atoms: C_21  and  C_23
REMARK    7  A    between atoms: C_21  and  C_34
REMARK    8  A    between atoms: C_21  and  N_71
REMARK    9  A    between atoms: N_27  and  C_28
REMARK   10  A    between atoms: C_28  and  C_29
REMARK   11  A    between atoms: C_29  and  O_31
REMARK   12  A    between atoms: O_31  and  C_32
REMARK   13  A    between atoms: C_32  and  C_33
REMARK   14  A    between atoms: C_34  and  C_35
REMARK   15  A    between atoms: C_34  and  C_36
REMARK                            x       y       z     vdW  Elec       q    Type
REMARK                         _______ _______ _______ _____ _____    ______ ____
ROOT
ATOM      1  N   UNL     1       0.469  -0.355   3.157  0.00  0.00    +0.391 N 
ATOM      2  H   UNL     1       0.704  -0.644   4.113  0.00  0.00    -0.080 HD
ENDROOT
BRANCH   1   3
ATOM      3  C   UNL     1       1.185  -1.226   2.202  0.00  0.00    -0.067 C 
ATOM      4  C   UNL     1       2.690  -1.231   2.543  0.00  0.00    -0.015 C 
ATOM      5  C   UNL     1       3.392  -1.294   1.163  0.00  0.00    -0.002 C 
ATOM      6  C   UNL     1       2.495  -0.389   0.281  0.00  0.00    -0.002 C 
ATOM      7  C   UNL     1       1.062  -0.691   0.764  0.00  0.00    -0.015 C 
ENDBRANCH   1   3
BRANCH   1   8
ATOM      8  C   UNL     1      -0.991  -0.484   2.961  0.00  0.00    -0.036 C 
BRANCH   8  16
ATOM      9  C   UNL     1      -3.166  -4.565   7.072  0.00  0.00    -0.047 A 
ATOM     10  C   UNL     1      -3.108  -5.673   6.237  0.00  0.00    +0.005 A 
ATOM     11  C   UNL     1      -2.652  -5.555   4.942  0.00  0.00    +0.026 A 
ATOM     12  C   UNL     1      -2.246  -4.313   4.464  0.00  0.00    +0.049 A 
ATOM     13  C   UNL     1      -2.308  -3.192   5.313  0.00  0.00    -0.001 A 
ATOM     14  C   UNL     1      -2.773  -3.336   6.624  0.00  0.00    +0.013 A 
ATOM     15  C   UNL     1      -1.874  -1.890   4.802  0.00  0.00    +0.017 A 
ATOM     16  C   UNL     1      -1.438  -1.810   3.520  0.00  0.00    +0.001 A 
ATOM     17  C   UNL     1      -1.397  -2.965   2.710  0.00  0.00    +0.251 A 
ATOM     18  O   UNL     1      -0.996  -2.871   1.562  0.00  0.00    -0.268 OA
ATOM     19  N   UNL     1      -1.787  -4.165   3.172  0.00  0.00    -0.322 N 
ATOM     20  H   UNL     1      -1.746  -4.939   2.588  0.00  0.00    +0.169 HD
BRANCH   9  22
ATOM     21  C   UNL     1      -5.182  -4.506   8.514  0.00  0.00    +0.009 C 
ATOM     22  C   UNL     1      -3.668  -4.720   8.484  0.00  0.00    +0.032 C 
ENDBRANCH   9  22
ENDBRANCH   8  16
ENDBRANCH   1   8
BRANCH   1  23
ATOM     23  C   UNL     1       0.882   1.052   2.965  0.00  0.00    +0.006 C 
BRANCH  23  24
ATOM     24  C   UNL     1      -0.056   1.748   2.013  0.00  0.00    +0.139 A 
ATOM     25  N   UNL     1      -1.336   1.510   1.860  0.00  0.00    -0.115 NA
ATOM     26  N   UNL     1      -1.784   2.310   0.956  0.00  0.00    -0.023 NA
ATOM     27  N   UNL     1      -0.824   3.053   0.527  0.00  0.00    -0.043 NA
ATOM     28  N   UNL     1       0.257   2.740   1.159  0.00  0.00    -0.220 N 
BRANCH  28  29
ATOM     29  C   UNL     1       1.577   3.349   0.978  0.00  0.00    +0.267 C 
BRANCH  29  30
ATOM     30  C   UNL     1       2.246   2.747  -0.232  0.00  0.00    +0.329 C 
ATOM     31  O   UNL     1       1.644   1.964  -0.928  0.00  0.00    -0.249 OA
BRANCH  30  32
ATOM     32  O   UNL     1       3.510   3.082  -0.536  0.00  0.00    -0.464 OA
BRANCH  32  33
ATOM     33  C   UNL     1       4.062   2.527  -1.759  0.00  0.00    +0.229 C 
ATOM     34  C   UNL     1       5.537   2.918  -1.875  0.00  0.00    +0.048 C 
ENDBRANCH  32  33
ENDBRANCH  30  32
ENDBRANCH  29  30
ENDBRANCH  28  29
ENDBRANCH  23  24
BRANCH  23  35
ATOM     35  C   UNL     1       0.848   1.758   4.322  0.00  0.00    -0.024 C 
ATOM     36  C   UNL     1      -0.587   1.775   4.853  0.00  0.00    +0.006 C 
ATOM     37  C   UNL     1       1.350   3.194   4.163  0.00  0.00    +0.006 C 
ENDBRANCH  23  35
ENDBRANCH   1  23
TORSDOF 11
