REMARK  Name = ZINC23044206
REMARK  11 active torsions:
REMARK  status: ('A' for Active; 'I' for Inactive)
REMARK    1  A    between atoms: C_1  and  C_2
REMARK    2  A    between atoms: C_2  and  C_3
REMARK    3  A    between atoms: C_3  and  N_4
REMARK    4  A    between atoms: C_8  and  S_30
REMARK    5  A    between atoms: C_12  and  S_13
REMARK    6  A    between atoms: S_13  and  C_14
REMARK    7  A    between atoms: C_14  and  C_16
REMARK    8  A    between atoms: C_14  and  C_17
REMARK    9  A    between atoms: N_19  and  C_20
REMARK   10  A    between atoms: C_22  and  N_27
REMARK   11  A    between atoms: S_30  and  N_33
REMARK                            x       y       z     vdW  Elec       q    Type
REMARK                         _______ _______ _______ _____ _____    ______ ____
ROOT
ATOM      1  N   UNL     1      -6.355   1.429   1.313  0.00  0.00    -0.319 N 
ATOM      2  C   UNL     1      -7.143   0.289   1.317  0.00  0.00    +0.070 A 
ATOM      3  C   UNL     1      -8.466   0.038   1.644  0.00  0.00    +0.030 A 
ATOM      4  C   UNL     1      -8.966  -1.245   1.547  0.00  0.00    +0.030 A 
ATOM      5  C   UNL     1      -8.152  -2.285   1.124  0.00  0.00    +0.107 A 
ATOM      6  C   UNL     1      -6.835  -2.054   0.796  0.00  0.00    +0.058 A 
ATOM      7  C   UNL     1      -6.314  -0.760   0.889  0.00  0.00    +0.092 A 
ATOM      8  N   UNL     1      -5.088  -0.228   0.643  0.00  0.00    -0.222 NA
ATOM      9  C   UNL     1      -5.110   1.059   0.888  0.00  0.00    +0.171 A 
ENDROOT
BRANCH   5  10
ATOM     10  S   UNL     1      -8.808  -3.917   1.006  0.00  0.00    +0.056 S 
ATOM     11  O   UNL     1     -10.213  -3.778   0.846  0.00  0.00    -0.153 OA
ATOM     12  O   UNL     1      -7.999  -4.613   0.068  0.00  0.00    -0.153 OA
BRANCH  10  13
ATOM     13  N   UNL     1      -8.568  -4.648   2.472  0.00  0.00    -0.204 NA
ATOM     14  H   UNL     1      -8.966  -5.673   2.440  0.00  0.00    +0.144 HD
ATOM     15  H   UNL     1      -9.088  -4.077   3.256  0.00  0.00    +0.144 HD
ENDBRANCH  10  13
ENDBRANCH   5  10
BRANCH   1  16
ATOM     16  C   UNL     1      -6.778   2.780   1.691  0.00  0.00    +0.124 C 
BRANCH  16  18
ATOM     17  C   UNL     1      -7.757   4.920   0.854  0.00  0.00    +0.005 C 
ATOM     18  C   UNL     1      -7.315   3.510   0.459  0.00  0.00    +0.018 C 
ENDBRANCH  16  18
ENDBRANCH   1  16
BRANCH   9  19
ATOM     19  S   UNL     1      -3.738   2.148   0.703  0.00  0.00    -0.075 S 
BRANCH  19  20
ATOM     20  C   UNL     1      -2.482   0.978   0.131  0.00  0.00    +0.137 C 
ATOM     21  C   UNL     1      -2.885   0.426  -1.238  0.00  0.00    +0.029 C 
BRANCH  20  22
ATOM     22  C   UNL     1      -1.153   1.681   0.018  0.00  0.00    +0.230 C 
ATOM     23  O   UNL     1      -1.113   2.890  -0.064  0.00  0.00    -0.274 OA
ATOM     24  N   UNL     1      -0.011   0.966   0.007  0.00  0.00    -0.283 N 
ATOM     25  H   UNL     1      -0.050  -0.133  -0.009  0.00  0.00    +0.155 HD
BRANCH  24  26
ATOM     26  C   UNL     1       1.225   1.622   0.017  0.00  0.00    +0.054 A 
ATOM     27  C   UNL     1       1.329   2.904   0.539  0.00  0.00    +0.057 A 
ATOM     28  C   UNL     1       2.550   3.549   0.547  0.00  0.00    +0.128 A 
ATOM     29  C   UNL     1       3.670   2.920   0.035  0.00  0.00    +0.034 A 
ATOM     30  C   UNL     1       3.571   1.643  -0.486  0.00  0.00    +0.024 A 
ATOM     31  C   UNL     1       2.353   0.989  -0.492  0.00  0.00    +0.062 A 
ATOM     32 CL   UNL     1       2.231  -0.617  -1.140  0.00  0.00    -0.082 Cl
BRANCH  28  33
ATOM     33  N   UNL     1       2.660   4.916   1.104  0.00  0.00    +0.056 N 
ATOM     34  O   UNL     1       1.675   5.471   1.556  0.00  0.00    -0.126 OA
ATOM     35  O   UNL     1       3.737   5.486   1.111  0.00  0.00    -0.126 OA
ENDBRANCH  28  33
ENDBRANCH  24  26
ENDBRANCH  20  22
ENDBRANCH  19  20
ENDBRANCH   9  19
TORSDOF 9
