REMARK  Name = ZINC26850312
REMARK  6 active torsions:
REMARK  status: ('A' for Active; 'I' for Inactive)
REMARK    1  A    between atoms: C_1  and  C_2
REMARK    2  A    between atoms: C_5  and  C_23
REMARK    3  A    between atoms: C_6  and  S_8
REMARK    4  A    between atoms: S_8  and  N_11
REMARK    5  A    between atoms: N_11  and  C_12
REMARK    6  A    between atoms: N_21  and  C_22
REMARK                            x       y       z     vdW  Elec       q    Type
REMARK                         _______ _______ _______ _____ _____    ______ ____
ROOT
ATOM      1  N   UNL     1      -0.235   0.958   2.391  0.00  0.00    -0.182 NA
ATOM      2  H   UNL     1      -0.086  -0.131   2.342  0.00  0.00    +0.149 HD
ENDROOT
BRANCH   1   3
ATOM      3  C   UNL     1      -0.886   1.658   1.281  0.00  0.00    +0.110 C 
ATOM      4  C   UNL     1      -0.240   1.236  -0.045  0.00  0.00    +0.025 C 
ATOM      5  C   UNL     1      -1.080   1.763  -1.212  0.00  0.00    +0.008 C 
ATOM      6  C   UNL     1      -2.405   0.994  -1.278  0.00  0.00    +0.055 C 
ATOM      7  C   UNL     1      -3.024   0.994   0.097  0.00  0.00    +0.044 A 
ATOM      8  C   UNL     1      -2.348   1.292   1.236  0.00  0.00    +0.012 A 
ATOM      9  C   UNL     1      -3.238   1.191   2.303  0.00  0.00    +0.139 A 
ATOM     10  N   UNL     1      -4.408   0.845   1.825  0.00  0.00    -0.179 NA
ATOM     11  N   UNL     1      -4.294   0.714   0.433  0.00  0.00    -0.271 N 
ATOM     12  C   UNL     1      -5.368   0.338  -0.489  0.00  0.00    +0.172 C 
ENDBRANCH   1   3
BRANCH   1  13
ATOM     13  S   UNL     1       0.051   1.750   3.817  0.00  0.00    +0.059 S 
ATOM     14  O   UNL     1      -1.172   2.371   4.189  0.00  0.00    -0.153 OA
ATOM     15  O   UNL     1       0.727   0.832   4.664  0.00  0.00    -0.153 OA
BRANCH  13  21
ATOM     16  C   UNL     1       1.298   6.821   3.590  0.00  0.00    +0.044 C 
ATOM     17  C   UNL     1       1.708   5.386   3.387  0.00  0.00    -0.049 A 
ATOM     18  C   UNL     1       2.978   5.088   2.929  0.00  0.00    +0.004 A 
ATOM     19  C   UNL     1       3.354   3.771   2.742  0.00  0.00    +0.005 A 
ATOM     20  C   UNL     1       2.461   2.751   3.017  0.00  0.00    -0.024 A 
ATOM     21  C   UNL     1       1.190   3.050   3.471  0.00  0.00    +0.108 A 
ATOM     22  C   UNL     1       0.814   4.367   3.658  0.00  0.00    +0.032 A 
ATOM     23  C   UNL     1       2.873   1.315   2.819  0.00  0.00    +0.046 C 
ENDBRANCH  13  21
ENDBRANCH   1  13
TORSDOF 3
