REMARK  Name = ZINC12483905
REMARK  12 active torsions:
REMARK  status: ('A' for Active; 'I' for Inactive)
REMARK    1  A    between atoms: C_1  and  C_2
REMARK    2  A    between atoms: C_6  and  C_8
REMARK    3  A    between atoms: C_8  and  C_9
REMARK    4  A    between atoms: C_9  and  N_10
REMARK    5  A    between atoms: N_10  and  C_11
REMARK    6  A    between atoms: C_11  and  C_13
REMARK    7  A    between atoms: C_11  and  C_20
REMARK    8  A    between atoms: C_18  and  C_19
REMARK    9  A    between atoms: N_22  and  C_23
REMARK   10  A    between atoms: C_23  and  C_24
REMARK   11  A    between atoms: C_30  and  C_32
REMARK   12  A    between atoms: C_32  and  N_33
REMARK                            x       y       z     vdW  Elec       q    Type
REMARK                         _______ _______ _______ _____ _____    ______ ____
ROOT
ATOM      1  N   UNL     1      -0.138   7.456  -1.610  0.00  0.00    -0.284 N 
ATOM      2  C   UNL     1       0.617   8.198  -2.444  0.00  0.00    +0.238 C 
ATOM      3  O   UNL     1       0.161   9.206  -2.940  0.00  0.00    -0.274 OA
ENDROOT
BRANCH   1   4
ATOM      4  C   UNL     1       0.413   6.238  -1.011  0.00  0.00    +0.113 C 
BRANCH   4   5
ATOM      5  C   UNL     1       1.173   6.596   0.268  0.00  0.00    +0.054 C 
BRANCH   5  11
ATOM      6  C   UNL     1       5.214   3.650   0.423  0.00  0.00    +0.044 C 
ATOM      7  C   UNL     1       3.809   3.962   0.869  0.00  0.00    -0.050 A 
ATOM      8  C   UNL     1       3.165   3.126   1.762  0.00  0.00    +0.003 A 
ATOM      9  C   UNL     1       1.874   3.410   2.167  0.00  0.00    +0.001 A 
ATOM     10  C   UNL     1       1.231   4.536   1.687  0.00  0.00    +0.004 A 
ATOM     11  C   UNL     1       1.875   5.372   0.795  0.00  0.00    -0.046 A 
ATOM     12  C   UNL     1       3.164   5.085   0.385  0.00  0.00    +0.007 A 
ENDBRANCH   5  11
ENDBRANCH   4   5
ENDBRANCH   1   4
BRANCH   1  13
ATOM     13  C   UNL     1      -1.510   7.867  -1.303  0.00  0.00    +0.192 C 
BRANCH  13  14
ATOM     14  C   UNL     1      -2.391   6.648  -1.209  0.00  0.00    -0.015 A 
ATOM     15  C   UNL     1      -2.773   6.166   0.029  0.00  0.00    +0.006 A 
ATOM     16  C   UNL     1      -3.586   5.051   0.115  0.00  0.00    +0.000 A 
ATOM     17  C   UNL     1      -4.006   4.412  -1.036  0.00  0.00    +0.000 A 
ATOM     18  C   UNL     1      -3.620   4.891  -2.273  0.00  0.00    +0.004 A 
ATOM     19  C   UNL     1      -2.812   6.010  -2.360  0.00  0.00    -0.045 A 
ATOM     20  C   UNL     1      -2.390   6.532  -3.709  0.00  0.00    +0.044 C 
ENDBRANCH  13  14
BRANCH  13  21
ATOM     21  C   UNL     1      -1.530   8.605   0.011  0.00  0.00    +0.238 C 
ATOM     22  O   UNL     1      -0.524   8.673   0.684  0.00  0.00    -0.273 OA
ATOM     23  N   UNL     1      -2.668   9.188   0.439  0.00  0.00    -0.311 N 
ATOM     24  H   UNL     1      -3.493   9.061  -0.054  0.00  0.00    +0.149 HD
BRANCH  23  25
ATOM     25  C   UNL     1      -2.657  10.014   1.649  0.00  0.00    +0.135 C 
BRANCH  25  26
ATOM     26  C   UNL     1      -4.065  10.553   1.911  0.00  0.00    +0.135 C 
ATOM     27  C   UNL     1      -4.065  11.424   3.182  0.00  0.00    +0.035 C 
ATOM     28  C   UNL     1      -4.567  12.805   2.696  0.00  0.00    +0.031 C 
ATOM     29  C   UNL     1      -5.298  12.440   1.379  0.00  0.00    +0.160 C 
ATOM     30  O   UNL     1      -4.479  11.391   0.819  0.00  0.00    -0.375 OA
ENDBRANCH  25  26
ENDBRANCH  23  25
ENDBRANCH  13  21
ENDBRANCH   1  13
BRANCH   2  31
ATOM     31  C   UNL     1       2.029   7.774  -2.760  0.00  0.00    +0.241 C 
BRANCH  31  32
ATOM     32  N   UNL     1       2.633   8.739  -3.682  0.00  0.00    -0.235 N 
ATOM     33  C   UNL     1       2.609   8.691  -5.056  0.00  0.00    +0.090 A 
ATOM     34  C   UNL     1       2.064   7.809  -5.982  0.00  0.00    +0.029 A 
ATOM     35  C   UNL     1       2.218   8.047  -7.319  0.00  0.00    +0.002 A 
ATOM     36  C   UNL     1       2.914   9.164  -7.763  0.00  0.00    +0.002 A 
ATOM     37  C   UNL     1       3.452  10.049  -6.874  0.00  0.00    +0.032 A 
ATOM     38  C   UNL     1       3.312   9.825  -5.498  0.00  0.00    +0.113 A 
ATOM     39  N   UNL     1       3.734  10.496  -4.407  0.00  0.00    -0.129 NA
ATOM     40  N   UNL     1       3.355   9.892  -3.337  0.00  0.00    -0.064 NA
ENDBRANCH  31  32
ENDBRANCH   2  31
TORSDOF 10
