REMARK  Name = ZINC18415635
REMARK  8 active torsions:
REMARK  status: ('A' for Active; 'I' for Inactive)
REMARK    1  A    between atoms: C_1  and  C_2
REMARK    2  A    between atoms: C_2  and  C_3
REMARK    3  A    between atoms: C_3  and  C_25
REMARK    4  A    between atoms: N_6  and  C_10
REMARK    5  A    between atoms: C_10  and  C_11
REMARK    6  A    between atoms: N_13  and  C_14
REMARK    7  A    between atoms: C_14  and  C_15
REMARK    8  A    between atoms: N_17  and  C_18
REMARK                            x       y       z     vdW  Elec       q    Type
REMARK                         _______ _______ _______ _____ _____    ______ ____
ROOT
ATOM      1  C   UNL     1       6.083   1.887   0.034  0.00  0.00    +0.213 C 
ENDROOT
BRANCH   1   5
ATOM      2  C   UNL     1       9.106  -0.231  -0.381  0.00  0.00    +0.138 C 
ATOM      3  C   UNL     1       7.930   0.542  -0.945  0.00  0.00    +0.251 C 
ATOM      4  O   UNL     1       7.630   0.669  -2.113  0.00  0.00    -0.272 OA
ATOM      5  N   UNL     1       7.289   1.060   0.121  0.00  0.00    -0.215 N 
ATOM      6  C   UNL     1       7.892   0.729   1.268  0.00  0.00    +0.310 C 
ATOM      7  O   UNL     1       7.501   1.082   2.364  0.00  0.00    -0.252 OA
ATOM      8  N   UNL     1       8.979  -0.041   1.074  0.00  0.00    -0.281 N 
ATOM      9  H   UNL     1       9.565  -0.399   1.759  0.00  0.00    +0.152 HD
BRANCH   2  10
ATOM     10  C   UNL     1       9.000  -1.691  -0.737  0.00  0.00    -0.015 A 
ATOM     11  C   UNL     1       9.575  -2.162  -1.903  0.00  0.00    +0.006 A 
ATOM     12  C   UNL     1       9.482  -3.503  -2.227  0.00  0.00    +0.000 A 
ATOM     13  C   UNL     1       8.806  -4.371  -1.389  0.00  0.00    +0.000 A 
ATOM     14  C   UNL     1       8.227  -3.899  -0.226  0.00  0.00    +0.000 A 
ATOM     15  C   UNL     1       8.324  -2.559   0.100  0.00  0.00    +0.006 A 
ENDBRANCH   2  10
BRANCH   2  17
ATOM     16  C   UNL     1      10.590   1.779  -0.365  0.00  0.00    +0.007 C 
ATOM     17  C   UNL     1      10.427   0.351  -0.889  0.00  0.00    +0.037 C 
ENDBRANCH   2  17
ENDBRANCH   1   5
BRANCH   1  18
ATOM     18  C   UNL     1       4.863   1.004   0.085  0.00  0.00    +0.231 C 
ATOM     19  O   UNL     1       4.988  -0.198   0.184  0.00  0.00    -0.274 OA
ATOM     20  N   UNL     1       3.633   1.551   0.021  0.00  0.00    -0.305 N 
ATOM     21  H   UNL     1       3.533   2.512  -0.059  0.00  0.00    +0.149 HD
BRANCH  20  22
ATOM     22  C   UNL     1       2.446   0.692   0.070  0.00  0.00    +0.200 C 
BRANCH  22  23
ATOM     23  C   UNL     1       1.206   1.544  -0.019  0.00  0.00    +0.234 C 
ATOM     24  O   UNL     1       1.304   2.749  -0.115  0.00  0.00    -0.274 OA
ATOM     25  N   UNL     1      -0.011   0.966   0.007  0.00  0.00    -0.283 N 
ATOM     26  H   UNL     1      -0.089  -0.001   0.018  0.00  0.00    +0.155 HD
BRANCH  25  27
ATOM     27  C   UNL     1      -1.163   1.761   0.013  0.00  0.00    +0.047 A 
ATOM     28  C   UNL     1      -1.185   2.959  -0.688  0.00  0.00    +0.024 A 
ATOM     29  C   UNL     1      -2.325   3.740  -0.684  0.00  0.00    +0.002 A 
ATOM     30  C   UNL     1      -3.440   3.333   0.025  0.00  0.00    +0.001 A 
ATOM     31  C   UNL     1      -3.421   2.143   0.729  0.00  0.00    +0.017 A 
ATOM     32  C   UNL     1      -2.285   1.355   0.725  0.00  0.00    +0.039 A 
ATOM     33 BR   UNL     1      -2.259  -0.272   1.688  0.00  0.00    -0.048 Br
ENDBRANCH  25  27
ENDBRANCH  22  23
ENDBRANCH  20  22
ENDBRANCH   1  18
TORSDOF 7
