REMARK  Name = ZINC09780760
REMARK  11 active torsions:
REMARK  status: ('A' for Active; 'I' for Inactive)
REMARK    1  A    between atoms: C_1  and  C_2
REMARK    2  A    between atoms: C_3  and  C_36
REMARK    3  A    between atoms: C_5  and  N_13
REMARK    4  A    between atoms: C_6  and  C_7
REMARK    5  A    between atoms: C_7  and  O_9
REMARK    6  A    between atoms: O_9  and  C_10
REMARK    7  A    between atoms: C_10  and  C_11
REMARK    8  A    between atoms: C_10  and  C_12
REMARK    9  A    between atoms: C_14  and  C_16
REMARK   10  A    between atoms: C_21  and  C_32
REMARK   11  A    between atoms: C_24  and  C_27
REMARK                            x       y       z     vdW  Elec       q    Type
REMARK                         _______ _______ _______ _____ _____    ______ ____
ROOT
ATOM      1  C   UNL     1       0.089  -5.449   2.824  0.00  0.00    +0.149 A 
ATOM      2  C   UNL     1       0.113  -6.849   2.630  0.00  0.00    +0.078 A 
ATOM      3  C   UNL     1       0.126  -7.428   3.846  0.00  0.00    +0.119 A 
ATOM      4  N   UNL     1       0.107  -6.439   4.789  0.00  0.00    -0.238 N 
ATOM      5  N   UNL     1       0.092  -5.214   4.124  0.00  0.00    -0.164 NA
ATOM      6  C   UNL     1       0.109  -6.692   6.233  0.00  0.00    +0.215 C 
ATOM      7  C   UNL     1      -0.347  -8.133   6.484  0.00  0.00    +0.063 C 
ATOM      8  C   UNL     1       0.449  -9.096   5.596  0.00  0.00    +0.111 C 
ATOM      9  N   UNL     1       0.153  -8.784   4.184  0.00  0.00    -0.322 N 
ATOM     10  H   UNL     1      -0.013  -9.480   3.528  0.00  0.00    +0.148 HD
ENDROOT
BRANCH   8  11
ATOM     11  C   UNL     1       1.923  -8.924   5.858  0.00  0.00    +0.010 A 
ATOM     12  C   UNL     1       2.748  -9.683   6.619  0.00  0.00    +0.013 A 
ATOM     13  C   UNL     1       4.082  -9.333   6.715  0.00  0.00    +0.008 A 
ATOM     14  C   UNL     1       4.525  -8.241   6.045  0.00  0.00    +0.045 A 
ATOM     15  S   UNL     1       3.036  -7.673   5.240  0.00  0.00    -0.100 S 
ENDBRANCH   8  11
BRANCH   1  17
ATOM     16  N   UNL     1       0.054  -3.118   2.080  0.00  0.00    -0.274 N 
ATOM     17  C   UNL     1       0.070  -4.427   1.758  0.00  0.00    +0.269 C 
ATOM     18  O   UNL     1       0.070  -4.766   0.591  0.00  0.00    -0.268 OA
ATOM     19  H   UNL     1       0.054  -2.848   3.011  0.00  0.00    +0.156 HD
BRANCH  16  24
ATOM     20  C   UNL     1      -0.018   1.503   0.010  0.00  0.00    +0.045 C 
ATOM     21  C   UNL     1       0.002  -0.004   0.002  0.00  0.00    -0.025 A 
ATOM     22  C   UNL     1       0.006  -0.712  -1.142  0.00  0.00    -0.008 A 
ATOM     23  S   UNL     1       0.032  -2.400  -0.580  0.00  0.00    -0.078 S 
ATOM     24  C   UNL     1       0.036  -2.159   1.081  0.00  0.00    +0.087 A 
ATOM     25  C   UNL     1       0.024  -0.778   1.223  0.00  0.00    +0.091 A 
ATOM     26  C   UNL     1      -0.007  -0.199  -2.559  0.00  0.00    +0.052 C 
BRANCH  25  27
ATOM     27  C   UNL     1       0.028  -0.139   2.540  0.00  0.00    +0.342 C 
ATOM     28  O   UNL     1      -1.024   0.112   3.097  0.00  0.00    -0.245 OA
BRANCH  27  29
ATOM     29  O   UNL     1       1.198   0.171   3.136  0.00  0.00    -0.458 OA
BRANCH  29  30
ATOM     30  C   UNL     1       1.127   0.793   4.420  0.00  0.00    +0.171 C 
ATOM     31  C   UNL     1       2.361   0.411   5.241  0.00  0.00    +0.052 C 
ATOM     32  C   UNL     1       1.078   2.312   4.250  0.00  0.00    +0.052 C 
ENDBRANCH  29  30
ENDBRANCH  27  29
ENDBRANCH  25  27
ENDBRANCH  16  24
ENDBRANCH   1  17
BRANCH   6  33
ATOM     33  C   UNL     1      -0.850  -5.720   6.924  0.00  0.00    +0.412 C 
ATOM     34  F   UNL     1      -2.142  -5.903   6.421  0.00  0.00    -0.168 F 
ATOM     35  F   UNL     1      -0.847  -5.963   8.302  0.00  0.00    -0.168 F 
ATOM     36  F   UNL     1      -0.436  -4.406   6.681  0.00  0.00    -0.168 F 
ENDBRANCH   6  33
TORSDOF 7
