REMARK  Name = ZINC19758805
REMARK  5 active torsions:
REMARK  status: ('A' for Active; 'I' for Inactive)
REMARK    1  A    between atoms: C_1  and  N_2
REMARK    2  A    between atoms: C_10  and  N_16
REMARK    3  A    between atoms: C_12  and  S_14
REMARK    4  A    between atoms: S_14  and  C_15
REMARK    5  A    between atoms: N_16  and  N_17
REMARK                            x       y       z     vdW  Elec       q    Type
REMARK                         _______ _______ _______ _____ _____    ______ ____
ROOT
ATOM      1  C   UNL     1       0.977  -8.137  -1.712  0.00  0.00    +0.105 C 
ATOM      2  N   UNL     1       0.711  -6.799  -1.167  0.00  0.00    -0.300 NA
ATOM      3  C   UNL     1      -0.558  -6.265  -1.680  0.00  0.00    +0.089 C 
ATOM      4  C   UNL     1      -1.003  -5.067  -0.837  0.00  0.00    +0.052 C 
ATOM      5  C   UNL     1       0.162  -4.085  -0.750  0.00  0.00    -0.022 A 
ATOM      6  C   UNL     1       1.412  -4.498  -1.046  0.00  0.00    +0.010 A 
ATOM      7  S   UNL     1       2.435  -3.070  -0.824  0.00  0.00    -0.072 S 
ATOM      8  C   UNL     1       1.180  -1.916  -0.332  0.00  0.00    +0.115 A 
ATOM      9  C   UNL     1      -0.001  -2.685  -0.358  0.00  0.00    +0.052 A 
ATOM     10  C   UNL     1      -1.191  -1.993   0.003  0.00  0.00    +0.145 A 
ATOM     11  N   UNL     1      -1.121  -0.714   0.330  0.00  0.00    -0.205 NA
ATOM     12  C   UNL     1       0.028  -0.048   0.334  0.00  0.00    +0.191 A 
ATOM     13  N   UNL     1       1.167  -0.640   0.002  0.00  0.00    -0.215 NA
ATOM     14  C   UNL     1       1.821  -5.876  -1.468  0.00  0.00    +0.126 C 
ENDROOT
BRANCH  12  15
ATOM     15  S   UNL     1       0.038   1.657   0.781  0.00  0.00    -0.089 S 
ATOM     16  C   UNL     1       1.804   2.015   0.613  0.00  0.00    +0.093 C 
ENDBRANCH  12  15
BRANCH  10  17
ATOM     17  N   UNL     1      -2.407  -2.651   0.010  0.00  0.00    -0.267 N 
ATOM     18  H   UNL     1      -2.441  -3.747  -0.078  0.00  0.00    +0.167 HD
BRANCH  17  19
ATOM     19  N   UNL     1      -3.568  -1.940   0.128  0.00  0.00    -0.255 NA
ATOM     20  H   UNL     1      -4.424  -2.630   0.115  0.00  0.00    +0.140 HD
ATOM     21  H   UNL     1      -3.561  -1.382   1.076  0.00  0.00    +0.140 HD
ENDBRANCH  17  19
ENDBRANCH  10  17
TORSDOF 3
