REMARK  Name = ZINC35532551
REMARK  6 active torsions:
REMARK  status: ('A' for Active; 'I' for Inactive)
REMARK    1  A    between atoms: C_6  and  N_7
REMARK    2  A    between atoms: C_8  and  C_10
REMARK    3  A    between atoms: C_10  and  S_11
REMARK    4  A    between atoms: S_11  and  C_12
REMARK    5  A    between atoms: N_24  and  C_25
REMARK    6  A    between atoms: C_25  and  C_26
REMARK                            x       y       z     vdW  Elec       q    Type
REMARK                         _______ _______ _______ _____ _____    ______ ____
ROOT
ATOM      1  C   UNL     1      -6.460  -0.747   0.523  0.00  0.00    +0.198 A 
ATOM      2  N   UNL     1      -6.449  -2.058   0.522  0.00  0.00    -0.120 NA
ATOM      3  N   UNL     1      -7.770  -2.504   0.647  0.00  0.00    -0.109 NA
ATOM      4  C   UNL     1      -8.550  -1.449   0.721  0.00  0.00    +0.240 A 
ATOM      5  N   UNL     1      -7.759  -0.339   0.651  0.00  0.00    -0.255 N 
ATOM      6  C   UNL     1      -8.319   0.950   0.709  0.00  0.00    +0.071 A 
ATOM      7  C   UNL     1      -7.694   2.192   0.652  0.00  0.00    +0.035 A 
ATOM      8  C   UNL     1      -8.435   3.319   0.727  0.00  0.00    +0.048 A 
ATOM      9  S   UNL     1     -10.016   2.769   0.879  0.00  0.00    -0.090 S 
ATOM     10  C   UNL     1      -9.705   1.024   0.845  0.00  0.00    +0.101 A 
ATOM     11  C   UNL     1     -10.505  -0.124   0.919  0.00  0.00    +0.270 A 
ATOM     12  O   UNL     1     -11.713  -0.023   1.037  0.00  0.00    -0.266 OA
ATOM     13  N   UNL     1      -9.927  -1.343   0.851  0.00  0.00    -0.274 N 
ENDROOT
BRANCH   1  14
ATOM     14  S   UNL     1      -5.052   0.303   0.389  0.00  0.00    -0.076 S 
BRANCH  14  15
ATOM     15  C   UNL     1      -3.657  -0.849   0.249  0.00  0.00    +0.173 C 
BRANCH  15  17
ATOM     16  N   UNL     1      -1.199  -0.722   0.010  0.00  0.00    -0.285 N 
ATOM     17  C   UNL     1      -2.373  -0.071   0.127  0.00  0.00    +0.227 C 
ATOM     18  O   UNL     1      -2.396   1.142   0.134  0.00  0.00    -0.275 OA
ATOM     19  H   UNL     1      -1.186  -1.689  -0.072  0.00  0.00    +0.155 HD
BRANCH  16  25
ATOM     20  C   UNL     1       0.122   1.156   0.761  0.00  0.00    +0.023 A 
ATOM     21  C   UNL     1       1.309   1.860   0.755  0.00  0.00    +0.006 A 
ATOM     22  C   UNL     1       2.382   1.414   0.002  0.00  0.00    -0.044 A 
ATOM     23  C   UNL     1       2.266   0.258  -0.750  0.00  0.00    -0.042 A 
ATOM     24  C   UNL     1       1.078  -0.450  -0.747  0.00  0.00    +0.027 A 
ATOM     25  C   UNL     1       0.002  -0.004   0.008  0.00  0.00    +0.034 A 
ATOM     26  C   UNL     1       3.567  -0.011  -1.477  0.00  0.00    +0.036 C 
ATOM     27  C   UNL     1       4.336   1.326  -1.438  0.00  0.00    +0.009 C 
ATOM     28  C   UNL     1       3.768   1.998  -0.170  0.00  0.00    +0.036 C 
ENDBRANCH  16  25
ENDBRANCH  15  17
ENDBRANCH  14  15
ENDBRANCH   1  14
BRANCH  13  29
ATOM     29  C   UNL     1     -10.752  -2.551   0.929  0.00  0.00    +0.160 C 
BRANCH  29  30
ATOM     30  C   UNL     1     -10.903  -2.971   2.393  0.00  0.00    +0.138 C 
ATOM     31  C   UNL     1     -11.668  -4.309   2.477  0.00  0.00    +0.035 C 
ATOM     32  C   UNL     1     -12.574  -4.093   3.720  0.00  0.00    +0.031 C 
ATOM     33  C   UNL     1     -12.879  -2.579   3.602  0.00  0.00    +0.160 C 
ATOM     34  O   UNL     1     -11.666  -1.989   3.104  0.00  0.00    -0.375 OA
ENDBRANCH  29  30
ENDBRANCH  13  29
TORSDOF 6
