REMARK  Name = ZINC40284043
REMARK  9 active torsions:
REMARK  status: ('A' for Active; 'I' for Inactive)
REMARK    1  A    between atoms: C_1  and  C_2
REMARK    2  A    between atoms: C_5  and  N_9
REMARK    3  A    between atoms: C_6  and  C_8
REMARK    4  A    between atoms: N_12  and  C_15
REMARK    5  A    between atoms: C_15  and  C_17
REMARK    6  A    between atoms: C_15  and  C_31
REMARK    7  A    between atoms: C_24  and  O_27
REMARK    8  A    between atoms: O_27  and  C_28
REMARK    9  A    between atoms: C_28  and  C_29
REMARK                            x       y       z     vdW  Elec       q    Type
REMARK                         _______ _______ _______ _____ _____    ______ ____
ROOT
ATOM      1  C   UNL     1       0.107  -7.875   1.919  0.00  0.00    +0.080 C 
ENDROOT
BRANCH   1   2
ATOM      2  C   UNL     1       1.352  -8.707   1.744  0.00  0.00    -0.025 A 
ATOM      3  C   UNL     1       2.119  -8.775   0.645  0.00  0.00    +0.086 A 
ATOM      4  N   UNL     1       3.163  -9.633   0.857  0.00  0.00    -0.360 N 
ATOM      5  H   UNL     1       3.852  -9.844   0.207  0.00  0.00    +0.165 HD
ATOM      6  C   UNL     1       3.091 -10.152   2.133  0.00  0.00    +0.047 A 
ATOM      7  C   UNL     1       1.956  -9.590   2.745  0.00  0.00    +0.005 A 
ATOM      8  C   UNL     1       1.630  -9.932   4.059  0.00  0.00    +0.056 A 
ATOM      9  C   UNL     1       2.429 -10.821   4.750  0.00  0.00    +0.123 A 
ATOM     10  C   UNL     1       3.553 -11.374   4.143  0.00  0.00    +0.048 A 
ATOM     11  C   UNL     1       3.880 -11.049   2.845  0.00  0.00    +0.030 A 
BRANCH   9  12
ATOM     12  O   UNL     1       2.116 -11.159   6.030  0.00  0.00    -0.477 OA
BRANCH  12  13
ATOM     13  C   UNL     1       2.985 -12.084   6.688  0.00  0.00    +0.346 C 
BRANCH  13  14
ATOM     14  C   UNL     1       2.495 -12.329   8.054  0.00  0.00    +0.104 C 
ATOM     15  N   UNL     1       2.117 -12.519   9.108  0.00  0.00    -0.193 NA
ENDBRANCH  13  14
ENDBRANCH  12  13
ENDBRANCH   9  12
ENDBRANCH   1   2
BRANCH   1  19
ATOM     16  N   UNL     1       0.058  -4.167  -0.021  0.00  0.00    -0.333 N 
ATOM     17  C   UNL     1      -1.194  -4.940  -0.025  0.00  0.00    +0.086 C 
ATOM     18  C   UNL     1      -1.120  -5.990   1.089  0.00  0.00    -0.058 C 
ATOM     19  N   UNL     1       0.093  -6.800   0.918  0.00  0.00    +0.394 N 
ATOM     20  C   UNL     1       1.284  -5.958   1.088  0.00  0.00    -0.058 C 
ATOM     21  C   UNL     1       1.330  -4.907  -0.031  0.00  0.00    +0.086 C 
ATOM     22  H   UNL     1       0.098  -7.204  -0.007  0.00  0.00    -0.080 HD
BRANCH  16  27
ATOM     23  C   UNL     1      -0.018   1.503   0.010  0.00  0.00    +0.044 C 
ATOM     24  C   UNL     1       0.002  -0.004   0.002  0.00  0.00    -0.050 A 
ATOM     25  C   UNL     1       0.006  -0.687  -1.200  0.00  0.00    +0.005 A 
ATOM     26  C   UNL     1       0.024  -2.068  -1.212  0.00  0.00    +0.023 A 
ATOM     27  C   UNL     1       0.040  -2.771  -0.013  0.00  0.00    +0.033 A 
ATOM     28  C   UNL     1       0.036  -2.081   1.192  0.00  0.00    -0.029 A 
ATOM     29  C   UNL     1       0.023  -0.700   1.196  0.00  0.00    +0.008 A 
ATOM     30  C   UNL     1       0.052  -2.839   2.495  0.00  0.00    +0.045 C 
ENDBRANCH  16  27
ENDBRANCH   1  19
BRANCH   1  31
ATOM     31  C   UNL     1      -1.109  -8.746   1.738  0.00  0.00    +0.347 C 
ATOM     32  O   UNL     1      -1.815  -8.611   0.753  0.00  0.00    -0.248 OA
ATOM     33  O   UNL     1      -1.387  -9.586   2.576  0.00  0.00    -0.248 OA
ENDBRANCH   1  31
TORSDOF 7
