REMARK  Name = ZINC33937169
REMARK  12 active torsions:
REMARK  status: ('A' for Active; 'I' for Inactive)
REMARK    1  A    between atoms: C_1  and  C_2
REMARK    2  A    between atoms: C_2  and  C_3
REMARK    3  A    between atoms: C_3  and  C_5
REMARK    4  A    between atoms: C_3  and  N_17
REMARK    5  A    between atoms: N_9  and  C_10
REMARK    6  A    between atoms: C_10  and  C_11
REMARK    7  A    between atoms: N_17  and  C_18
REMARK    8  A    between atoms: N_17  and  C_26
REMARK    9  A    between atoms: C_18  and  C_19
REMARK   10  A    between atoms: C_19  and  C_20
REMARK   11  A    between atoms: C_26  and  C_27
REMARK   12  A    between atoms: C_33  and  C_39
REMARK                            x       y       z     vdW  Elec       q    Type
REMARK                         _______ _______ _______ _____ _____    ______ ____
ROOT
ATOM      1  N   UNL     1      -2.203  -0.054   1.382  0.00  0.00    +0.389 N 
ATOM      2  H   UNL     1      -1.654  -0.386   2.160  0.00  0.00    -0.080 HD
ENDROOT
BRANCH   1   3
ATOM      3  C   UNL     1      -1.479  -0.308   0.129  0.00  0.00    +0.003 C 
BRANCH   3   4
ATOM      4  C   UNL     1      -0.009  -0.048   0.336  0.00  0.00    +0.138 A 
ATOM      5  N   UNL     1       0.524   0.975   0.958  0.00  0.00    -0.115 NA
ATOM      6  N   UNL     1       1.805   0.837   0.925  0.00  0.00    -0.023 NA
ATOM      7  N   UNL     1       2.102  -0.247   0.298  0.00  0.00    -0.044 NA
ATOM      8  N   UNL     1       1.010  -0.824  -0.076  0.00  0.00    -0.228 N 
BRANCH   8   9
ATOM      9  C   UNL     1       0.901  -2.085  -0.814  0.00  0.00    +0.178 C 
BRANCH   9  10
ATOM     10  C   UNL     1       0.911  -1.799  -2.317  0.00  0.00    +0.140 C 
ATOM     11  C   UNL     1       0.887  -3.126  -3.117  0.00  0.00    +0.035 C 
ATOM     12  C   UNL     1       0.265  -2.650  -4.458  0.00  0.00    +0.031 C 
ATOM     13  C   UNL     1      -0.718  -1.554  -3.992  0.00  0.00    +0.160 C 
ATOM     14  O   UNL     1      -0.287  -1.106  -2.700  0.00  0.00    -0.375 OA
ENDBRANCH   9  10
ENDBRANCH   8   9
ENDBRANCH   3   4
BRANCH   3  16
ATOM     15  C   UNL     1      -3.463   0.255  -1.282  0.00  0.00    +0.002 C 
ATOM     16  C   UNL     1      -2.012   0.621  -0.965  0.00  0.00    -0.011 C 
ENDBRANCH   3  16
ENDBRANCH   1   3
BRANCH   1  17
ATOM     17  C   UNL     1      -3.491  -0.761   1.355  0.00  0.00    -0.073 C 
BRANCH  17  18
ATOM     18  C   UNL     1      -3.244  -2.270   1.327  0.00  0.00    +0.016 C 
BRANCH  18  19
ATOM     19  C   UNL     1      -4.565  -2.994   1.269  0.00  0.00    -0.049 A 
ATOM     20  C   UNL     1      -5.210  -3.349   2.439  0.00  0.00    +0.003 A 
ATOM     21  C   UNL     1      -6.422  -4.013   2.386  0.00  0.00    +0.000 A 
ATOM     22  C   UNL     1      -6.987  -4.322   1.163  0.00  0.00    +0.000 A 
ATOM     23  C   UNL     1      -6.342  -3.966  -0.007  0.00  0.00    +0.000 A 
ATOM     24  C   UNL     1      -5.133  -3.299   0.046  0.00  0.00    +0.003 A 
ENDBRANCH  18  19
ENDBRANCH  17  18
ENDBRANCH   1  17
BRANCH   1  25
ATOM     25  C   UNL     1      -2.439   1.388   1.528  0.00  0.00    -0.037 C 
BRANCH  25  26
ATOM     26  C   UNL     1      -3.039   1.664   2.883  0.00  0.00    +0.001 A 
ATOM     27  C   UNL     1      -2.237   2.023   3.916  0.00  0.00    +0.017 A 
ATOM     28  C   UNL     1      -2.851   2.285   5.219  0.00  0.00    -0.001 A 
ATOM     29  C   UNL     1      -2.076   2.660   6.322  0.00  0.00    +0.010 A 
ATOM     30  C   UNL     1      -2.680   2.897   7.524  0.00  0.00    +0.001 A 
ATOM     31  C   UNL     1      -4.056   2.770   7.661  0.00  0.00    +0.005 A 
ATOM     32  C   UNL     1      -4.839   2.402   6.588  0.00  0.00    -0.026 A 
ATOM     33  C   UNL     1      -4.246   2.156   5.354  0.00  0.00    +0.052 A 
ATOM     34  N   UNL     1      -5.005   1.787   4.264  0.00  0.00    -0.322 N 
ATOM     35  H   UNL     1      -5.967   1.698   4.359  0.00  0.00    +0.169 HD
ATOM     36  C   UNL     1      -4.433   1.554   3.070  0.00  0.00    +0.251 A 
ATOM     37  O   UNL     1      -5.136   1.234   2.126  0.00  0.00    -0.268 OA
ATOM     38  C   UNL     1      -6.330   2.267   6.752  0.00  0.00    +0.046 C 
ENDBRANCH  25  26
ENDBRANCH   1  25
TORSDOF 10
