REMARK  Name = ZINC09330865
REMARK  8 active torsions:
REMARK  status: ('A' for Active; 'I' for Inactive)
REMARK    1  A    between atoms: C_4  and  C_7
REMARK    2  A    between atoms: C_7  and  N_8
REMARK    3  A    between atoms: C_9  and  C_28
REMARK    4  A    between atoms: C_12  and  S_13
REMARK    5  A    between atoms: S_13  and  C_14
REMARK    6  A    between atoms: C_14  and  C_15
REMARK    7  A    between atoms: N_17  and  N_18
REMARK    8  A    between atoms: C_19  and  C_21
REMARK                            x       y       z     vdW  Elec       q    Type
REMARK                         _______ _______ _______ _____ _____    ______ ____
ROOT
ATOM      1  N   UNL     1       8.998   1.567   0.092  0.00  0.00    -0.298 N 
ATOM      2  C   UNL     1       9.798   0.452   0.005  0.00  0.00    +0.168 A 
ATOM      3  N   UNL     1       9.005  -0.579  -0.172  0.00  0.00    -0.128 NA
ATOM      4  N   UNL     1       7.780  -0.191  -0.197  0.00  0.00    -0.122 NA
ATOM      5  C   UNL     1       7.717   1.113  -0.045  0.00  0.00    +0.193 A 
ENDROOT
BRANCH   2   6
ATOM      6  C   UNL     1      11.273   0.420   0.094  0.00  0.00    +0.054 A 
ATOM      7  C   UNL     1      12.041   1.312  -0.656  0.00  0.00    +0.014 A 
ATOM      8  C   UNL     1      13.417   1.277  -0.568  0.00  0.00    +0.001 A 
ATOM      9  C   UNL     1      14.038   0.360   0.262  0.00  0.00    +0.003 A 
ATOM     10  C   UNL     1      13.286  -0.528   1.009  0.00  0.00    +0.039 A 
ATOM     11  C   UNL     1      11.906  -0.500   0.935  0.00  0.00    +0.134 A 
ATOM     12  F   UNL     1      11.171  -1.364   1.669  0.00  0.00    -0.205 F 
ENDBRANCH   2   6
BRANCH   1  13
ATOM     13  C   UNL     1       9.429   2.953   0.290  0.00  0.00    +0.161 C 
BRANCH  13  17
ATOM     14  C   UNL     1       9.641   3.793   4.473  0.00  0.00    +0.000 A 
ATOM     15  C   UNL     1      10.749   3.300   3.810  0.00  0.00    +0.000 A 
ATOM     16  C   UNL     1      10.681   3.028   2.457  0.00  0.00    +0.005 A 
ATOM     17  C   UNL     1       9.504   3.249   1.766  0.00  0.00    -0.028 A 
ATOM     18  C   UNL     1       8.397   3.747   2.428  0.00  0.00    +0.005 A 
ATOM     19  C   UNL     1       8.464   4.015   3.783  0.00  0.00    +0.000 A 
ENDBRANCH  13  17
ENDBRANCH   1  13
BRANCH   5  20
ATOM     20  S   UNL     1       6.252   2.092  -0.016  0.00  0.00    -0.077 S 
BRANCH  20  21
ATOM     21  C   UNL     1       5.006   0.801  -0.254  0.00  0.00    +0.174 C 
BRANCH  21  22
ATOM     22  C   UNL     1       3.634   1.423  -0.264  0.00  0.00    +0.239 C 
ATOM     23  O   UNL     1       3.510   2.622  -0.123  0.00  0.00    -0.273 OA
ATOM     24  N   UNL     1       2.543   0.648  -0.428  0.00  0.00    -0.233 N 
ATOM     25  H   UNL     1       2.642  -0.310  -0.541  0.00  0.00    +0.173 HD
BRANCH  24  26
ATOM     26  N   UNL     1       1.267   1.226  -0.437  0.00  0.00    -0.230 N 
ATOM     27  C   UNL     1       0.177   0.451  -0.602  0.00  0.00    +0.260 C 
ATOM     28  O   UNL     1       0.301  -0.750  -0.743  0.00  0.00    -0.269 OA
ATOM     29  H   UNL     1       1.168   2.185  -0.325  0.00  0.00    +0.173 HD
BRANCH  27  30
ATOM     30  C   UNL     1      -1.168   1.062  -0.617  0.00  0.00    +0.038 A 
ATOM     31  C   UNL     1      -1.314   2.440  -0.450  0.00  0.00    +0.014 A 
ATOM     32  C   UNL     1      -2.572   3.005  -0.472  0.00  0.00    +0.021 A 
ATOM     33  C   UNL     1      -3.690   2.207  -0.647  0.00  0.00    +0.041 A 
ATOM     34  C   UNL     1      -3.552   0.838  -0.807  0.00  0.00    +0.021 A 
ATOM     35  C   UNL     1      -2.299   0.262  -0.793  0.00  0.00    +0.014 A 
ATOM     36 CL   UNL     1      -5.271   2.924  -0.665  0.00  0.00    -0.084 Cl
ENDBRANCH  27  30
ENDBRANCH  24  26
ENDBRANCH  21  22
ENDBRANCH  20  21
ENDBRANCH   5  20
TORSDOF 8
