REMARK  Name = ZINC51998734
REMARK  7 active torsions:
REMARK  status: ('A' for Active; 'I' for Inactive)
REMARK    1  A    between atoms: C_1  and  C_2
REMARK    2  A    between atoms: C_2  and  O_3
REMARK    3  A    between atoms: O_3  and  C_4
REMARK    4  A    between atoms: C_5  and  N_20
REMARK    5  A    between atoms: C_8  and  N_10
REMARK    6  A    between atoms: N_10  and  C_11
REMARK    7  A    between atoms: C_17  and  O_19
REMARK                            x       y       z     vdW  Elec       q    Type
REMARK                         _______ _______ _______ _____ _____    ______ ____
ROOT
ATOM      1  C   UNL     1      -1.498  -1.847   0.006  0.00  0.00    +0.238 A 
ATOM      2  C   UNL     1      -2.781  -2.390   0.010  0.00  0.00    +0.087 A 
ATOM      3  C   UNL     1      -2.932  -3.772   0.004  0.00  0.00    +0.031 A 
ATOM      4  C   UNL     1      -1.793  -4.561  -0.006  0.00  0.00    +0.045 A 
ATOM      5  C   UNL     1      -0.545  -3.953  -0.009  0.00  0.00    +0.123 A 
ATOM      6  N   UNL     1      -0.434  -2.632  -0.008  0.00  0.00    -0.197 NA
ENDROOT
BRANCH   2   7
ATOM      7  N   UNL     1      -3.907  -1.552   0.020  0.00  0.00    -0.354 N 
ATOM      8  H   UNL     1      -3.795  -0.589   0.025  0.00  0.00    +0.142 HD
ATOM      9  H   UNL     1      -4.798  -1.937   0.023  0.00  0.00    +0.142 HD
ENDBRANCH   2   7
BRANCH   5  10
ATOM     10  N   UNL     1       0.605  -4.740  -0.018  0.00  0.00    -0.324 N 
ATOM     11  H   UNL     1       1.479  -4.321  -0.021  0.00  0.00    +0.148 HD
BRANCH  10  12
ATOM     12  C   UNL     1       0.492  -6.200  -0.025  0.00  0.00    +0.100 C 
ATOM     13  C   UNL     1       0.321  -6.692  -1.464  0.00  0.00    +0.025 C 
ATOM     14  C   UNL     1       0.203  -8.218  -1.470  0.00  0.00    +0.002 C 
ATOM     15  C   UNL     1       1.470  -8.829  -0.870  0.00  0.00    +0.003 C 
ATOM     16  C   UNL     1       1.642  -8.338   0.569  0.00  0.00    +0.033 C 
ATOM     17  C   UNL     1       1.759  -6.812   0.576  0.00  0.00    +0.135 C 
BRANCH  17  18
ATOM     18  O   UNL     1       2.893  -6.418  -0.201  0.00  0.00    -0.390 OA
ATOM     19  H   UNL     1       3.733  -6.771   0.123  0.00  0.00    +0.210 HD
ENDBRANCH  17  18
ENDBRANCH  10  12
ENDBRANCH   5  10
BRANCH   1  20
ATOM     20  O   UNL     1      -1.339  -0.499   0.012  0.00  0.00    -0.475 OA
BRANCH  20  22
ATOM     21  C   UNL     1      -0.019   1.526   0.010  0.00  0.00    +0.048 C 
ATOM     22  C   UNL     1       0.002  -0.004   0.002  0.00  0.00    +0.227 C 
ENDBRANCH  20  22
ENDBRANCH   1  20
TORSDOF 6
