REMARK  Name = ZINC21398848
REMARK  10 active torsions:
REMARK  status: ('A' for Active; 'I' for Inactive)
REMARK    1  A    between atoms: C_1  and  C_2
REMARK    2  A    between atoms: C_2  and  C_4
REMARK    3  A    between atoms: C_2  and  S_20
REMARK    4  A    between atoms: N_9  and  C_10
REMARK    5  A    between atoms: S_20  and  C_21
REMARK    6  A    between atoms: N_31  and  C_32
REMARK    7  A    between atoms: C_32  and  C_33
REMARK    8  A    between atoms: C_33  and  C_34
REMARK    9  A    between atoms: C_34  and  O_35
REMARK   10  A    between atoms: O_35  and  C_36
REMARK                            x       y       z     vdW  Elec       q    Type
REMARK                         _______ _______ _______ _____ _____    ______ ____
ROOT
ATOM      1  C   UNL     1       0.631  -0.513   1.301  0.00  0.00    +0.029 C 
ATOM      2  C   UNL     1       0.002  -0.004   0.002  0.00  0.00    +0.137 C 
ENDROOT
BRANCH   2   3
ATOM      3  C   UNL     1      -1.407  -0.525  -0.111  0.00  0.00    +0.233 C 
ATOM      4  O   UNL     1      -2.343   0.189   0.181  0.00  0.00    -0.274 OA
ATOM      5  N   UNL     1      -1.628  -1.784  -0.537  0.00  0.00    -0.239 N 
ATOM      6  C   UNL     1      -2.889  -2.250  -0.638  0.00  0.00    +0.306 C 
ATOM      7  O   UNL     1      -3.827  -1.535  -0.345  0.00  0.00    -0.252 OA
ATOM      8  N   UNL     1      -3.110  -3.510  -1.064  0.00  0.00    -0.294 N 
ATOM      9  H   UNL     1      -0.780  -2.432  -0.802  0.00  0.00    +0.159 HD
ATOM     10  H   UNL     1      -2.261  -4.158  -1.329  0.00  0.00    +0.151 HD
BRANCH   8  11
ATOM     11  C   UNL     1      -4.480  -4.016  -1.174  0.00  0.00    +0.037 C 
ATOM     12  C   UNL     1      -5.154  -3.967   0.199  0.00  0.00    +0.029 C 
ATOM     13  C   UNL     1      -6.585  -4.495   0.084  0.00  0.00    -0.008 C 
ATOM     14  C   UNL     1      -6.556  -5.941  -0.418  0.00  0.00    +0.007 C 
ATOM     15  C   UNL     1      -5.882  -5.990  -1.791  0.00  0.00    -0.008 C 
ATOM     16  C   UNL     1      -4.451  -5.461  -1.676  0.00  0.00    +0.029 C 
ATOM     17  C   UNL     1      -6.669  -5.123  -2.777  0.00  0.00    +0.007 C 
ATOM     18  C   UNL     1      -6.698  -3.678  -2.275  0.00  0.00    -0.008 C 
ATOM     19  C   UNL     1      -7.371  -3.629  -0.902  0.00  0.00    +0.007 C 
ATOM     20  C   UNL     1      -5.266  -3.150  -2.160  0.00  0.00    +0.029 C 
ENDBRANCH   8  11
ENDBRANCH   2   3
BRANCH   2  21
ATOM     21  S   UNL     1      -0.022   1.806   0.012  0.00  0.00    -0.075 S 
BRANCH  21  22
ATOM     22  C   UNL     1       1.708   2.135  -0.003  0.00  0.00    +0.173 A 
ATOM     23  N   UNL     1       2.537   1.121  -0.016  0.00  0.00    -0.223 NA
ATOM     24  C   UNL     1       3.873   1.300  -0.028  0.00  0.00    +0.079 A 
ATOM     25  C   UNL     1       4.758   0.217  -0.042  0.00  0.00    +0.028 A 
ATOM     26  C   UNL     1       6.105   0.445  -0.053  0.00  0.00    +0.002 A 
ATOM     27  C   UNL     1       6.612   1.738  -0.051  0.00  0.00    +0.001 A 
ATOM     28  C   UNL     1       5.772   2.817  -0.037  0.00  0.00    +0.015 A 
ATOM     29  C   UNL     1       4.393   2.615  -0.026  0.00  0.00    +0.065 A 
ATOM     30  C   UNL     1       3.443   3.736  -0.011  0.00  0.00    +0.262 A 
ATOM     31  O   UNL     1       3.829   4.890  -0.008  0.00  0.00    -0.267 OA
ATOM     32  N   UNL     1       2.123   3.437  -0.005  0.00  0.00    -0.287 N 
BRANCH  32  33
ATOM     33  C   UNL     1       1.133   4.516   0.004  0.00  0.00    +0.129 C 
BRANCH  33  34
ATOM     34  C   UNL     1       0.801   4.891   1.450  0.00  0.00    +0.050 C 
BRANCH  34  35
ATOM     35  C   UNL     1      -0.234   6.018   1.460  0.00  0.00    +0.161 C 
BRANCH  35  36
ATOM     36  O   UNL     1      -0.544   6.368   2.810  0.00  0.00    -0.383 OA
ATOM     37  C   UNL     1      -1.506   7.417   2.932  0.00  0.00    +0.193 C 
ENDBRANCH  35  36
ENDBRANCH  34  35
ENDBRANCH  33  34
ENDBRANCH  32  33
ENDBRANCH  21  22
ENDBRANCH   2  21
TORSDOF 8
