REMARK  Name = ZINC39543174
REMARK  8 active torsions:
REMARK  status: ('A' for Active; 'I' for Inactive)
REMARK    1  A    between atoms: C_1  and  C_2
REMARK    2  A    between atoms: C_7  and  C_9
REMARK    3  A    between atoms: C_7  and  C_10
REMARK    4  A    between atoms: N_13  and  C_17
REMARK    5  A    between atoms: C_17  and  C_18
REMARK    6  A    between atoms: N_20  and  C_21
REMARK    7  A    between atoms: C_26  and  O_27
REMARK    8  A    between atoms: O_27  and  C_28
REMARK                            x       y       z     vdW  Elec       q    Type
REMARK                         _______ _______ _______ _____ _____    ______ ____
ROOT
ATOM      1  C   UNL     1       0.520   1.121  -1.062  0.00  0.00    +0.007 C 
ATOM      2  C   UNL     1       0.501  -0.367  -0.710  0.00  0.00    -0.011 C 
ATOM      3  C   UNL     1      -0.933  -0.895  -0.801  0.00  0.00    +0.038 C 
ATOM      4  C   UNL     1      -0.956  -2.374  -0.430  0.00  0.00    +0.113 C 
ATOM      5  C   UNL     1      -0.417  -2.585   0.980  0.00  0.00    +0.041 C 
ATOM      6  C   UNL     1       1.016  -2.051   1.065  0.00  0.00    -0.032 C 
ATOM      7  C   UNL     1       1.025  -0.562   0.715  0.00  0.00    +0.009 C 
ATOM      8  C   UNL     1       1.548  -2.244   2.486  0.00  0.00    +0.011 C 
ATOM      9  C   UNL     1       1.903  -2.813   0.079  0.00  0.00    +0.011 C 
ATOM     10  C   UNL     1      -2.358  -2.926  -0.547  0.00  0.00    +0.247 C 
ATOM     11  O   UNL     1      -3.340  -2.573   0.071  0.00  0.00    -0.273 OA
ATOM     12  N   UNL     1      -2.288  -3.893  -1.485  0.00  0.00    -0.215 N 
ATOM     13  C   UNL     1      -1.046  -4.022  -1.967  0.00  0.00    +0.310 C 
ATOM     14  O   UNL     1      -0.734  -4.828  -2.822  0.00  0.00    -0.252 OA
ATOM     15  N   UNL     1      -0.182  -3.160  -1.399  0.00  0.00    -0.285 N 
ATOM     16  H   UNL     1       0.765  -3.074  -1.593  0.00  0.00    +0.151 HD
ENDROOT
BRANCH  12  17
ATOM     17  C   UNL     1      -3.429  -4.702  -1.920  0.00  0.00    +0.214 C 
BRANCH  17  18
ATOM     18  C   UNL     1      -4.113  -4.023  -3.079  0.00  0.00    +0.235 C 
ATOM     19  O   UNL     1      -3.689  -2.967  -3.499  0.00  0.00    -0.274 OA
ATOM     20  N   UNL     1      -5.196  -4.589  -3.648  0.00  0.00    -0.281 N 
ATOM     21  H   UNL     1      -5.579  -5.394  -3.267  0.00  0.00    +0.155 HD
BRANCH  20  22
ATOM     22  C   UNL     1      -5.769  -4.013  -4.790  0.00  0.00    +0.076 A 
ATOM     23  C   UNL     1      -4.969  -3.355  -5.712  0.00  0.00    +0.027 A 
ATOM     24  C   UNL     1      -5.537  -2.788  -6.838  0.00  0.00    +0.002 A 
ATOM     25  C   UNL     1      -6.901  -2.875  -7.047  0.00  0.00    +0.004 A 
ATOM     26  C   UNL     1      -7.704  -3.530  -6.132  0.00  0.00    +0.048 A 
ATOM     27  C   UNL     1      -7.142  -4.105  -5.004  0.00  0.00    +0.148 A 
BRANCH  27  28
ATOM     28  O   UNL     1      -7.930  -4.754  -4.106  0.00  0.00    -0.432 OA
BRANCH  28  29
ATOM     29  C   UNL     1      -9.329  -4.809  -4.391  0.00  0.00    +0.541 C 
ATOM     30  F   UNL     1      -9.841  -3.510  -4.470  0.00  0.00    -0.166 F 
ATOM     31  F   UNL     1      -9.531  -5.465  -5.611  0.00  0.00    -0.166 F 
ENDBRANCH  28  29
ENDBRANCH  27  28
ENDBRANCH  20  22
ENDBRANCH  17  18
ENDBRANCH  12  17
TORSDOF 5
