REMARK  Name = ZINC17444827
REMARK  12 active torsions:
REMARK  status: ('A' for Active; 'I' for Inactive)
REMARK    1  A    between atoms: C_1  and  C_2
REMARK    2  A    between atoms: C_4  and  C_15
REMARK    3  A    between atoms: C_5  and  C_14
REMARK    4  A    between atoms: N_6  and  C_7
REMARK    5  A    between atoms: N_17  and  N_18
REMARK    6  A    between atoms: C_19  and  C_21
REMARK    7  A    between atoms: C_21  and  C_22
REMARK    8  A    between atoms: C_22  and  C_23
REMARK    9  A    between atoms: C_24  and  C_35
REMARK   10  A    between atoms: C_28  and  S_33
REMARK   11  A    between atoms: C_31  and  C_32
REMARK   12  A    between atoms: S_33  and  C_34
REMARK                            x       y       z     vdW  Elec       q    Type
REMARK                         _______ _______ _______ _____ _____    ______ ____
ROOT
ATOM      1  N   UNL     1       5.124   6.815  -2.621  0.00  0.00    -0.234 N 
ATOM      2  C   UNL     1       4.832   6.207  -1.454  0.00  0.00    +0.229 C 
ATOM      3  O   UNL     1       5.115   6.743  -0.404  0.00  0.00    -0.274 OA
ATOM      4  H   UNL     1       4.898   6.387  -3.461  0.00  0.00    +0.173 HD
ENDROOT
BRANCH   1   7
ATOM      5  C   UNL     1       6.048   8.674  -3.787  0.00  0.00    +0.262 C 
ATOM      6  O   UNL     1       5.764   8.137  -4.841  0.00  0.00    -0.269 OA
ATOM      7  N   UNL     1       5.756   8.066  -2.620  0.00  0.00    -0.230 N 
ATOM      8  H   UNL     1       5.982   8.495  -1.780  0.00  0.00    +0.173 HD
BRANCH   5  12
ATOM      9  C   UNL     1       8.255  13.008  -2.243  0.00  0.00    +0.064 C 
ATOM     10  C   UNL     1       7.683  11.896  -3.084  0.00  0.00    +0.022 A 
ATOM     11  C   UNL     1       7.120  10.769  -2.613  0.00  0.00    +0.036 A 
ATOM     12  C   UNL     1       6.712   9.989  -3.786  0.00  0.00    +0.059 A 
ATOM     13  C   UNL     1       7.076  10.726  -4.880  0.00  0.00    +0.033 A 
ATOM     14  N   UNL     1       7.652  11.867  -4.450  0.00  0.00    -0.317 N 
ATOM     15  C   UNL     1       6.867  10.331  -6.319  0.00  0.00    +0.064 C 
BRANCH  14  16
ATOM     16  C   UNL     1       8.151  12.877  -5.285  0.00  0.00    +0.047 A 
ATOM     17  C   UNL     1       7.287  13.597  -6.098  0.00  0.00    +0.029 A 
ATOM     18  C   UNL     1       7.780  14.595  -6.916  0.00  0.00    +0.040 A 
ATOM     19  C   UNL     1       9.137  14.870  -6.933  0.00  0.00    +0.124 A 
ATOM     20  C   UNL     1      10.001  14.150  -6.126  0.00  0.00    +0.040 A 
ATOM     21  C   UNL     1       9.511  13.155  -5.303  0.00  0.00    +0.029 A 
ATOM     22  F   UNL     1       9.618  15.844  -7.737  0.00  0.00    -0.205 F 
ENDBRANCH  14  16
ENDBRANCH   5  12
ENDBRANCH   1   7
BRANCH   2  23
ATOM     23  C   UNL     1       4.153   4.862  -1.455  0.00  0.00    +0.102 C 
BRANCH  23  24
ATOM     24  C   UNL     1       3.937   4.399  -0.013  0.00  0.00    +0.048 C 
BRANCH  24  25
ATOM     25  C   UNL     1       3.258   3.054  -0.013  0.00  0.00    -0.005 A 
ATOM     26  C   UNL     1       4.017   1.878  -0.027  0.00  0.00    +0.047 A 
ATOM     27  N   UNL     1       3.423   0.706  -0.027  0.00  0.00    -0.216 NA
ATOM     28  C   UNL     1       2.088   0.612  -0.015  0.00  0.00    +0.254 A 
ATOM     29  N   UNL     1       1.263  -0.430  -0.012  0.00  0.00    -0.183 NA
ATOM     30  C   UNL     1       0.002  -0.004   0.002  0.00  0.00    +0.211 A 
ATOM     31  N   UNL     1      -0.016   1.314   0.009  0.00  0.00    -0.137 NA
ATOM     32  N   UNL     1       1.318   1.742  -0.001  0.00  0.00    -0.200 N 
ATOM     33  C   UNL     1       1.902   2.968  -0.001  0.00  0.00    +0.048 A 
ATOM     34  C   UNL     1       1.058   4.216   0.014  0.00  0.00    +0.066 C 
ATOM     35  C   UNL     1       5.522   1.956  -0.041  0.00  0.00    +0.066 C 
BRANCH  30  36
ATOM     36  S   UNL     1      -1.422  -1.041   0.009  0.00  0.00    -0.088 S 
ATOM     37  C   UNL     1      -0.741  -2.723  -0.006  0.00  0.00    +0.093 C 
ENDBRANCH  30  36
ENDBRANCH  24  25
ENDBRANCH  23  24
ENDBRANCH   2  23
TORSDOF 7
