REMARK  Name = ZINC34791225
REMARK  15 active torsions:
REMARK  status: ('A' for Active; 'I' for Inactive)
REMARK    1  A    between atoms: C_1  and  C_2
REMARK    2  A    between atoms: C_2  and  N_3
REMARK    3  A    between atoms: C_6  and  C_11
REMARK    4  A    between atoms: C_15  and  O_17
REMARK    5  A    between atoms: O_17  and  C_18
REMARK    6  A    between atoms: N_26  and  C_28
REMARK    7  A    between atoms: C_28  and  C_30
REMARK    8  A    between atoms: C_28  and  C_34
REMARK    9  A    between atoms: C_30  and  C_31
REMARK   10  A    between atoms: C_31  and  C_32
REMARK   11  A    between atoms: C_31  and  C_33
REMARK   12  A    between atoms: N_36  and  C_37
REMARK   13  A    between atoms: N_36  and  C_38
REMARK   14  A    between atoms: C_38  and  C_39
REMARK   15  A    between atoms: C_38  and  C_40
REMARK                            x       y       z     vdW  Elec       q    Type
REMARK                         _______ _______ _______ _____ _____    ______ ____
ROOT
ATOM      1  N   UNL     1      -0.551   1.607  -1.664  0.00  0.00    -0.257 N 
ATOM      2  C   UNL     1      -0.880   0.953  -2.817  0.00  0.00    +0.042 C 
ATOM      3  C   UNL     1       0.067   0.573  -3.699  0.00  0.00    +0.058 C 
ATOM      4  C   UNL     1       1.509   0.897  -3.368  0.00  0.00    +0.142 C 
ATOM      5  N   UNL     1       1.760   1.605  -2.101  0.00  0.00    -0.288 N 
ATOM      6  C   UNL     1       0.705   1.923  -1.324  0.00  0.00    +0.307 C 
ATOM      7  O   UNL     1       0.901   2.512  -0.279  0.00  0.00    -0.252 OA
ATOM      8  C   UNL     1      -0.523  -0.081  -4.800  0.00  0.00    +0.247 C 
ATOM      9  O   UNL     1       0.096  -0.529  -5.747  0.00  0.00    -0.270 OA
ATOM     10  N   UNL     1      -1.861  -0.145  -4.667  0.00  0.00    -0.281 N 
ATOM     11  C   UNL     1      -2.204   0.507  -3.395  0.00  0.00    +0.160 C 
ATOM     12  H   UNL     1       2.662   1.841  -1.834  0.00  0.00    +0.151 HD
ENDROOT
BRANCH   4  13
ATOM     13  C   UNL     1       2.281  -0.397  -3.336  0.00  0.00    -0.019 A 
ATOM     14  C   UNL     1       2.218  -1.212  -2.220  0.00  0.00    +0.006 A 
ATOM     15  C   UNL     1       2.925  -2.400  -2.188  0.00  0.00    +0.004 A 
ATOM     16  C   UNL     1       3.696  -2.776  -3.271  0.00  0.00    +0.046 A 
ATOM     17  C   UNL     1       3.760  -1.960  -4.392  0.00  0.00    +0.129 A 
ATOM     18  C   UNL     1       3.046  -0.771  -4.423  0.00  0.00    +0.052 A 
BRANCH  17  19
ATOM     19  O   UNL     1       4.518  -2.328  -5.458  0.00  0.00    -0.456 OA
BRANCH  19  20
ATOM     20  C   UNL     1       5.635  -1.602  -5.728  0.00  0.00    +0.128 A 
ATOM     21  C   UNL     1       6.038  -0.599  -4.858  0.00  0.00    +0.046 A 
ATOM     22  C   UNL     1       7.174   0.138  -5.135  0.00  0.00    +0.004 A 
ATOM     23  C   UNL     1       7.907  -0.123  -6.278  0.00  0.00    +0.000 A 
ATOM     24  C   UNL     1       7.507  -1.122  -7.146  0.00  0.00    +0.004 A 
ATOM     25  C   UNL     1       6.376  -1.866  -6.871  0.00  0.00    +0.046 A 
ENDBRANCH  19  20
ENDBRANCH  17  19
ENDBRANCH   4  13
BRANCH   1  27
ATOM     26  C   UNL     1      -2.140   3.385  -1.121  0.00  0.00    +0.025 C 
ATOM     27  C   UNL     1      -1.632   1.990  -0.753  0.00  0.00    +0.111 C 
ENDBRANCH   1  27
BRANCH  10  28
ATOM     28  C   UNL     1      -2.800  -0.751  -5.615  0.00  0.00    +0.163 C 
BRANCH  28  29
ATOM     29  C   UNL     1      -2.826   0.061  -6.884  0.00  0.00    +0.236 C 
ATOM     30  O   UNL     1      -1.979   0.906  -7.082  0.00  0.00    -0.274 OA
ATOM     31  N   UNL     1      -3.792  -0.152  -7.800  0.00  0.00    -0.300 N 
ATOM     32  C   UNL     1      -3.749   0.548  -9.086  0.00  0.00    +0.132 C 
BRANCH  31  33
ATOM     33  C   UNL     1      -4.885  -1.083  -7.510  0.00  0.00    +0.070 C 
ATOM     34  C   UNL     1      -6.223  -0.348  -7.613  0.00  0.00    +0.028 C 
ATOM     35  C   UNL     1      -4.856  -2.234  -8.518  0.00  0.00    +0.028 C 
ENDBRANCH  31  33
ENDBRANCH  28  29
BRANCH  28  36
ATOM     36  C   UNL     1      -2.354  -2.179  -5.932  0.00  0.00    +0.035 C 
BRANCH  36  37
ATOM     37  C   UNL     1      -2.515  -3.053  -4.686  0.00  0.00    -0.015 C 
ATOM     38  C   UNL     1      -2.280  -4.518  -5.057  0.00  0.00    +0.007 C 
ATOM     39  C   UNL     1      -1.497  -2.624  -3.628  0.00  0.00    +0.007 C 
ENDBRANCH  36  37
ENDBRANCH  28  36
ENDBRANCH  10  28
TORSDOF 9
