REMARK  Name = ZINC12847431
REMARK  6 active torsions:
REMARK  status: ('A' for Active; 'I' for Inactive)
REMARK    1  A    between atoms: N_4  and  C_6
REMARK    2  A    between atoms: C_9  and  C_12
REMARK    3  A    between atoms: C_12  and  N_13
REMARK    4  A    between atoms: C_14  and  C_16
REMARK    5  A    between atoms: C_21  and  C_34
REMARK    6  A    between atoms: C_24  and  C_27
REMARK                            x       y       z     vdW  Elec       q    Type
REMARK                         _______ _______ _______ _____ _____    ______ ____
ROOT
ATOM      1  C   UNL     1       3.893  -7.917  -3.103  0.00  0.00    +0.149 A 
ATOM      2  C   UNL     1       4.329  -9.196  -3.515  0.00  0.00    +0.078 A 
ATOM      3  C   UNL     1       4.331  -9.211  -4.863  0.00  0.00    +0.119 A 
ATOM      4  N   UNL     1       3.914  -7.987  -5.302  0.00  0.00    -0.238 N 
ATOM      5  N   UNL     1       3.641  -7.200  -4.184  0.00  0.00    -0.164 NA
ATOM      6  C   UNL     1       3.795  -7.629  -6.719  0.00  0.00    +0.215 C 
ATOM      7  C   UNL     1       4.636  -8.604  -7.550  0.00  0.00    +0.063 C 
ATOM      8  C   UNL     1       4.305 -10.047  -7.153  0.00  0.00    +0.104 C 
ATOM      9  N   UNL     1       4.679 -10.243  -5.739  0.00  0.00    -0.322 N 
ATOM     10  H   UNL     1       5.140 -11.041  -5.435  0.00  0.00    +0.148 HD
ENDROOT
BRANCH   8  11
ATOM     11  C   UNL     1       5.081 -11.002  -8.023  0.00  0.00    -0.027 A 
ATOM     12  C   UNL     1       6.407 -11.273  -7.740  0.00  0.00    +0.007 A 
ATOM     13  C   UNL     1       7.119 -12.148  -8.538  0.00  0.00    +0.020 A 
ATOM     14  C   UNL     1       6.505 -12.754  -9.620  0.00  0.00    +0.041 A 
ATOM     15  C   UNL     1       5.178 -12.483  -9.902  0.00  0.00    +0.020 A 
ATOM     16  C   UNL     1       4.465 -11.611  -9.101  0.00  0.00    +0.007 A 
ATOM     17 CL   UNL     1       7.400 -13.853 -10.622  0.00  0.00    -0.084 Cl
ENDBRANCH   8  11
BRANCH   1  19
ATOM     18  N   UNL     1       3.307  -6.212  -1.448  0.00  0.00    -0.306 N 
ATOM     19  C   UNL     1       3.739  -7.462  -1.706  0.00  0.00    +0.264 C 
ATOM     20  O   UNL     1       4.003  -8.215  -0.789  0.00  0.00    -0.268 OA
ATOM     21  H   UNL     1       3.096  -5.611  -2.180  0.00  0.00    +0.149 HD
BRANCH  18  22
ATOM     22  C   UNL     1       3.154  -5.760  -0.063  0.00  0.00    +0.140 C 
BRANCH  22  26
ATOM     23  C   UNL     1       1.755  -1.722  -0.025  0.00  0.00    +0.065 A 
ATOM     24  C   UNL     1       0.847  -2.773  -0.028  0.00  0.00    +0.028 A 
ATOM     25  C   UNL     1       1.303  -4.077  -0.040  0.00  0.00    +0.007 A 
ATOM     26  C   UNL     1       2.661  -4.336  -0.050  0.00  0.00    -0.030 A 
ATOM     27  C   UNL     1       3.567  -3.292  -0.046  0.00  0.00    +0.007 A 
ATOM     28  C   UNL     1       3.118  -1.986  -0.039  0.00  0.00    +0.028 A 
BRANCH  23  32
ATOM     29  C   UNL     1      -0.016   1.349   0.009  0.00  0.00    +0.041 A 
ATOM     30  C   UNL     1       1.309   1.798  -0.001  0.00  0.00    +0.135 A 
ATOM     31  N   UNL     1       2.096   0.752  -0.014  0.00  0.00    -0.175 NA
ATOM     32  N   UNL     1       1.296  -0.398  -0.012  0.00  0.00    -0.240 N 
ATOM     33  C   UNL     1       0.002  -0.004   0.002  0.00  0.00    +0.114 A 
ENDBRANCH  23  32
ENDBRANCH  22  26
ENDBRANCH  18  22
ENDBRANCH   1  19
BRANCH   6  34
ATOM     34  C   UNL     1       4.303  -6.201  -6.931  0.00  0.00    +0.412 C 
ATOM     35  F   UNL     1       5.644  -6.121  -6.543  0.00  0.00    -0.168 F 
ATOM     36  F   UNL     1       4.187  -5.862  -8.283  0.00  0.00    -0.168 F 
ATOM     37  F   UNL     1       3.540  -5.316  -6.161  0.00  0.00    -0.168 F 
ENDBRANCH   6  34
TORSDOF 6
