REMARK  Name = ZINC58191733
REMARK  6 active torsions:
REMARK  status: ('A' for Active; 'I' for Inactive)
REMARK    1  A    between atoms: C_1  and  C_2
REMARK    2  A    between atoms: C_2  and  C_3
REMARK    3  A    between atoms: C_2  and  N_4
REMARK    4  A    between atoms: N_4  and  C_5
REMARK    5  A    between atoms: C_19  and  C_21
REMARK    6  A    between atoms: C_21  and  N_22
REMARK                            x       y       z     vdW  Elec       q    Type
REMARK                         _______ _______ _______ _____ _____    ______ ____
ROOT
ATOM      1  C   UNL     1      -3.525  -1.810   1.280  0.00  0.00    -0.054 C 
ATOM      2  C   UNL     1      -2.002  -1.688   1.371  0.00  0.00    -0.013 C 
ATOM      3  C   UNL     1      -1.402  -1.709  -0.037  0.00  0.00    +0.017 C 
ATOM      4  C   UNL     1      -1.741  -3.042  -0.713  0.00  0.00    +0.106 C 
ATOM      5  N   UNL     1      -3.197  -3.234  -0.674  0.00  0.00    -0.316 N 
ATOM      6  C   UNL     1      -3.889  -3.143   0.620  0.00  0.00    +0.091 C 
ATOM      7  C   UNL     1      -3.905  -3.496  -1.833  0.00  0.00    +0.133 A 
ATOM      8  C   UNL     1      -4.009  -4.825  -2.330  0.00  0.00    +0.051 A 
ATOM      9  C   UNL     1      -3.447  -6.058  -1.774  0.00  0.00    -0.025 A 
ATOM     10  C   UNL     1      -3.696  -7.200  -2.446  0.00  0.00    -0.004 A 
ATOM     11  S   UNL     1      -4.680  -6.713  -3.838  0.00  0.00    -0.073 S 
ATOM     12  C   UNL     1      -4.755  -4.971  -3.517  0.00  0.00    +0.114 A 
ATOM     13  N   UNL     1      -5.309  -3.934  -4.114  0.00  0.00    -0.223 NA
ATOM     14  C   UNL     1      -5.177  -2.724  -3.607  0.00  0.00    +0.146 A 
ATOM     15  N   UNL     1      -4.498  -2.514  -2.493  0.00  0.00    -0.215 NA
ATOM     16  C   UNL     1      -3.238  -8.581  -2.089  0.00  0.00    +0.043 C 
ATOM     17  C   UNL     1      -2.122  -8.466  -1.040  0.00  0.00    +0.005 C 
ATOM     18  C   UNL     1      -2.577  -7.497   0.055  0.00  0.00    +0.005 C 
ATOM     19  C   UNL     1      -2.615  -6.071  -0.495  0.00  0.00    +0.037 C 
ENDROOT
BRANCH   1  20
ATOM     20  N   UNL     1      -4.102  -1.757   2.630  0.00  0.00    +0.383 N 
ATOM     21  H   UNL     1      -3.782  -0.924   3.100  0.00  0.00    -0.085 HD
ATOM     22  H   UNL     1      -3.810  -2.570   3.152  0.00  0.00    -0.085 HD
BRANCH  20  24
ATOM     23  C   UNL     1      -6.170  -1.830   3.938  0.00  0.00    -0.014 C 
ATOM     24  C   UNL     1      -5.567  -1.735   2.535  0.00  0.00    -0.078 C 
ATOM     25  C   UNL     1      -6.016  -0.430   1.874  0.00  0.00    -0.014 C 
ENDBRANCH  20  24
ENDBRANCH   1  20
BRANCH  14  26
ATOM     26  C   UNL     1      -5.820  -1.556  -4.309  0.00  0.00    +0.160 C 
BRANCH  26  27
ATOM     27  N   UNL     1      -7.181  -1.363  -3.792  0.00  0.00    -0.291 NA
ATOM     28  C   UNL     1      -8.046  -2.497  -4.149  0.00  0.00    +0.113 C 
ATOM     29  C   UNL     1      -9.435  -2.283  -3.542  0.00  0.00    +0.175 C 
ATOM     30  O   UNL     1      -9.963  -1.035  -3.998  0.00  0.00    -0.377 OA
ATOM     31  C   UNL     1      -9.146   0.091  -3.666  0.00  0.00    +0.175 C 
ATOM     32  C   UNL     1      -7.754  -0.098  -4.275  0.00  0.00    +0.113 C 
ENDBRANCH  26  27
ENDBRANCH  14  26
TORSDOF 4
