REMARK  Name = ZINC03361146
REMARK  7 active torsions:
REMARK  status: ('A' for Active; 'I' for Inactive)
REMARK    1  A    between atoms: C_4  and  C_7
REMARK    2  A    between atoms: C_7  and  N_8
REMARK    3  A    between atoms: C_9  and  C_26
REMARK    4  A    between atoms: C_12  and  S_13
REMARK    5  A    between atoms: S_13  and  C_14
REMARK    6  A    between atoms: C_14  and  C_15
REMARK    7  A    between atoms: N_17  and  C_18
REMARK                            x       y       z     vdW  Elec       q    Type
REMARK                         _______ _______ _______ _____ _____    ______ ____
ROOT
ATOM      1  N   UNL     1      -5.987   2.454   7.858  0.00  0.00    -0.298 N 
ATOM      2  C   UNL     1      -6.630   3.626   8.181  0.00  0.00    +0.166 A 
ATOM      3  N   UNL     1      -6.614   4.382   7.108  0.00  0.00    -0.128 NA
ATOM      4  N   UNL     1      -6.009   3.774   6.151  0.00  0.00    -0.122 NA
ATOM      5  C   UNL     1      -5.601   2.591   6.556  0.00  0.00    +0.193 A 
ENDROOT
BRANCH   2   6
ATOM      6  C   UNL     1      -7.232   3.968   9.487  0.00  0.00    +0.033 A 
ATOM      7  C   UNL     1      -7.359   2.992  10.477  0.00  0.00    +0.013 A 
ATOM      8  C   UNL     1      -7.917   3.319  11.696  0.00  0.00    +0.001 A 
ATOM      9  C   UNL     1      -8.360   4.608  11.935  0.00  0.00    +0.001 A 
ATOM     10  C   UNL     1      -8.242   5.579  10.957  0.00  0.00    +0.016 A 
ATOM     11  C   UNL     1      -7.680   5.267   9.734  0.00  0.00    +0.029 A 
ATOM     12 BR   UNL     1      -7.520   6.596   8.398  0.00  0.00    -0.050 Br
ENDBRANCH   2   6
BRANCH   1  13
ATOM     13  C   UNL     1      -5.761   1.299   8.731  0.00  0.00    +0.161 C 
BRANCH  13  17
ATOM     14  C   UNL     1      -8.802  -1.622   8.046  0.00  0.00    +0.000 A 
ATOM     15  C   UNL     1      -7.573  -1.745   7.426  0.00  0.00    +0.000 A 
ATOM     16  C   UNL     1      -6.589  -0.800   7.648  0.00  0.00    +0.005 A 
ATOM     17  C   UNL     1      -6.834   0.269   8.489  0.00  0.00    -0.028 A 
ATOM     18  C   UNL     1      -8.062   0.390   9.113  0.00  0.00    +0.005 A 
ATOM     19  C   UNL     1      -9.047  -0.553   8.888  0.00  0.00    +0.000 A 
ENDBRANCH  13  17
ENDBRANCH   1  13
BRANCH   5  20
ATOM     20  S   UNL     1      -4.726   1.402   5.594  0.00  0.00    -0.077 S 
BRANCH  20  21
ATOM     21  C   UNL     1      -4.604   2.296   4.024  0.00  0.00    +0.173 C 
BRANCH  21  22
ATOM     22  C   UNL     1      -3.870   1.447   3.018  0.00  0.00    +0.224 C 
ATOM     23  O   UNL     1      -3.470   0.346   3.332  0.00  0.00    -0.275 OA
ATOM     24  N   UNL     1      -3.660   1.911   1.771  0.00  0.00    -0.310 N 
ATOM     25  H   UNL     1      -3.980   2.791   1.520  0.00  0.00    +0.149 HD
BRANCH  24  26
ATOM     26  C   UNL     1      -2.947   1.085   0.793  0.00  0.00    +0.095 C 
ATOM     27  C   UNL     1      -1.431   1.276   0.974  0.00  0.00    +0.046 C 
ATOM     28  C   UNL     1      -0.715   0.650  -0.257  0.00  0.00    +0.168 C 
ATOM     29  S   UNL     1      -1.839   1.191  -1.613  0.00  0.00    -0.029 S 
ATOM     30  O   UNL     1      -1.366   2.422  -2.142  0.00  0.00    -0.174 OA
ATOM     31  O   UNL     1      -2.067   0.095  -2.489  0.00  0.00    -0.174 OA
ATOM     32  C   UNL     1      -3.365   1.506  -0.637  0.00  0.00    +0.188 C 
ENDBRANCH  24  26
ENDBRANCH  21  22
ENDBRANCH  20  21
ENDBRANCH   5  20
TORSDOF 7
