REMARK  Name = ZINC12465330
REMARK  8 active torsions:
REMARK  status: ('A' for Active; 'I' for Inactive)
REMARK    1  A    between atoms: C_2  and  C_3
REMARK    2  A    between atoms: C_3  and  N_4
REMARK    3  A    between atoms: C_8  and  S_30
REMARK    4  A    between atoms: N_13  and  C_14
REMARK    5  A    between atoms: C_14  and  C_16
REMARK    6  A    between atoms: N_21  and  S_22
REMARK    7  A    between atoms: S_22  and  C_25
REMARK    8  A    between atoms: S_30  and  N_33
REMARK                            x       y       z     vdW  Elec       q    Type
REMARK                         _______ _______ _______ _____ _____    ______ ____
ROOT
ATOM      1  N   UNL     1       3.656   2.038  -0.022  0.00  0.00    -0.317 N 
ATOM      2  C   UNL     1       2.397   1.467  -0.013  0.00  0.00    +0.058 A 
ATOM      3  C   UNL     1       1.149   2.109   0.002  0.00  0.00    +0.029 A 
ATOM      4  C   UNL     1      -0.017   1.381   0.010  0.00  0.00    +0.030 A 
ATOM      5  C   UNL     1       0.002  -0.004   0.002  0.00  0.00    +0.106 A 
ATOM      6  C   UNL     1       1.218  -0.663  -0.013  0.00  0.00    +0.045 A 
ATOM      7  C   UNL     1       2.385   0.064  -0.021  0.00  0.00    +0.041 A 
ATOM      8  S   UNL     1       4.109  -0.357  -0.039  0.00  0.00    -0.052 S 
ATOM      9  C   UNL     1       4.762   1.249  -0.037  0.00  0.00    +0.167 A 
ATOM     10  N   UNL     1       6.041   1.620  -0.047  0.00  0.00    -0.155 NA
ENDROOT
BRANCH   5  11
ATOM     11  S   UNL     1      -1.506  -0.916   0.011  0.00  0.00    +0.056 S 
ATOM     12  O   UNL     1      -1.204  -2.195   0.552  0.00  0.00    -0.153 OA
ATOM     13  O   UNL     1      -2.493  -0.063   0.576  0.00  0.00    -0.153 OA
BRANCH  11  14
ATOM     14  N   UNL     1      -1.939  -1.161  -1.568  0.00  0.00    -0.204 NA
ATOM     15  H   UNL     1      -2.442  -1.952  -1.816  0.00  0.00    +0.144 HD
ATOM     16  H   UNL     1      -1.691  -0.512  -2.246  0.00  0.00    +0.144 HD
ENDBRANCH  11  14
ENDBRANCH   5  11
BRANCH  10  17
ATOM     17  C   UNL     1       7.000   0.700  -0.061  0.00  0.00    +0.257 C 
ATOM     18  O   UNL     1       6.709  -0.481  -0.064  0.00  0.00    -0.272 OA
BRANCH  17  19
ATOM     19  C   UNL     1       8.447   1.121  -0.072  0.00  0.00    +0.168 C 
ATOM     20  C   UNL     1       8.774   1.911   1.212  0.00  0.00    +0.031 C 
ATOM     21  C   UNL     1       9.404   0.832   2.133  0.00  0.00    +0.019 C 
ATOM     22  C   UNL     1      10.175  -0.039   1.109  0.00  0.00    +0.110 C 
ATOM     23  N   UNL     1       9.312  -0.068  -0.086  0.00  0.00    -0.164 NA
BRANCH  23  24
ATOM     24  S   UNL     1       9.318  -1.244  -1.252  0.00  0.00    +0.068 S 
ATOM     25  O   UNL     1       9.837  -2.418  -0.642  0.00  0.00    -0.152 OA
ATOM     26  O   UNL     1       8.038  -1.210  -1.869  0.00  0.00    -0.152 OA
BRANCH  24  27
ATOM     27  C   UNL     1      10.483  -0.756  -2.480  0.00  0.00    +0.143 A 
ATOM     28  C   UNL     1      11.809  -1.026  -2.553  0.00  0.00    +0.036 A 
ATOM     29  C   UNL     1      12.535  -0.537  -3.623  0.00  0.00    +0.010 A 
ATOM     30  C   UNL     1      11.901   0.207  -4.562  0.00  0.00    +0.047 A 
ATOM     31  S   UNL     1      10.225   0.228  -3.947  0.00  0.00    -0.077 S 
ENDBRANCH  24  27
ENDBRANCH  23  24
ENDBRANCH  17  19
ENDBRANCH  10  17
BRANCH   1  32
ATOM     32  C   UNL     1       3.797   3.496  -0.016  0.00  0.00    +0.151 C 
BRANCH  32  34
ATOM     33  C   UNL     1       5.960   4.626   0.075  0.00  0.00    +0.005 C 
ATOM     34  C   UNL     1       5.077   3.874   0.684  0.00  0.00    -0.013 C 
ENDBRANCH  32  34
ENDBRANCH   1  32
TORSDOF 8
