REMARK  Name = ZINC12150400
REMARK  10 active torsions:
REMARK  status: ('A' for Active; 'I' for Inactive)
REMARK    1  A    between atoms: C_1  and  C_2
REMARK    2  A    between atoms: C_2  and  C_3
REMARK    3  A    between atoms: C_3  and  C_4
REMARK    4  A    between atoms: C_4  and  C_19
REMARK    5  A    between atoms: N_7  and  C_11
REMARK    6  A    between atoms: C_11  and  C_12
REMARK    7  A    between atoms: C_12  and  C_13
REMARK    8  A    between atoms: C_18  and  N_68
REMARK    9  A    between atoms: C_25  and  C_27
REMARK   10  A    between atoms: C_27  and  C_28
REMARK                            x       y       z     vdW  Elec       q    Type
REMARK                         _______ _______ _______ _____ _____    ______ ____
ROOT
ATOM      1  C   UNL     1       0.474  -1.871  -1.741  0.00  0.00    +0.115 C 
ATOM      2  C   UNL     1      -0.898  -2.511  -1.663  0.00  0.00    +0.247 C 
ATOM      3  O   UNL     1      -1.785  -2.446  -2.487  0.00  0.00    -0.273 OA
ATOM      4  N   UNL     1      -0.928  -3.167  -0.486  0.00  0.00    -0.224 N 
ATOM      5  C   UNL     1       0.223  -3.032   0.183  0.00  0.00    +0.309 C 
ATOM      6  O   UNL     1       0.435  -3.533   1.270  0.00  0.00    -0.252 OA
ATOM      7  N   UNL     1       1.118  -2.279  -0.481  0.00  0.00    -0.285 N 
ATOM      8  H   UNL     1       2.014  -2.050  -0.188  0.00  0.00    +0.151 HD
ENDROOT
BRANCH   1   9
ATOM      9  C   UNL     1       0.354  -0.348  -1.816  0.00  0.00    +0.024 C 
ATOM     10  C   UNL     1      -0.380   0.167  -0.575  0.00  0.00    +0.025 C 
ATOM     11  C   UNL     1      -0.528   1.689  -0.670  0.00  0.00    +0.108 C 
ATOM     12  N   UNL     1       0.800   2.282  -0.875  0.00  0.00    -0.301 N 
ATOM     13  C   UNL     1       1.627   1.794  -1.987  0.00  0.00    +0.108 C 
ATOM     14  C   UNL     1       1.752   0.271  -1.878  0.00  0.00    +0.025 C 
ATOM     15  C   UNL     1       1.251   3.256  -0.060  0.00  0.00    +0.220 C 
ATOM     16  O   UNL     1       0.559   3.650   0.855  0.00  0.00    -0.275 OA
BRANCH  15  17
ATOM     17  C   UNL     1       2.616   3.854  -0.283  0.00  0.00    +0.131 C 
BRANCH  17  18
ATOM     18  C   UNL     1       2.877   4.912   0.757  0.00  0.00    -0.032 A 
ATOM     19  C   UNL     1       3.477   4.583   1.958  0.00  0.00    +0.011 A 
ATOM     20  C   UNL     1       3.698   5.559   2.872  0.00  0.00    +0.045 A 
ATOM     21  S   UNL     1       3.049   6.999   2.039  0.00  0.00    -0.105 S 
ATOM     22  C   UNL     1       2.533   6.203   0.526  0.00  0.00    +0.049 A 
ENDBRANCH  17  18
ENDBRANCH  15  17
ENDBRANCH   1   9
BRANCH   1  23
ATOM     23  C   UNL     1       1.250  -2.408  -2.945  0.00  0.00    +0.035 C 
BRANCH  23  25
ATOM     24  C   UNL     1       2.132  -4.468  -4.051  0.00  0.00    +0.004 C 
ATOM     25  C   UNL     1       1.356  -3.931  -2.846  0.00  0.00    -0.001 C 
ENDBRANCH  23  25
ENDBRANCH   1  23
BRANCH   4  26
ATOM     26  C   UNL     1      -2.078  -3.933   0.001  0.00  0.00    +0.116 C 
BRANCH  26  27
ATOM     27  C   UNL     1      -1.964  -5.382  -0.476  0.00  0.00    +0.004 C 
BRANCH  27  28
ATOM     28  C   UNL     1      -3.232  -6.147  -0.090  0.00  0.00    -0.068 C 
ATOM     29  C   UNL     1      -3.146  -7.615  -0.576  0.00  0.00    -0.017 C 
ATOM     30  C   UNL     1      -4.120  -8.326   0.399  0.00  0.00    -0.020 C 
ATOM     31  C   UNL     1      -3.905  -7.564   1.723  0.00  0.00    -0.079 C 
ATOM     32  C   UNL     1      -4.187  -5.162   1.915  0.00  0.00    -0.096 C 
ATOM     33  N   UNL     1      -3.331  -6.253   1.380  0.00  0.00    +0.380 N 
ATOM     34  H   UNL     1      -2.393  -6.174   1.790  0.00  0.00    -0.082 HD
ENDBRANCH  27  28
ENDBRANCH  26  27
ENDBRANCH   4  26
TORSDOF 8
