REMARK  Name = ZINC64609652
REMARK  8 active torsions:
REMARK  status: ('A' for Active; 'I' for Inactive)
REMARK    1  A    between atoms: C_1  and  C_2
REMARK    2  A    between atoms: C_11  and  C_13
REMARK    3  A    between atoms: N_15  and  C_16
REMARK    4  A    between atoms: C_16  and  C_17
REMARK    5  A    between atoms: C_16  and  C_18
REMARK    6  A    between atoms: N_19  and  C_20
REMARK    7  A    between atoms: C_20  and  C_21
REMARK    8  A    between atoms: C_21  and  C_22
REMARK                            x       y       z     vdW  Elec       q    Type
REMARK                         _______ _______ _______ _____ _____    ______ ____
ROOT
ATOM      1  C   UNL     1      -0.208   1.582   0.319  0.00  0.00    +0.014 C 
ATOM      2  C   UNL     1      -0.133   0.063   0.155  0.00  0.00    +0.044 C 
ATOM      3  C   UNL     1      -1.503  -0.523   0.372  0.00  0.00    +0.028 A 
ATOM      4  C   UNL     1      -2.571  -0.569  -0.540  0.00  0.00    +0.126 A 
ATOM      5  N   UNL     1      -3.725  -1.113  -0.175  0.00  0.00    -0.221 NA
ATOM      6  C   UNL     1      -3.902  -1.617   1.030  0.00  0.00    +0.224 A 
ATOM      7  N   UNL     1      -2.928  -1.605   1.921  0.00  0.00    -0.229 NA
ATOM      8  C   UNL     1      -1.748  -1.086   1.623  0.00  0.00    +0.106 A 
ATOM      9  S   UNL     1      -0.235  -0.941   2.544  0.00  0.00    -0.092 S 
ATOM     10  C   UNL     1       0.895  -0.503   1.162  0.00  0.00    +0.146 C 
ATOM     11  N   UNL     1      -2.421  -0.047  -1.815  0.00  0.00    -0.328 N 
ATOM     12  H   UNL     1      -1.577   0.351  -2.080  0.00  0.00    +0.147 HD
ENDROOT
BRANCH  10  13
ATOM     13  C   UNL     1       1.890   0.549   1.580  0.00  0.00    +0.227 C 
ATOM     14  O   UNL     1       2.905   0.712   0.937  0.00  0.00    -0.275 OA
ATOM     15  N   UNL     1       1.652   1.307   2.669  0.00  0.00    -0.312 N 
ATOM     16  H   UNL     1       0.840   1.176   3.183  0.00  0.00    +0.149 HD
BRANCH  15  17
ATOM     17  C   UNL     1       2.619   2.329   3.075  0.00  0.00    +0.067 C 
ATOM     18  C   UNL     1       1.904   3.418   3.878  0.00  0.00    +0.027 C 
ATOM     19  C   UNL     1       3.705   1.687   3.941  0.00  0.00    +0.027 C 
ENDBRANCH  15  17
ENDBRANCH  10  13
BRANCH  11  20
ATOM     20  C   UNL     1      -3.537  -0.096  -2.763  0.00  0.00    +0.107 C 
BRANCH  20  21
ATOM     21  C   UNL     1      -3.110   0.542  -4.087  0.00  0.00    +0.052 C 
BRANCH  21  22
ATOM     22  C   UNL     1      -4.258   0.491  -5.062  0.00  0.00    -0.040 C 
ATOM     23  C   UNL     1      -5.162   1.467  -5.305  0.00  0.00    -0.001 A 
ATOM     24  C   UNL     1      -5.342   2.815  -4.755  0.00  0.00    +0.010 A 
ATOM     25  C   UNL     1      -6.365   3.577  -5.206  0.00  0.00    +0.001 A 
ATOM     26  C   UNL     1      -7.255   3.111  -6.183  0.00  0.00    +0.002 A 
ATOM     27  C   UNL     1      -7.155   1.884  -6.736  0.00  0.00    +0.026 A 
ATOM     28  C   UNL     1      -6.116   0.999  -6.336  0.00  0.00    +0.043 A 
ATOM     29  N   UNL     1      -5.813  -0.219  -6.716  0.00  0.00    -0.380 N 
ATOM     30  C   UNL     1      -4.628  -0.659  -5.972  0.00  0.00    +0.144 C 
ATOM     31  H   UNL     1      -6.290  -0.740  -7.380  0.00  0.00    +0.160 HD
ENDBRANCH  21  22
ENDBRANCH  20  21
ENDBRANCH  11  20
TORSDOF 5
