REMARK  Name = ZINC35724930
REMARK  9 active torsions:
REMARK  status: ('A' for Active; 'I' for Inactive)
REMARK    1  A    between atoms: C_1  and  C_2
REMARK    2  A    between atoms: C_2  and  C_3
REMARK    3  A    between atoms: C_3  and  C_5
REMARK    4  A    between atoms: C_3  and  C_6
REMARK    5  A    between atoms: C_6  and  C_8
REMARK    6  A    between atoms: C_6  and  N_23
REMARK    7  A    between atoms: C_14  and  C_16
REMARK    8  A    between atoms: C_19  and  C_22
REMARK    9  A    between atoms: N_26  and  C_27
REMARK                            x       y       z     vdW  Elec       q    Type
REMARK                         _______ _______ _______ _____ _____    ______ ____
ROOT
ATOM      1  C   UNL     1      -1.446  -2.030  -0.078  0.00  0.00    +0.163 C 
ENDROOT
BRANCH   1   2
ATOM      2  C   UNL     1      -0.928  -2.572   1.229  0.00  0.00    +0.239 C 
ATOM      3  O   UNL     1       0.118  -3.185   1.260  0.00  0.00    -0.273 OA
ATOM      4  N   UNL     1      -1.627  -2.374   2.365  0.00  0.00    -0.262 N 
ATOM      5  C   UNL     1      -1.205  -2.961   3.551  0.00  0.00    +0.188 A 
ATOM      6  N   UNL     1      -0.155  -3.731   3.770  0.00  0.00    -0.125 NA
ATOM      7  N   UNL     1       0.105  -4.197   4.916  0.00  0.00    -0.140 NA
ATOM      8  C   UNL     1      -0.703  -3.901   5.926  0.00  0.00    +0.134 A 
ATOM      9  S   UNL     1      -1.896  -2.869   5.086  0.00  0.00    -0.030 S 
ATOM     10  H   UNL     1      -2.424  -1.822   2.354  0.00  0.00    +0.157 HD
BRANCH   8  11
ATOM     11  C   UNL     1      -0.633  -4.306   7.346  0.00  0.00    +0.009 A 
ATOM     12  C   UNL     1      -1.609  -3.875   8.247  0.00  0.00    +0.011 A 
ATOM     13  C   UNL     1      -1.538  -4.257   9.570  0.00  0.00    +0.004 A 
ATOM     14  C   UNL     1      -0.502  -5.064  10.006  0.00  0.00    -0.050 A 
ATOM     15  C   UNL     1       0.469  -5.494   9.119  0.00  0.00    +0.004 A 
ATOM     16  C   UNL     1       0.406  -5.125   7.791  0.00  0.00    +0.011 A 
ATOM     17  C   UNL     1      -0.431  -5.477  11.454  0.00  0.00    +0.044 C 
ENDBRANCH   8  11
ENDBRANCH   1   2
BRANCH   1  18
ATOM     18  N   UNL     1      -0.917  -2.834  -1.183  0.00  0.00    -0.288 N 
ATOM     19  C   UNL     1      -1.586  -2.895  -2.352  0.00  0.00    +0.301 C 
ATOM     20  O   UNL     1      -2.627  -2.283  -2.489  0.00  0.00    -0.253 OA
ATOM     21  N   UNL     1      -1.099  -3.634  -3.369  0.00  0.00    -0.294 N 
ATOM     22  H   UNL     1      -0.086  -3.322  -1.074  0.00  0.00    +0.151 HD
ATOM     23  H   UNL     1      -0.268  -4.122  -3.259  0.00  0.00    +0.151 HD
BRANCH  21  24
ATOM     24  C   UNL     1      -1.826  -3.700  -4.639  0.00  0.00    +0.037 C 
ATOM     25  C   UNL     1      -3.223  -4.276  -4.399  0.00  0.00    +0.029 C 
ATOM     26  C   UNL     1      -3.981  -4.345  -5.725  0.00  0.00    -0.008 C 
ATOM     27  C   UNL     1      -3.220  -5.244  -6.702  0.00  0.00    +0.007 C 
ATOM     28  C   UNL     1      -1.823  -4.668  -6.942  0.00  0.00    -0.008 C 
ATOM     29  C   UNL     1      -1.065  -4.599  -5.615  0.00  0.00    +0.029 C 
ATOM     30  C   UNL     1      -1.946  -3.262  -7.533  0.00  0.00    +0.007 C 
ATOM     31  C   UNL     1      -2.707  -2.363  -6.557  0.00  0.00    -0.008 C 
ATOM     32  C   UNL     1      -4.104  -2.939  -6.316  0.00  0.00    +0.007 C 
ATOM     33  C   UNL     1      -1.948  -2.294  -5.230  0.00  0.00    +0.029 C 
ENDBRANCH  21  24
ENDBRANCH   1  18
BRANCH   1  34
ATOM     34  C   UNL     1      -0.995  -0.578  -0.243  0.00  0.00    +0.015 C 
ATOM     35  C   UNL     1       0.528  -0.528  -0.375  0.00  0.00    +0.010 C 
BRANCH  34  37
ATOM     36  C   UNL     1      -1.286   1.502  -1.597  0.00  0.00    +0.004 C 
ATOM     37  C   UNL     1      -1.636   0.016  -1.500  0.00  0.00    +0.002 C 
ENDBRANCH  34  37
ENDBRANCH   1  34
TORSDOF 6
