REMARK  Name = ZINC00962181
REMARK  12 active torsions:
REMARK  status: ('A' for Active; 'I' for Inactive)
REMARK    1  A    between atoms: C_1  and  O_2
REMARK    2  A    between atoms: O_2  and  C_3
REMARK    3  A    between atoms: C_6  and  C_11
REMARK    4  A    between atoms: C_8  and  O_9
REMARK    5  A    between atoms: O_9  and  C_10
REMARK    6  A    between atoms: C_11  and  C_12
REMARK    7  A    between atoms: C_12  and  N_13
REMARK    8  A    between atoms: C_14  and  C_16
REMARK    9  A    between atoms: C_20  and  N_22
REMARK   10  A    between atoms: N_22  and  C_23
REMARK   11  A    between atoms: N_33  and  C_34
REMARK   12  A    between atoms: C_34  and  C_35
REMARK                            x       y       z     vdW  Elec       q    Type
REMARK                         _______ _______ _______ _____ _____    ______ ____
ROOT
ATOM      1  C   UNL     1       6.703  -3.988  -6.484  0.00  0.00    +0.038 A 
ATOM      2  C   UNL     1       5.928  -4.432  -7.557  0.00  0.00    +0.013 A 
ATOM      3  C   UNL     1       6.489  -5.235  -8.528  0.00  0.00    +0.003 A 
ATOM      4  C   UNL     1       7.819  -5.604  -8.444  0.00  0.00    +0.023 A 
ATOM      5  C   UNL     1       8.599  -5.167  -7.380  0.00  0.00    +0.029 A 
ATOM      6  C   UNL     1       8.046  -4.355  -6.402  0.00  0.00    +0.036 A 
ENDROOT
BRANCH   1   8
ATOM      7  N   UNL     1       4.806  -2.774  -5.523  0.00  0.00    -0.311 N 
ATOM      8  C   UNL     1       6.104  -3.127  -5.442  0.00  0.00    +0.244 C 
ATOM      9  O   UNL     1       6.782  -2.738  -4.511  0.00  0.00    -0.270 OA
ATOM     10  H   UNL     1       4.265  -3.085  -6.266  0.00  0.00    +0.149 HD
BRANCH   7  11
ATOM     11  C   UNL     1       4.213  -1.921  -4.490  0.00  0.00    +0.109 C 
BRANCH  11  12
ATOM     12  C   UNL     1       2.739  -1.673  -4.819  0.00  0.00    +0.054 C 
BRANCH  12  16
ATOM     13  C   UNL     1       1.008   0.821  -1.808  0.00  0.00    +0.161 A 
ATOM     14  C   UNL     1       1.594   1.388  -2.928  0.00  0.00    +0.049 A 
ATOM     15  C   UNL     1       2.153   0.579  -3.899  0.00  0.00    +0.007 A 
ATOM     16  C   UNL     1       2.128  -0.796  -3.757  0.00  0.00    -0.042 A 
ATOM     17  C   UNL     1       1.544  -1.368  -2.642  0.00  0.00    +0.053 A 
ATOM     18  C   UNL     1       0.988  -0.562  -1.661  0.00  0.00    +0.162 A 
BRANCH  13  20
ATOM     19  C   UNL     1       0.514   3.027  -1.068  0.00  0.00    +0.277 C 
ATOM     20  O   UNL     1       0.457   1.616  -0.851  0.00  0.00    -0.491 OA
ENDBRANCH  13  20
BRANCH  18  21
ATOM     21  O   UNL     1       0.418  -1.123  -0.561  0.00  0.00    -0.491 OA
ATOM     22  C   UNL     1       0.434  -2.550  -0.478  0.00  0.00    +0.277 C 
ENDBRANCH  18  21
ENDBRANCH  12  16
ENDBRANCH  11  12
ENDBRANCH   7  11
ENDBRANCH   1   8
BRANCH   5  23
ATOM     23  N   UNL     1       9.943  -5.543  -7.299  0.00  0.00    -0.322 N 
ATOM     24  H   UNL     1      10.465  -5.311  -6.515  0.00  0.00    +0.148 HD
BRANCH  23  25
ATOM     25  C   UNL     1      10.562  -6.288  -8.397  0.00  0.00    +0.193 C 
ATOM     26  C   UNL     1      11.953  -5.766  -8.658  0.00  0.00    +0.003 A 
ATOM     27  C   UNL     1      12.443  -4.536  -9.035  0.00  0.00    +0.008 A 
ATOM     28  C   UNL     1      13.806  -4.356  -9.201  0.00  0.00    +0.000 A 
ATOM     29  C   UNL     1      14.678  -5.409  -8.988  0.00  0.00    +0.001 A 
ATOM     30  C   UNL     1      14.197  -6.646  -8.609  0.00  0.00    +0.013 A 
ATOM     31  C   UNL     1      12.824  -6.835  -8.441  0.00  0.00    +0.043 A 
ATOM     32  C   UNL     1      12.024  -8.012  -8.052  0.00  0.00    +0.249 C 
ATOM     33  O   UNL     1      12.481  -9.108  -7.792  0.00  0.00    -0.270 OA
ATOM     34  N   UNL     1      10.716  -7.699  -8.026  0.00  0.00    -0.273 N 
BRANCH  34  35
ATOM     35  C   UNL     1       9.624  -8.615  -7.685  0.00  0.00    +0.141 C 
BRANCH  35  36
ATOM     36  C   UNL     1       9.127  -9.311  -8.953  0.00  0.00    +0.136 C 
ATOM     37  C   UNL     1       7.948 -10.260  -8.619  0.00  0.00    +0.035 C 
ATOM     38  C   UNL     1       7.223 -10.324  -9.991  0.00  0.00    +0.031 C 
ATOM     39  C   UNL     1       7.451  -8.902 -10.549  0.00  0.00    +0.160 C 
ATOM     40  O   UNL     1       8.587  -8.348  -9.872  0.00  0.00    -0.375 OA
ENDBRANCH  35  36
ENDBRANCH  34  35
ENDBRANCH  23  25
ENDBRANCH   5  23
TORSDOF 10
