REMARK  Name = ZINC10624774
REMARK  13 active torsions:
REMARK  status: ('A' for Active; 'I' for Inactive)
REMARK    1  A    between atoms: C_1  and  C_2
REMARK    2  A    between atoms: C_4  and  C_18
REMARK    3  A    between atoms: C_5  and  C_17
REMARK    4  A    between atoms: N_6  and  C_7
REMARK    5  A    between atoms: C_10  and  S_13
REMARK    6  A    between atoms: S_13  and  N_16
REMARK    7  A    between atoms: C_18  and  C_20
REMARK    8  A    between atoms: C_20  and  O_21
REMARK    9  A    between atoms: O_21  and  C_22
REMARK   10  A    between atoms: C_22  and  C_24
REMARK   11  A    between atoms: C_24  and  C_25
REMARK   12  A    between atoms: C_25  and  C_26
REMARK   13  A    between atoms: C_26  and  C_27
REMARK                            x       y       z     vdW  Elec       q    Type
REMARK                         _______ _______ _______ _____ _____    ______ ____
ROOT
ATOM      1  C   UNL     1      -5.370   3.061   3.692  0.00  0.00    +0.064 C 
ATOM      2  C   UNL     1      -4.432   3.232   4.859  0.00  0.00    +0.022 A 
ATOM      3  C   UNL     1      -4.792   3.591   6.102  0.00  0.00    +0.034 A 
ATOM      4  C   UNL     1      -3.557   3.638   6.896  0.00  0.00    +0.042 A 
ATOM      5  C   UNL     1      -2.537   3.285   6.032  0.00  0.00    +0.032 A 
ATOM      6  N   UNL     1      -3.078   3.044   4.822  0.00  0.00    -0.317 N 
ATOM      7  C   UNL     1      -1.075   3.188   6.382  0.00  0.00    +0.064 C 
ENDROOT
BRANCH   6   8
ATOM      8  C   UNL     1      -2.355   2.659   3.684  0.00  0.00    +0.047 A 
ATOM      9  C   UNL     1      -2.560   1.408   3.119  0.00  0.00    +0.028 A 
ATOM     10  C   UNL     1      -1.846   1.032   1.999  0.00  0.00    +0.030 A 
ATOM     11  C   UNL     1      -0.927   1.900   1.439  0.00  0.00    +0.105 A 
ATOM     12  C   UNL     1      -0.716   3.145   2.003  0.00  0.00    +0.030 A 
ATOM     13  C   UNL     1      -1.432   3.529   3.120  0.00  0.00    +0.028 A 
BRANCH  11  14
ATOM     14  S   UNL     1      -0.017   1.417   0.010  0.00  0.00    +0.056 S 
ATOM     15  O   UNL     1       0.002  -0.004   0.002  0.00  0.00    -0.153 OA
ATOM     16  O   UNL     1       1.172   2.195   0.003  0.00  0.00    -0.153 OA
BRANCH  14  17
ATOM     17  N   UNL     1      -0.897   1.885  -1.312  0.00  0.00    -0.204 NA
ATOM     18  H   UNL     1      -1.201   1.223  -1.952  0.00  0.00    +0.144 HD
ATOM     19  H   UNL     1      -1.110   2.822  -1.446  0.00  0.00    +0.144 HD
ENDBRANCH  14  17
ENDBRANCH  11  14
ENDBRANCH   6   8
BRANCH   4  20
ATOM     20  C   UNL     1      -3.431   3.986   8.313  0.00  0.00    +0.202 C 
ATOM     21  O   UNL     1      -2.340   3.983   8.844  0.00  0.00    -0.288 OA
BRANCH  20  22
ATOM     22  C   UNL     1      -4.657   4.347   9.111  0.00  0.00    +0.311 C 
BRANCH  22  23
ATOM     23  O   UNL     1      -4.272   4.649  10.479  0.00  0.00    -0.457 OA
BRANCH  23  24
ATOM     24  C   UNL     1      -5.254   4.993  11.326  0.00  0.00    +0.307 C 
ATOM     25  O   UNL     1      -6.398   5.039  10.939  0.00  0.00    -0.251 OA
BRANCH  24  26
ATOM     26  C   UNL     1      -4.931   5.320  12.761  0.00  0.00    +0.121 C 
BRANCH  26  27
ATOM     27  C   UNL     1      -6.219   5.676  13.506  0.00  0.00    +0.016 C 
BRANCH  27  28
ATOM     28  C   UNL     1      -5.890   6.008  14.963  0.00  0.00    +0.038 C 
BRANCH  28  29
ATOM     29  C   UNL     1      -7.159   6.359  15.697  0.00  0.00    -0.022 A 
ATOM     30  C   UNL     1      -7.647   7.592  15.904  0.00  0.00    +0.087 A 
ATOM     31  N   UNL     1      -8.820   7.518  16.606  0.00  0.00    -0.360 N 
ATOM     32  H   UNL     1      -9.358   8.279  16.873  0.00  0.00    +0.165 HD
ATOM     33  C   UNL     1      -9.117   6.202  16.882  0.00  0.00    +0.047 A 
ATOM     34  C   UNL     1      -8.091   5.418  16.325  0.00  0.00    +0.003 A 
ATOM     35  C   UNL     1      -8.129   4.029  16.450  0.00  0.00    +0.010 A 
ATOM     36  C   UNL     1      -9.165   3.436  17.115  0.00  0.00    +0.001 A 
ATOM     37  C   UNL     1     -10.181   4.205  17.667  0.00  0.00    +0.002 A 
ATOM     38  C   UNL     1     -10.163   5.578  17.555  0.00  0.00    +0.026 A 
ENDBRANCH  28  29
ENDBRANCH  27  28
ENDBRANCH  26  27
ENDBRANCH  24  26
ENDBRANCH  23  24
ENDBRANCH  22  23
ENDBRANCH  20  22
ENDBRANCH   4  20
TORSDOF 11
