REMARK  Name = ZINC35268672
REMARK  8 active torsions:
REMARK  status: ('A' for Active; 'I' for Inactive)
REMARK    1  A    between atoms: C_1  and  C_2
REMARK    2  A    between atoms: C_5  and  S_8
REMARK    3  A    between atoms: S_8  and  N_11
REMARK    4  A    between atoms: N_11  and  C_12
REMARK    5  A    between atoms: C_12  and  C_14
REMARK    6  A    between atoms: C_12  and  C_21
REMARK    7  A    between atoms: C_14  and  C_15
REMARK    8  A    between atoms: C_27  and  C_29
REMARK                            x       y       z     vdW  Elec       q    Type
REMARK                         _______ _______ _______ _____ _____    ______ ____
ROOT
ATOM      1  C   UNL     1       2.629  -4.769   1.353  0.00  0.00    +0.167 C 
ENDROOT
BRANCH   1   2
ATOM      2  C   UNL     1       3.523  -5.982   1.357  0.00  0.00    +0.238 C 
ATOM      3  O   UNL     1       3.233  -6.951   0.687  0.00  0.00    -0.274 OA
ATOM      4  N   UNL     1       4.644  -5.990   2.104  0.00  0.00    -0.262 N 
ATOM      5  C   UNL     1       5.469  -7.109   2.107  0.00  0.00    +0.188 A 
ATOM      6  N   UNL     1       5.348  -8.258   1.456  0.00  0.00    -0.125 NA
ATOM      7  N   UNL     1       6.198  -9.183   1.573  0.00  0.00    -0.140 NA
ATOM      8  C   UNL     1       7.263  -9.061   2.355  0.00  0.00    +0.134 A 
ATOM      9  S   UNL     1       7.000  -7.407   2.986  0.00  0.00    -0.030 S 
ATOM     10  H   UNL     1       4.876  -5.215   2.639  0.00  0.00    +0.157 HD
BRANCH   8  11
ATOM     11  C   UNL     1       8.359 -10.017   2.623  0.00  0.00    +0.009 A 
ATOM     12  C   UNL     1       9.389  -9.673   3.500  0.00  0.00    +0.012 A 
ATOM     13  C   UNL     1      10.409 -10.569   3.746  0.00  0.00    +0.020 A 
ATOM     14  C   UNL     1      10.412 -11.807   3.126  0.00  0.00    +0.041 A 
ATOM     15  C   UNL     1       9.392 -12.153   2.255  0.00  0.00    +0.020 A 
ATOM     16  C   UNL     1       8.364 -11.268   2.005  0.00  0.00    +0.012 A 
ATOM     17 CL   UNL     1      11.698 -12.929   3.441  0.00  0.00    -0.084 Cl
ENDBRANCH   8  11
ENDBRANCH   1   2
BRANCH   1  18
ATOM     18  N   UNL     1       1.485  -5.008   0.469  0.00  0.00    -0.178 NA
ATOM     19  H   UNL     1       1.562  -4.833  -0.482  0.00  0.00    +0.149 HD
BRANCH  18  20
ATOM     20  S   UNL     1       0.061  -5.576   1.095  0.00  0.00    +0.059 S 
ATOM     21  O   UNL     1       0.386  -6.722   1.869  0.00  0.00    -0.153 OA
ATOM     22  O   UNL     1      -0.866  -5.622   0.018  0.00  0.00    -0.153 OA
BRANCH  20  27
ATOM     23  C   UNL     1      -1.986  -1.413   4.953  0.00  0.00    +0.044 C 
ATOM     24  C   UNL     1      -1.475  -2.453   3.989  0.00  0.00    -0.050 A 
ATOM     25  C   UNL     1      -1.865  -2.418   2.664  0.00  0.00    +0.005 A 
ATOM     26  C   UNL     1      -1.396  -3.372   1.780  0.00  0.00    +0.029 A 
ATOM     27  C   UNL     1      -0.536  -4.360   2.221  0.00  0.00    +0.105 A 
ATOM     28  C   UNL     1      -0.145  -4.394   3.546  0.00  0.00    +0.029 A 
ATOM     29  C   UNL     1      -0.611  -3.438   4.429  0.00  0.00    +0.005 A 
ENDBRANCH  20  27
ENDBRANCH  18  20
ENDBRANCH   1  18
BRANCH   1  30
ATOM     30  C   UNL     1       3.416  -3.557   0.851  0.00  0.00    +0.065 C 
BRANCH  30  31
ATOM     31  C   UNL     1       2.555  -2.324   0.946  0.00  0.00    -0.045 A 
ATOM     32  C   UNL     1       1.840  -1.893  -0.156  0.00  0.00    +0.004 A 
ATOM     33  C   UNL     1       1.050  -0.762  -0.069  0.00  0.00    +0.000 A 
ATOM     34  C   UNL     1       0.974  -0.062   1.120  0.00  0.00    +0.000 A 
ATOM     35  C   UNL     1       1.689  -0.492   2.222  0.00  0.00    +0.000 A 
ATOM     36  C   UNL     1       2.475  -1.626   2.136  0.00  0.00    +0.004 A 
ENDBRANCH  30  31
ENDBRANCH   1  30
TORSDOF 7
