REMARK  Name = ZINC66121737
REMARK  8 active torsions:
REMARK  status: ('A' for Active; 'I' for Inactive)
REMARK    1  A    between atoms: C_1  and  C_2
REMARK    2  A    between atoms: C_2  and  C_3
REMARK    3  A    between atoms: C_2  and  C_4
REMARK    4  A    between atoms: C_2  and  C_20
REMARK    5  A    between atoms: C_4  and  N_5
REMARK    6  A    between atoms: C_12  and  C_15
REMARK    7  A    between atoms: C_15  and  C_16
REMARK    8  A    between atoms: C_16  and  C_17
REMARK                            x       y       z     vdW  Elec       q    Type
REMARK                         _______ _______ _______ _____ _____    ______ ____
ROOT
ATOM      1  N   UNL     1      -2.118  -0.065   1.220  0.00  0.00    -0.298 N 
ATOM      2  C   UNL     1      -3.403  -0.406   1.442  0.00  0.00    +0.302 C 
ATOM      3  O   UNL     1      -4.021  -1.028   0.600  0.00  0.00    -0.253 OA
ATOM      4  N   UNL     1      -4.003  -0.056   2.597  0.00  0.00    -0.285 N 
ATOM      5  C   UNL     1      -3.310   0.797   3.572  0.00  0.00    +0.109 C 
ATOM      6  C   UNL     1      -4.205   1.996   3.902  0.00  0.00    +0.019 C 
ATOM      7  C   UNL     1      -5.574   1.493   4.367  0.00  0.00    +0.006 C 
ATOM      8  C   UNL     1      -6.234   0.692   3.243  0.00  0.00    +0.007 C 
ATOM      9  C   UNL     1      -5.364  -0.516   2.903  0.00  0.00    +0.112 C 
ATOM     10  H   UNL     1      -1.646   0.492   1.859  0.00  0.00    +0.150 HD
ENDROOT
BRANCH   1  11
ATOM     11  C   UNL     1      -1.432  -0.538   0.015  0.00  0.00    +0.116 C 
BRANCH  11  13
ATOM     12  C   UNL     1      -0.010   1.517   0.018  0.00  0.00    +0.017 C 
ATOM     13  C   UNL     1       0.005  -0.013   0.006  0.00  0.00    +0.006 C 
ATOM     14  C   UNL     1       0.742  -0.525   1.245  0.00  0.00    +0.017 C 
BRANCH  13  15
ATOM     15  C   UNL     1       0.710  -0.499  -1.234  0.00  0.00    -0.039 A 
ATOM     16  C   UNL     1       0.036  -1.289  -2.147  0.00  0.00    +0.004 A 
ATOM     17  C   UNL     1       0.682  -1.735  -3.285  0.00  0.00    +0.002 A 
ATOM     18  C   UNL     1       2.002  -1.392  -3.510  0.00  0.00    +0.020 A 
ATOM     19  C   UNL     1       2.676  -0.601  -2.597  0.00  0.00    +0.041 A 
ATOM     20  C   UNL     1       2.027  -0.150  -1.461  0.00  0.00    +0.024 A 
ATOM     21 CL   UNL     1       4.334  -0.170  -2.879  0.00  0.00    -0.084 Cl
ENDBRANCH  13  15
ENDBRANCH  11  13
ENDBRANCH   1  11
BRANCH   8  22
ATOM     22  C   UNL     1      -7.616   0.218   3.697  0.00  0.00    +0.014 C 
BRANCH  22  23
ATOM     23  C   UNL     1      -8.326  -0.475   2.532  0.00  0.00    +0.096 C 
BRANCH  23  24
ATOM     24  C   UNL     1      -9.687  -0.941   2.979  0.00  0.00    +0.210 C 
ATOM     25  O   UNL     1     -10.053  -0.740   4.118  0.00  0.00    -0.276 OA
ATOM     26  N   UNL     1     -10.497  -1.583   2.114  0.00  0.00    -0.329 N 
ATOM     27  H   UNL     1     -10.204  -1.744   1.204  0.00  0.00    +0.145 HD
ATOM     28  H   UNL     1     -11.373  -1.883   2.402  0.00  0.00    +0.145 HD
ENDBRANCH  23  24
ENDBRANCH  22  23
ENDBRANCH   8  22
TORSDOF 6
