REMARK  Name = ZINC39946032
REMARK  11 active torsions:
REMARK  status: ('A' for Active; 'I' for Inactive)
REMARK    1  A    between atoms: C_1  and  C_2
REMARK    2  A    between atoms: C_2  and  C_4
REMARK    3  A    between atoms: C_2  and  O_32
REMARK    4  A    between atoms: C_4  and  C_6
REMARK    5  A    between atoms: C_4  and  N_21
REMARK    6  A    between atoms: C_6  and  O_8
REMARK    7  A    between atoms: O_8  and  C_9
REMARK    8  A    between atoms: C_9  and  C_10
REMARK    9  A    between atoms: C_10  and  C_12
REMARK   10  A    between atoms: N_21  and  S_22
REMARK   11  A    between atoms: S_22  and  C_25
REMARK                            x       y       z     vdW  Elec       q    Type
REMARK                         _______ _______ _______ _____ _____    ______ ____
ROOT
ATOM      1  C   UNL     1      -1.433  -0.534   0.013  0.00  0.00    +0.213 C 
ENDROOT
BRANCH   1   3
ATOM      2  C   UNL     1      -0.019   1.526   0.010  0.00  0.00    +0.040 C 
ATOM      3  C   UNL     1       0.002  -0.004   0.002  0.00  0.00    +0.141 C 
BRANCH   3   4
ATOM      4  O   UNL     1       0.671  -0.465  -1.174  0.00  0.00    -0.390 OA
ATOM      5  H   UNL     1       1.588  -0.167  -1.247  0.00  0.00    +0.210 HD
ENDBRANCH   3   4
ENDBRANCH   1   3
BRANCH   1   6
ATOM      6  C   UNL     1      -2.125  -0.137  -1.266  0.00  0.00    +0.329 C 
ATOM      7  O   UNL     1      -2.557  -0.988  -2.008  0.00  0.00    -0.249 OA
BRANCH   6   8
ATOM      8  O   UNL     1      -2.260   1.160  -1.581  0.00  0.00    -0.455 OA
BRANCH   8   9
ATOM      9  C   UNL     1      -2.926   1.464  -2.809  0.00  0.00    +0.311 C 
BRANCH   9  10
ATOM     10  C   UNL     1      -2.984   2.958  -2.993  0.00  0.00    +0.199 C 
ATOM     11  O   UNL     1      -2.502   3.692  -2.155  0.00  0.00    -0.289 OA
BRANCH  10  12
ATOM     12  C   UNL     1      -3.598   3.504  -4.140  0.00  0.00    +0.026 C 
ATOM     13  C   UNL     1      -3.729   4.843  -4.461  0.00  0.00    +0.006 A 
ATOM     14  C   UNL     1      -3.329   6.033  -3.809  0.00  0.00    +0.010 A 
ATOM     15  C   UNL     1      -3.594   7.237  -4.364  0.00  0.00    +0.001 A 
ATOM     16  C   UNL     1      -4.266   7.370  -5.590  0.00  0.00    +0.002 A 
ATOM     17  C   UNL     1      -4.690   6.298  -6.293  0.00  0.00    +0.026 A 
ATOM     18  C   UNL     1      -4.441   4.949  -5.759  0.00  0.00    +0.043 A 
ATOM     19  N   UNL     1      -4.734   3.765  -6.216  0.00  0.00    -0.380 N 
ATOM     20  C   UNL     1      -4.245   2.748  -5.279  0.00  0.00    +0.152 C 
ATOM     21  H   UNL     1      -5.199   3.584  -7.048  0.00  0.00    +0.160 HD
ENDBRANCH  10  12
ENDBRANCH   9  10
ENDBRANCH   8   9
ENDBRANCH   6   8
ENDBRANCH   1   6
BRANCH   1  22
ATOM     22  N   UNL     1      -1.414  -1.994   0.125  0.00  0.00    -0.174 NA
ATOM     23  H   UNL     1      -1.317  -2.541  -0.670  0.00  0.00    +0.149 HD
BRANCH  22  24
ATOM     24  S   UNL     1      -1.558  -2.712   1.611  0.00  0.00    +0.059 S 
ATOM     25  O   UNL     1      -1.531  -4.115   1.387  0.00  0.00    -0.153 OA
ATOM     26  O   UNL     1      -0.632  -2.060   2.468  0.00  0.00    -0.153 OA
BRANCH  24  27
ATOM     27  C   UNL     1      -3.166  -2.330   2.221  0.00  0.00    +0.105 A 
ATOM     28  C   UNL     1      -3.365  -1.189   2.975  0.00  0.00    +0.030 A 
ATOM     29  C   UNL     1      -4.626  -0.888   3.454  0.00  0.00    +0.022 A 
ATOM     30  C   UNL     1      -5.689  -1.730   3.179  0.00  0.00    +0.041 A 
ATOM     31  C   UNL     1      -5.489  -2.872   2.424  0.00  0.00    +0.022 A 
ATOM     32  C   UNL     1      -4.229  -3.168   1.940  0.00  0.00    +0.030 A 
ATOM     33 CL   UNL     1      -7.274  -1.353   3.780  0.00  0.00    -0.084 Cl
ENDBRANCH  24  27
ENDBRANCH  22  24
ENDBRANCH   1  22
TORSDOF 10
