REMARK  Name = ZINC08900081
REMARK  9 active torsions:
REMARK  status: ('A' for Active; 'I' for Inactive)
REMARK    1  A    between atoms: C_3  and  C_6
REMARK    2  A    between atoms: C_6  and  N_7
REMARK    3  A    between atoms: C_8  and  C_29
REMARK    4  A    between atoms: C_11  and  S_12
REMARK    5  A    between atoms: S_12  and  C_13
REMARK    6  A    between atoms: C_13  and  C_14
REMARK    7  A    between atoms: C_14  and  C_16
REMARK    8  A    between atoms: C_17  and  N_28
REMARK    9  A    between atoms: N_18  and  C_25
REMARK                            x       y       z     vdW  Elec       q    Type
REMARK                         _______ _______ _______ _____ _____    ______ ____
ROOT
ATOM      1  S   UNL     1      -2.632   0.482  -0.420  0.00  0.00    -0.078 S 
ENDROOT
BRANCH   1   6
ATOM      2  N   UNL     1      -5.252   1.453  -0.284  0.00  0.00    -0.295 N 
ATOM      3  C   UNL     1      -5.849   2.692  -0.224  0.00  0.00    +0.165 A 
ATOM      4  N   UNL     1      -4.886   3.584  -0.239  0.00  0.00    -0.128 NA
ATOM      5  N   UNL     1      -3.745   2.997  -0.298  0.00  0.00    -0.122 NA
ATOM      6  C   UNL     1      -3.909   1.694  -0.333  0.00  0.00    +0.193 A 
BRANCH   3   7
ATOM      7  C   UNL     1      -7.300   2.965  -0.155  0.00  0.00    +0.019 A 
ATOM      8  C   UNL     1      -7.787   4.240  -0.448  0.00  0.00    +0.013 A 
ATOM      9  C   UNL     1      -9.143   4.488  -0.388  0.00  0.00    +0.021 A 
ATOM     10  C   UNL     1     -10.019   3.478  -0.028  0.00  0.00    +0.041 A 
ATOM     11  C   UNL     1      -9.541   2.212   0.269  0.00  0.00    +0.021 A 
ATOM     12  C   UNL     1      -8.188   1.951   0.207  0.00  0.00    +0.013 A 
ATOM     13 CL   UNL     1     -11.723   3.799   0.053  0.00  0.00    -0.084 Cl
ENDBRANCH   3   7
BRANCH   2  14
ATOM     14  C   UNL     1      -5.919   0.149  -0.293  0.00  0.00    +0.200 C 
BRANCH  14  17
ATOM     15  C   UNL     1      -6.546  -0.993   3.155  0.00  0.00    +0.041 A 
ATOM     16  C   UNL     1      -6.956  -0.328   1.976  0.00  0.00    +0.046 A 
ATOM     17  C   UNL     1      -5.936  -0.416   1.104  0.00  0.00    +0.125 A 
ATOM     18  O   UNL     1      -4.932  -1.088   1.692  0.00  0.00    -0.466 OA
ATOM     19  C   UNL     1      -5.297  -1.440   2.936  0.00  0.00    +0.195 A 
ENDBRANCH  14  17
ENDBRANCH   2  14
ENDBRANCH   1   6
BRANCH   1  20
ATOM     20  C   UNL     1      -1.178   1.559  -0.451  0.00  0.00    +0.157 C 
BRANCH  20  21
ATOM     21  C   UNL     1       0.070   0.717  -0.526  0.00  0.00    +0.182 C 
ATOM     22  O   UNL     1      -0.017  -0.494  -0.556  0.00  0.00    -0.291 OA
BRANCH  21  23
ATOM     23  C   UNL     1       1.337   1.335  -0.568  0.00  0.00    +0.120 A 
ATOM     24  C   UNL     1       2.518   0.574  -0.522  0.00  0.00    +0.116 A 
ATOM     25  N   UNL     1       3.721   1.217  -0.569  0.00  0.00    -0.278 N 
ATOM     26  C   UNL     1       3.794   2.555  -0.648  0.00  0.00    +0.331 A 
ATOM     27  O   UNL     1       4.890   3.081  -0.683  0.00  0.00    -0.246 OA
ATOM     28  N   UNL     1       2.702   3.335  -0.690  0.00  0.00    -0.274 N 
ATOM     29  H   UNL     1       2.806   4.327  -0.749  0.00  0.00    +0.173 HD
ATOM     30  C   UNL     1       1.465   2.796  -0.654  0.00  0.00    +0.266 A 
ATOM     31  O   UNL     1       0.477   3.505  -0.692  0.00  0.00    -0.267 OA
BRANCH  25  32
ATOM     32  C   UNL     1       4.958   0.432  -0.528  0.00  0.00    +0.094 C 
ATOM     33  C   UNL     1       6.043   0.768  -1.553  0.00  0.00    +0.027 C 
ATOM     34  C   UNL     1       5.229  -0.520  -1.694  0.00  0.00    +0.027 C 
ENDBRANCH  25  32
BRANCH  24  35
ATOM     35  N   UNL     1       2.462  -0.783  -0.436  0.00  0.00    -0.344 N 
ATOM     36  H   UNL     1       1.608  -1.238  -0.493  0.00  0.00    +0.144 HD
ATOM     37  H   UNL     1       3.278  -1.295  -0.318  0.00  0.00    +0.144 HD
ENDBRANCH  24  35
ENDBRANCH  21  23
ENDBRANCH  20  21
ENDBRANCH   1  20
TORSDOF 9
