REMARK  Name = ZINC66668566
REMARK  13 active torsions:
REMARK  status: ('A' for Active; 'I' for Inactive)
REMARK    1  A    between atoms: C_1  and  C_2
REMARK    2  A    between atoms: C_2  and  C_3
REMARK    3  A    between atoms: C_3  and  N_4
REMARK    4  A    between atoms: C_7  and  C_10
REMARK    5  A    between atoms: C_10  and  N_11
REMARK    6  A    between atoms: C_17  and  C_20
REMARK    7  A    between atoms: C_17  and  N_21
REMARK    8  A    between atoms: N_21  and  C_22
REMARK    9  A    between atoms: C_23  and  O_25
REMARK   10  A    between atoms: O_25  and  C_26
REMARK   11  A    between atoms: C_26  and  C_27
REMARK   12  A    between atoms: C_26  and  C_28
REMARK   13  A    between atoms: C_26  and  C_29
REMARK                            x       y       z     vdW  Elec       q    Type
REMARK                         _______ _______ _______ _____ _____    ______ ____
ROOT
ATOM      1  N   UNL     1      -3.861  -5.404  -2.426  0.00  0.00    -0.299 N 
ATOM      2  C   UNL     1      -4.812  -5.985  -3.182  0.00  0.00    +0.302 C 
ATOM      3  O   UNL     1      -5.755  -5.330  -3.582  0.00  0.00    -0.253 OA
ATOM      4  N   UNL     1      -4.719  -7.293  -3.495  0.00  0.00    -0.286 N 
ATOM      5  C   UNL     1      -3.652  -8.125  -2.922  0.00  0.00    +0.111 C 
ATOM      6  C   UNL     1      -2.903  -8.821  -4.063  0.00  0.00    +0.045 C 
ATOM      7  C   UNL     1      -3.903  -9.589  -4.931  0.00  0.00    +0.040 C 
ATOM      8  C   UNL     1      -4.910  -8.611  -5.540  0.00  0.00    +0.045 C 
ATOM      9  C   UNL     1      -5.685  -7.914  -4.411  0.00  0.00    +0.111 C 
ATOM     10  C   UNL     1      -3.155 -10.314  -6.051  0.00  0.00    +0.032 C 
ATOM     11  H   UNL     1      -3.150  -5.941  -2.042  0.00  0.00    +0.150 HD
ENDROOT
BRANCH   7  12
ATOM     12  N   UNL     1      -4.613 -10.569  -4.105  0.00  0.00    -0.265 N 
ATOM     13  C   UNL     1      -4.177 -10.821  -2.729  0.00  0.00    +0.136 C 
ATOM     14  C   UNL     1      -5.667 -11.240  -4.611  0.00  0.00    +0.404 C 
ATOM     15  O   UNL     1      -6.028 -11.032  -5.752  0.00  0.00    -0.226 OA
BRANCH  14  16
ATOM     16  O   UNL     1      -6.319 -12.141  -3.852  0.00  0.00    -0.445 OA
BRANCH  16  17
ATOM     17  C   UNL     1      -7.427 -12.815  -4.453  0.00  0.00    +0.107 C 
ATOM     18  C   UNL     1      -6.948 -13.585  -5.685  0.00  0.00    +0.055 C 
ATOM     19  C   UNL     1      -8.037 -13.792  -3.446  0.00  0.00    +0.055 C 
ATOM     20  C   UNL     1      -8.482 -11.788  -4.871  0.00  0.00    +0.055 C 
ENDBRANCH  16  17
ENDBRANCH  14  16
ENDBRANCH   7  12
BRANCH   1  21
ATOM     21  C   UNL     1      -3.899  -3.959  -2.183  0.00  0.00    +0.107 C 
BRANCH  21  25
ATOM     22  N   UNL     1      -1.342  -1.616  -1.005  0.00  0.00    +0.380 N 
ATOM     23  C   UNL     1      -0.746  -2.365  -2.141  0.00  0.00    -0.079 C 
ATOM     24  C   UNL     1      -1.387  -3.767  -2.060  0.00  0.00    -0.016 C 
ATOM     25  C   UNL     1      -2.714  -3.559  -1.302  0.00  0.00    -0.012 C 
ATOM     26  C   UNL     1      -2.763  -2.048  -0.988  0.00  0.00    -0.074 C 
ATOM     27  H   UNL     1      -0.887  -1.863  -0.139  0.00  0.00    -0.082 HD
BRANCH  22  28
ATOM     28  C   UNL     1      -1.248  -0.168  -1.239  0.00  0.00    -0.079 C 
BRANCH  28  30
ATOM     29  C   UNL     1       0.311   1.780  -1.373  0.00  0.00    +0.002 C 
ATOM     30  C   UNL     1       0.213   0.272  -1.129  0.00  0.00    -0.022 C 
ENDBRANCH  28  30
ENDBRANCH  22  28
ENDBRANCH  21  25
ENDBRANCH   1  21
TORSDOF 7
