REMARK  Name = ZINC65273683
REMARK  6 active torsions:
REMARK  status: ('A' for Active; 'I' for Inactive)
REMARK    1  A    between atoms: C_1  and  C_2
REMARK    2  A    between atoms: C_2  and  C_3
REMARK    3  A    between atoms: C_2  and  C_4
REMARK    4  A    between atoms: C_18  and  C_22
REMARK    5  A    between atoms: N_24  and  C_25
REMARK    6  A    between atoms: C_25  and  C_26
REMARK                            x       y       z     vdW  Elec       q    Type
REMARK                         _______ _______ _______ _____ _____    ______ ____
ROOT
ATOM      1  C   UNL     1       0.708  -0.618   1.183  0.00  0.00    +0.218 C 
ATOM      2  O   UNL     1       1.706  -1.286   1.014  0.00  0.00    -0.275 OA
ATOM      3  N   UNL     1       0.227  -0.429   2.428  0.00  0.00    -0.298 N 
ATOM      4  C   UNL     1      -1.046   0.275   2.640  0.00  0.00    +0.126 C 
ATOM      5  C   UNL     1      -1.975  -0.629   3.460  0.00  0.00    +0.126 C 
ATOM      6  N   UNL     1      -1.236  -1.123   4.630  0.00  0.00    -0.307 N 
ATOM      7  C   UNL     1       0.036  -1.828   4.419  0.00  0.00    +0.126 C 
ATOM      8  C   UNL     1       0.963  -0.929   3.598  0.00  0.00    +0.126 C 
ATOM      9  C   UNL     1      -1.731  -0.929   5.910  0.00  0.00    +0.161 A 
ATOM     10  N   UNL     1      -2.844  -0.331   6.275  0.00  0.00    -0.229 NA
ATOM     11  C   UNL     1      -3.195  -0.218   7.554  0.00  0.00    +0.054 A 
ATOM     12  C   UNL     1      -2.321  -0.764   8.436  0.00  0.00    +0.015 A 
ATOM     13  S   UNL     1      -1.055  -1.408   7.378  0.00  0.00    -0.057 S 
ATOM     14  C   UNL     1      -2.430  -0.801   9.923  0.00  0.00    +0.057 C 
ATOM     15  C   UNL     1      -3.875  -0.446  10.307  0.00  0.00    +0.080 C 
ATOM     16  C   UNL     1      -4.301   0.801   9.527  0.00  0.00    +0.019 C 
ATOM     17  C   UNL     1      -4.466   0.462   8.043  0.00  0.00    +0.057 C 
ENDROOT
BRANCH  15  18
ATOM     18  C   UNL     1      -3.951  -0.169  11.787  0.00  0.00    +0.216 C 
ATOM     19  O   UNL     1      -4.321   0.916  12.182  0.00  0.00    -0.276 OA
ATOM     20  N   UNL     1      -3.607  -1.127  12.670  0.00  0.00    -0.315 N 
ATOM     21  H   UNL     1      -3.311  -1.994  12.354  0.00  0.00    +0.149 HD
BRANCH  20  22
ATOM     22  C   UNL     1      -3.680  -0.857  14.108  0.00  0.00    +0.107 C 
BRANCH  22  23
ATOM     23  C   UNL     1      -3.239  -2.101  14.883  0.00  0.00    +0.006 C 
ATOM     24  C   UNL     1      -4.233  -3.237  14.633  0.00  0.00    +0.005 C 
ATOM     25  C   UNL     1      -3.792  -4.480  15.408  0.00  0.00    +0.000 C 
ATOM     26  C   UNL     1      -3.749  -4.161  16.903  0.00  0.00    +0.000 C 
ATOM     27  C   UNL     1      -2.755  -3.025  17.154  0.00  0.00    +0.000 C 
ATOM     28  C   UNL     1      -3.196  -1.781  16.379  0.00  0.00    +0.005 C 
ENDBRANCH  22  23
ENDBRANCH  20  22
ENDBRANCH  15  18
BRANCH   1  30
ATOM     29  C   UNL     1       1.003   0.194  -1.141  0.00  0.00    +0.017 C 
ATOM     30  C   UNL     1       0.005  -0.000   0.003  0.00  0.00    +0.069 C 
ATOM     31  C   UNL     1      -1.126  -0.922  -0.458  0.00  0.00    +0.017 C 
ENDBRANCH   1  30
TORSDOF 4
