REMARK  Name = ZINC44935725
REMARK  4 active torsions:
REMARK  status: ('A' for Active; 'I' for Inactive)
REMARK    1  A    between atoms: C_1  and  C_2
REMARK    2  A    between atoms: C_9  and  N_14
REMARK    3  A    between atoms: N_17  and  C_18
REMARK    4  A    between atoms: N_17  and  C_19
REMARK                            x       y       z     vdW  Elec       q    Type
REMARK                         _______ _______ _______ _____ _____    ______ ____
ROOT
ATOM      1  C   UNL     1       1.353   1.768   1.820  0.00  0.00    +0.062 C 
ATOM      2  C   UNL     1       0.883   0.399   2.315  0.00  0.00    +0.256 C 
ATOM      3  C   UNL     1       1.927  -0.190   3.229  0.00  0.00    +0.258 C 
ATOM      4  O   UNL     1       2.652   0.538   3.873  0.00  0.00    -0.271 OA
ATOM      5  N   UNL     1       2.051  -1.531   3.327  0.00  0.00    -0.279 N 
ATOM      6  C   UNL     1       1.224  -2.350   2.545  0.00  0.00    +0.077 A 
ATOM      7  C   UNL     1       1.085  -3.697   2.835  0.00  0.00    +0.050 A 
ATOM      8  C   UNL     1       0.262  -4.490   2.047  0.00  0.00    +0.037 A 
ATOM      9  C   UNL     1      -0.420  -3.933   0.973  0.00  0.00    +0.027 A 
ATOM     10  C   UNL     1      -0.282  -2.588   0.684  0.00  0.00    +0.049 A 
ATOM     11  C   UNL     1       0.537  -1.794   1.467  0.00  0.00    +0.143 A 
ATOM     12  O   UNL     1       0.681  -0.468   1.196  0.00  0.00    -0.478 OA
ATOM     13  H   UNL     1       2.703  -1.923   3.930  0.00  0.00    +0.155 HD
ENDROOT
BRANCH   8  14
ATOM     14  N   UNL     1       0.118  -5.854   2.337  0.00  0.00    -0.269 N 
ATOM     15  C   UNL     1       1.166  -6.555   2.813  0.00  0.00    +0.306 C 
ATOM     16  O   UNL     1       2.210  -5.989   3.071  0.00  0.00    -0.252 OA
ATOM     17  N   UNL     1       1.056  -7.885   3.004  0.00  0.00    -0.285 N 
ATOM     18  C   UNL     1      -0.202  -8.568   2.693  0.00  0.00    +0.134 C 
ATOM     19  H   UNL     1      -0.735  -6.293   2.194  0.00  0.00    +0.156 HD
BRANCH  17  20
ATOM     20  C   UNL     1       2.195  -8.647   3.522  0.00  0.00    +0.077 C 
ATOM     21  C   UNL     1       2.634  -9.673   2.457  0.00  0.00    +0.022 C 
ATOM     22  C   UNL     1       4.054 -10.081   2.744  0.00  0.00    +0.002 C 
ATOM     23  C   UNL     1       4.139 -11.360   3.599  0.00  0.00    +0.000 C 
ATOM     24  C   UNL     1       3.106 -11.385   4.741  0.00  0.00    +0.000 C 
ATOM     25  C   UNL     1       2.973 -10.052   5.427  0.00  0.00    +0.002 C 
ATOM     26  C   UNL     1       1.808  -9.279   4.775  0.00  0.00    +0.022 C 
ENDBRANCH  17  20
ENDBRANCH   8  14
TORSDOF 2
