REMARK  Name = ZINC20686320
REMARK  10 active torsions:
REMARK  status: ('A' for Active; 'I' for Inactive)
REMARK    1  A    between atoms: C_1  and  C_2
REMARK    2  A    between atoms: C_2  and  O_3
REMARK    3  A    between atoms: O_3  and  C_4
REMARK    4  A    between atoms: C_7  and  N_10
REMARK    5  A    between atoms: N_10  and  S_11
REMARK    6  A    between atoms: S_11  and  C_14
REMARK    7  A    between atoms: C_27  and  C_30
REMARK    8  A    between atoms: C_33  and  N_36
REMARK    9  A    between atoms: N_36  and  C_37
REMARK   10  A    between atoms: N_36  and  C_38
REMARK                            x       y       z     vdW  Elec       q    Type
REMARK                         _______ _______ _______ _____ _____    ______ ____
ROOT
ATOM      1  C   UNL     1       0.684  -2.644   0.648  0.00  0.00    +0.109 A 
ATOM      2  C   UNL     1      -0.635  -2.379   0.326  0.00  0.00    +0.030 A 
ATOM      3  C   UNL     1      -1.074  -1.071   0.263  0.00  0.00    +0.025 A 
ATOM      4  C   UNL     1      -0.192  -0.029   0.521  0.00  0.00    +0.031 A 
ATOM      5  C   UNL     1       1.130  -0.290   0.847  0.00  0.00    -0.018 A 
ATOM      6  C   UNL     1       1.559  -1.609   0.906  0.00  0.00    +0.034 A 
ATOM      7  C   UNL     1       2.113   0.798   1.139  0.00  0.00    +0.049 C 
ATOM      8  C   UNL     1       3.072   0.999  -0.011  0.00  0.00    -0.023 C 
ATOM      9  C   UNL     1       3.360   2.270  -0.145  0.00  0.00    -0.030 C 
ATOM     10  C   UNL     1       2.634   3.093   0.902  0.00  0.00    +0.033 C 
ATOM     11  C   UNL     1       1.448   2.176   1.323  0.00  0.00    +0.029 C 
ATOM     12  C   UNL     1       0.337   2.363   0.286  0.00  0.00    +0.105 C 
ATOM     13  N   UNL     1      -0.651   1.291   0.450  0.00  0.00    -0.336 N 
ATOM     14  H   UNL     1      -1.721   1.535   0.514  0.00  0.00    +0.147 HD
ENDROOT
BRANCH  12  15
ATOM     15  C   UNL     1       0.925   2.299  -1.101  0.00  0.00    -0.027 A 
ATOM     16  C   UNL     1       1.331   3.460  -1.732  0.00  0.00    +0.007 A 
ATOM     17  C   UNL     1       1.875   3.405  -3.000  0.00  0.00    +0.023 A 
ATOM     18  C   UNL     1       2.003   2.182  -3.646  0.00  0.00    +0.029 A 
ATOM     19  C   UNL     1       1.589   1.018  -3.012  0.00  0.00    +0.023 A 
ATOM     20  C   UNL     1       1.051   1.080  -1.741  0.00  0.00    +0.007 A 
BRANCH  18  21
ATOM     21  N   UNL     1       2.548   2.123  -4.931  0.00  0.00    -0.336 N 
ATOM     22  C   UNL     1       2.682   0.833  -5.611  0.00  0.00    +0.129 C 
ATOM     23  C   UNL     1       2.984   3.352  -5.599  0.00  0.00    +0.129 C 
ENDBRANCH  18  21
ENDBRANCH  12  15
BRANCH   1  24
ATOM     24  S   UNL     1       1.248  -4.311   0.728  0.00  0.00    +0.072 S 
ATOM     25  O   UNL     1       0.322  -5.090  -0.018  0.00  0.00    -0.150 OA
ATOM     26  O   UNL     1       2.637  -4.285   0.427  0.00  0.00    -0.150 OA
BRANCH  24  27
ATOM     27  N   UNL     1       1.115  -4.798   2.305  0.00  0.00    -0.216 N 
ATOM     28  H   UNL     1       0.448  -5.632   2.568  0.00  0.00    +0.174 HD
BRANCH  27  32
ATOM     29  C   UNL     1       3.308  -2.864   5.276  0.00  0.00    +0.121 A 
ATOM     30  C   UNL     1       1.964  -3.144   5.477  0.00  0.00    +0.047 A 
ATOM     31  C   UNL     1       1.237  -3.785   4.493  0.00  0.00    +0.028 A 
ATOM     32  C   UNL     1       1.851  -4.149   3.302  0.00  0.00    +0.048 A 
ATOM     33  C   UNL     1       3.198  -3.874   3.104  0.00  0.00    +0.028 A 
ATOM     34  C   UNL     1       3.922  -3.228   4.087  0.00  0.00    +0.047 A 
BRANCH  29  35
ATOM     35  O   UNL     1       4.023  -2.234   6.245  0.00  0.00    -0.492 OA
BRANCH  35  37
ATOM     36  C   UNL     1       6.037  -1.268   7.168  0.00  0.00    +0.048 C 
ATOM     37  C   UNL     1       5.402  -1.978   5.971  0.00  0.00    +0.225 C 
ENDBRANCH  35  37
ENDBRANCH  29  35
ENDBRANCH  27  32
ENDBRANCH  24  27
ENDBRANCH   1  24
TORSDOF 7
