REMARK  Name = ZINC04748820
REMARK  8 active torsions:
REMARK  status: ('A' for Active; 'I' for Inactive)
REMARK    1  A    between atoms: C_1  and  C_2
REMARK    2  A    between atoms: C_6  and  N_9
REMARK    3  A    between atoms: C_7  and  C_8
REMARK    4  A    between atoms: C_11  and  C_22
REMARK    5  A    between atoms: C_17  and  C_21
REMARK    6  A    between atoms: C_25  and  C_28
REMARK    7  A    between atoms: C_28  and  C_29
REMARK    8  A    between atoms: C_28  and  C_30
REMARK                            x       y       z     vdW  Elec       q    Type
REMARK                         _______ _______ _______ _____ _____    ______ ____
ROOT
ATOM      1  N   UNL     1      -2.334   6.402  -2.617  0.00  0.00    -0.288 N 
ATOM      2  C   UNL     1      -2.511   5.214  -1.945  0.00  0.00    +0.166 C 
ATOM      3  C   UNL     1      -2.561   3.868   0.044  0.00  0.00    +0.220 C 
ATOM      4  N   UNL     1      -3.593   3.085  -0.641  0.00  0.00    -0.255 N 
ATOM      5  C   UNL     1      -4.437   2.286   0.036  0.00  0.00    +0.257 A 
ATOM      6  O   UNL     1      -4.385   2.213   1.253  0.00  0.00    -0.267 OA
ATOM      7  C   UNL     1      -5.381   1.537  -0.692  0.00  0.00    +0.093 A 
ATOM      8  C   UNL     1      -5.413   1.654  -2.050  0.00  0.00    +0.047 A 
ATOM      9  N   UNL     1      -4.565   2.473  -2.674  0.00  0.00    -0.221 NA
ATOM     10  C   UNL     1      -3.686   3.176  -2.001  0.00  0.00    +0.207 A 
ATOM     11  N   UNL     1      -2.814   4.043  -2.632  0.00  0.00    -0.259 N 
ATOM     12  C   UNL     1      -6.411   0.856  -2.850  0.00  0.00    +0.066 C 
ATOM     13  H   UNL     1      -2.332   6.415  -3.587  0.00  0.00    +0.155 HD
ATOM     14  H   UNL     1      -2.436   3.847  -3.504  0.00  0.00    +0.158 HD
ATOM     15  N   UNL     1      -2.387   5.214  -0.608  0.00  0.00    -0.336 N 
ATOM     16  H   UNL     1      -2.189   6.067  -0.072  0.00  0.00    +0.164 HD
ENDROOT
BRANCH   1  22
ATOM     17  C   UNL     1      -0.594  10.995  -2.406  0.00  0.00    +0.044 C 
ATOM     18  C   UNL     1      -1.317   9.833  -1.775  0.00  0.00    -0.046 A 
ATOM     19  C   UNL     1      -1.804   9.941  -0.485  0.00  0.00    +0.004 A 
ATOM     20  C   UNL     1      -2.467   8.877   0.098  0.00  0.00    +0.002 A 
ATOM     21  C   UNL     1      -2.645   7.702  -0.606  0.00  0.00    +0.023 A 
ATOM     22  C   UNL     1      -2.156   7.590  -1.901  0.00  0.00    +0.036 A 
ATOM     23  C   UNL     1      -1.486   8.659  -2.482  0.00  0.00    -0.026 A 
ATOM     24  C   UNL     1      -0.950   8.540  -3.885  0.00  0.00    +0.046 C 
ENDBRANCH   1  22
BRANCH   3  25
ATOM     25  C   UNL     1      -1.256   3.115   0.016  0.00  0.00    -0.005 A 
ATOM     26  C   UNL     1      -1.255   1.733   0.001  0.00  0.00    +0.008 A 
ATOM     27  C   UNL     1      -0.057   1.043  -0.020  0.00  0.00    +0.004 A 
ATOM     28  C   UNL     1       1.139   1.735  -0.038  0.00  0.00    -0.045 A 
ATOM     29  C   UNL     1       1.138   3.117  -0.029  0.00  0.00    +0.004 A 
ATOM     30  C   UNL     1      -0.059   3.807  -0.002  0.00  0.00    +0.008 A 
BRANCH  28  31
ATOM     31  C   UNL     1       2.444   0.982  -0.067  0.00  0.00    +0.013 C 
ATOM     32  C   UNL     1       3.223   1.361  -1.329  0.00  0.00    +0.012 C 
ATOM     33  C   UNL     1       3.270   1.344   1.169  0.00  0.00    +0.012 C 
ENDBRANCH  28  31
ENDBRANCH   3  25
TORSDOF 3
