REMARK  Name = ZINC29961928
REMARK  13 active torsions:
REMARK  status: ('A' for Active; 'I' for Inactive)
REMARK    1  A    between atoms: C_1  and  C_2
REMARK    2  A    between atoms: C_2  and  C_23
REMARK    3  A    between atoms: N_5  and  C_9
REMARK    4  A    between atoms: C_9  and  C_10
REMARK    5  A    between atoms: N_12  and  C_13
REMARK    6  A    between atoms: C_13  and  C_14
REMARK    7  A    between atoms: C_14  and  C_15
REMARK    8  A    between atoms: C_14  and  C_16
REMARK    9  A    between atoms: C_14  and  N_17
REMARK   10  A    between atoms: C_26  and  C_29
REMARK   11  A    between atoms: C_29  and  C_30
REMARK   12  A    between atoms: C_29  and  C_31
REMARK   13  A    between atoms: C_29  and  C_32
REMARK                            x       y       z     vdW  Elec       q    Type
REMARK                         _______ _______ _______ _____ _____    ______ ____
ROOT
ATOM      1  C   UNL     1      -5.843   3.927   7.947  0.00  0.00    +0.047 C 
ATOM      2  C   UNL     1      -6.413   2.717   7.204  0.00  0.00    +0.135 C 
ATOM      3  C   UNL     1      -5.837   2.631   5.804  0.00  0.00    +0.251 C 
ATOM      4  O   UNL     1      -5.944   3.450   4.917  0.00  0.00    -0.272 OA
ATOM      5  N   UNL     1      -5.180   1.455   5.752  0.00  0.00    -0.215 N 
ATOM      6  C   UNL     1      -5.265   0.791   6.910  0.00  0.00    +0.310 C 
ATOM      7  O   UNL     1      -4.756  -0.295   7.104  0.00  0.00    -0.252 OA
ATOM      8  N   UNL     1      -5.973   1.462   7.837  0.00  0.00    -0.281 N 
ATOM      9  H   UNL     1      -6.246   1.246   8.880  0.00  0.00    +0.152 HD
ENDROOT
BRANCH   2  10
ATOM     10  C   UNL     1      -7.917   2.787   7.155  0.00  0.00    -0.015 A 
ATOM     11  C   UNL     1      -8.547   3.377   6.075  0.00  0.00    +0.006 A 
ATOM     12  C   UNL     1      -9.927   3.437   6.028  0.00  0.00    +0.004 A 
ATOM     13  C   UNL     1     -10.678   2.915   7.065  0.00  0.00    -0.042 A 
ATOM     14  C   UNL     1     -10.048   2.330   8.147  0.00  0.00    +0.004 A 
ATOM     15  C   UNL     1      -8.668   2.266   8.192  0.00  0.00    +0.006 A 
BRANCH  13  16
ATOM     16  C   UNL     1     -12.182   2.986   7.016  0.00  0.00    -0.013 C 
ATOM     17  C   UNL     1     -12.695   3.782   8.218  0.00  0.00    +0.015 C 
ATOM     18  C   UNL     1     -12.619   3.676   5.723  0.00  0.00    +0.015 C 
ATOM     19  C   UNL     1     -12.760   1.570   7.059  0.00  0.00    +0.015 C 
ENDBRANCH  13  16
ENDBRANCH   2  10
BRANCH   5  20
ATOM     20  C   UNL     1      -4.468   0.963   4.570  0.00  0.00    +0.213 C 
BRANCH  20  21
ATOM     21  C   UNL     1      -3.038   1.436   4.613  0.00  0.00    +0.231 C 
ATOM     22  O   UNL     1      -2.652   2.118   5.539  0.00  0.00    -0.274 OA
ATOM     23  N   UNL     1      -2.187   1.102   3.622  0.00  0.00    -0.312 N 
ATOM     24  H   UNL     1      -2.537   0.484   2.782  0.00  0.00    +0.149 HD
BRANCH  23  25
ATOM     25  C   UNL     1      -0.797   1.562   3.663  0.00  0.00    +0.126 C 
BRANCH  25  26
ATOM     26  C   UNL     1      -0.053   1.047   2.430  0.00  0.00    +0.032 C 
ATOM     27  C   UNL     1      -0.084  -0.482   2.416  0.00  0.00    +0.029 C 
ATOM     28  C   UNL     1       1.399   1.528   2.473  0.00  0.00    +0.029 C 
BRANCH  26  29
ATOM     29  N   UNL     1      -0.703   1.561   1.216  0.00  0.00    -0.291 NA
ATOM     30  C   UNL     1      -0.013   1.086   0.008  0.00  0.00    +0.113 C 
ATOM     31  C   UNL     1      -0.755   1.594  -1.231  0.00  0.00    +0.175 C 
ATOM     32  O   UNL     1      -0.837   3.021  -1.180  0.00  0.00    -0.377 OA
ATOM     33  C   UNL     1      -1.504   3.518  -0.017  0.00  0.00    +0.175 C 
ATOM     34  C   UNL     1      -0.769   3.029   1.235  0.00  0.00    +0.113 C 
ENDBRANCH  26  29
ENDBRANCH  25  26
ENDBRANCH  23  25
ENDBRANCH  20  21
ENDBRANCH   5  20
TORSDOF 7
