REMARK  Name = ZINC20734451
REMARK  9 active torsions:
REMARK  status: ('A' for Active; 'I' for Inactive)
REMARK    1  A    between atoms: C_1  and  C_2
REMARK    2  A    between atoms: C_2  and  C_3
REMARK    3  A    between atoms: C_2  and  C_4
REMARK    4  A    between atoms: C_4  and  C_5
REMARK    5  A    between atoms: C_5  and  C_7
REMARK    6  A    between atoms: C_5  and  N_11
REMARK    7  A    between atoms: C_7  and  O_9
REMARK    8  A    between atoms: O_9  and  C_10
REMARK    9  A    between atoms: C_23  and  C_25
REMARK                            x       y       z     vdW  Elec       q    Type
REMARK                         _______ _______ _______ _____ _____    ______ ____
ROOT
ATOM      1  N   UNL     1       4.046   1.083  -0.424  0.00  0.00    -0.286 N 
ATOM      2  C   UNL     1       3.030   1.761  -0.994  0.00  0.00    +0.304 C 
ATOM      3  O   UNL     1       2.122   1.157  -1.530  0.00  0.00    -0.253 OA
ATOM      4  N   UNL     1       3.021   3.108  -0.968  0.00  0.00    -0.273 N 
ATOM      5  C   UNL     1       1.869   3.865  -1.480  0.00  0.00    +0.116 C 
ATOM      6  C   UNL     1       1.219   4.637  -0.325  0.00  0.00    +0.076 C 
ATOM      7  C   UNL     1       2.303   5.306   0.483  0.00  0.00    +0.066 A 
ATOM      8  C   UNL     1       3.607   4.961   0.443  0.00  0.00    +0.064 A 
ATOM      9  N   UNL     1       4.268   5.780   1.304  0.00  0.00    -0.346 N 
ATOM     10  H   UNL     1       5.220   5.771   1.494  0.00  0.00    +0.167 HD
ATOM     11  C   UNL     1       3.346   6.608   1.848  0.00  0.00    +0.197 A 
ATOM     12  N   UNL     1       2.173   6.316   1.349  0.00  0.00    -0.240 NA
ATOM     13  C   UNL     1       4.164   3.862  -0.421  0.00  0.00    +0.159 C 
ATOM     14  H   UNL     1       4.804   1.563  -0.057  0.00  0.00    +0.151 HD
ENDROOT
BRANCH  13  15
ATOM     15  C   UNL     1       4.971   4.458  -1.546  0.00  0.00    +0.017 A 
ATOM     16  C   UNL     1       5.429   5.759  -1.453  0.00  0.00    +0.011 A 
ATOM     17  C   UNL     1       6.170   6.308  -2.483  0.00  0.00    +0.042 A 
ATOM     18  C   UNL     1       6.454   5.555  -3.610  0.00  0.00    +0.161 A 
ATOM     19  C   UNL     1       5.996   4.251  -3.704  0.00  0.00    +0.194 A 
ATOM     20  C   UNL     1       5.259   3.700  -2.668  0.00  0.00    +0.167 A 
ATOM     21  F   UNL     1       4.816   2.427  -2.755  0.00  0.00    -0.202 F 
ATOM     22  F   UNL     1       6.273   3.515  -4.803  0.00  0.00    -0.199 F 
ATOM     23  F   UNL     1       7.178   6.093  -4.616  0.00  0.00    -0.202 F 
ENDBRANCH  13  15
BRANCH   1  24
ATOM     24  C   UNL     1       4.005  -0.380  -0.359  0.00  0.00    +0.183 C 
BRANCH  24  25
ATOM     25  C   UNL     1       3.227  -0.807   0.860  0.00  0.00    +0.327 C 
ATOM     26  O   UNL     1       2.756   0.025   1.598  0.00  0.00    -0.249 OA
BRANCH  25  27
ATOM     27  O   UNL     1       3.058  -2.112   1.125  0.00  0.00    -0.467 OA
ATOM     28  C   UNL     1       2.311  -2.445   2.296  0.00  0.00    +0.280 C 
ENDBRANCH  25  27
ENDBRANCH  24  25
BRANCH  24  29
ATOM     29  C   UNL     1       5.431  -0.927  -0.271  0.00  0.00    +0.036 C 
BRANCH  29  31
ATOM     30  C   UNL     1       7.663  -0.971  -1.393  0.00  0.00    +0.007 C 
ATOM     31  C   UNL     1       6.197  -0.559  -1.543  0.00  0.00    -0.015 C 
ATOM     32  C   UNL     1       5.582  -1.290  -2.738  0.00  0.00    +0.007 C 
ENDBRANCH  29  31
ENDBRANCH  24  29
ENDBRANCH   1  24
TORSDOF 6
