REMARK  Name = ZINC00320572
REMARK  7 active torsions:
REMARK  status: ('A' for Active; 'I' for Inactive)
REMARK    1  A    between atoms: C_1  and  C_2
REMARK    2  A    between atoms: C_4  and  C_26
REMARK    3  A    between atoms: C_6  and  N_19
REMARK    4  A    between atoms: C_7  and  C_11
REMARK    5  A    between atoms: C_11  and  C_12
REMARK    6  A    between atoms: C_12  and  C_13
REMARK    7  A    between atoms: N_19  and  C_20
REMARK                            x       y       z     vdW  Elec       q    Type
REMARK                         _______ _______ _______ _____ _____    ______ ____
ROOT
ATOM      1  C   UNL     1      -1.580   0.392   3.046  0.00  0.00    +0.066 C 
ATOM      2  C   UNL     1      -1.117  -0.825   2.287  0.00  0.00    +0.044 A 
ATOM      3  C   UNL     1      -2.016  -1.874   2.038  0.00  0.00    +0.044 A 
ATOM      4  C   UNL     1      -1.592  -2.964   1.355  0.00  0.00    +0.027 A 
ATOM      5  N   UNL     1      -0.295  -3.015   0.925  0.00  0.00    -0.269 N 
ATOM      6  C   UNL     1       0.418  -3.954   0.230  0.00  0.00    +0.128 A 
ATOM      7  C   UNL     1       1.675  -3.469   0.083  0.00  0.00    +0.084 A 
ATOM      8  N   UNL     1       1.740  -2.267   0.669  0.00  0.00    -0.213 NA
ATOM      9  C   UNL     1       0.559  -1.968   1.187  0.00  0.00    +0.237 A 
ATOM     10  N   UNL     1       0.121  -0.894   1.860  0.00  0.00    -0.217 NA
ATOM     11  C   UNL     1      -2.536  -4.105   1.074  0.00  0.00    +0.064 C 
ENDROOT
BRANCH   6  12
ATOM     12  N   UNL     1      -0.062  -5.183  -0.241  0.00  0.00    -0.326 N 
ATOM     13  H   UNL     1      -0.717  -5.206  -0.956  0.00  0.00    +0.148 HD
BRANCH  12  14
ATOM     14  C   UNL     1       0.428  -6.433   0.345  0.00  0.00    +0.072 C 
ATOM     15  C   UNL     1       0.017  -6.501   1.817  0.00  0.00    +0.022 C 
ATOM     16  C   UNL     1       0.528  -7.807   2.429  0.00  0.00    +0.002 C 
ATOM     17  C   UNL     1      -0.076  -8.994   1.676  0.00  0.00    +0.000 C 
ATOM     18  C   UNL     1       0.335  -8.926   0.204  0.00  0.00    +0.002 C 
ATOM     19  C   UNL     1      -0.176  -7.620  -0.408  0.00  0.00    +0.022 C 
ENDBRANCH  12  14
ENDBRANCH   6  12
BRANCH   7  20
ATOM     20  C   UNL     1       2.810  -4.167  -0.622  0.00  0.00    +0.063 C 
BRANCH  20  21
ATOM     21  C   UNL     1       2.775  -3.821  -2.111  0.00  0.00    +0.041 C 
BRANCH  21  22
ATOM     22  C   UNL     1       3.910  -4.518  -2.816  0.00  0.00    -0.047 A 
ATOM     23  C   UNL     1       5.139  -3.895  -2.931  0.00  0.00    +0.003 A 
ATOM     24  C   UNL     1       6.180  -4.535  -3.577  0.00  0.00    +0.000 A 
ATOM     25  C   UNL     1       5.993  -5.798  -4.108  0.00  0.00    +0.000 A 
ATOM     26  C   UNL     1       4.764  -6.421  -3.992  0.00  0.00    +0.000 A 
ATOM     27  C   UNL     1       3.724  -5.783  -3.342  0.00  0.00    +0.003 A 
ENDBRANCH  21  22
ENDBRANCH  20  21
ENDBRANCH   7  20
TORSDOF 5
