REMARK  Name = ZINC13642317
REMARK  14 active torsions:
REMARK  status: ('A' for Active; 'I' for Inactive)
REMARK    1  A    between atoms: C_1  and  C_2
REMARK    2  A    between atoms: C_3  and  N_8
REMARK    3  A    between atoms: N_5  and  C_7
REMARK    4  A    between atoms: N_8  and  C_9
REMARK    5  A    between atoms: N_8  and  S_24
REMARK    6  A    between atoms: C_9  and  C_10
REMARK    7  A    between atoms: C_13  and  O_18
REMARK    8  A    between atoms: C_14  and  O_16
REMARK    9  A    between atoms: O_16  and  C_17
REMARK   10  A    between atoms: O_18  and  C_19
REMARK   11  A    between atoms: C_19  and  C_20
REMARK   12  A    between atoms: S_24  and  C_27
REMARK   13  A    between atoms: C_28  and  C_33
REMARK   14  A    between atoms: C_31  and  C_32
REMARK                            x       y       z     vdW  Elec       q    Type
REMARK                         _______ _______ _______ _____ _____    ______ ____
ROOT
ATOM      1  N   UNL     1      -1.451  -0.444  -1.089  0.00  0.00    -0.195 N 
ENDROOT
BRANCH   1   4
ATOM      2  C   UNL     1       1.399  -0.194  -2.317  0.00  0.00    +0.069 C 
ATOM      3  C   UNL     1       0.651  -1.462  -1.992  0.00  0.00    +0.082 A 
ATOM      4  C   UNL     1      -0.634  -1.536  -1.438  0.00  0.00    +0.092 A 
ATOM      5  C   UNL     1      -0.954  -2.848  -1.303  0.00  0.00    +0.133 A 
ATOM      6  N   UNL     1       0.102  -3.576  -1.754  0.00  0.00    -0.272 N 
ATOM      7  N   UNL     1       1.092  -2.680  -2.176  0.00  0.00    -0.175 NA
ATOM      8  C   UNL     1       0.188  -5.038  -1.793  0.00  0.00    +0.172 C 
ENDBRANCH   1   4
BRANCH   1   9
ATOM      9  S   UNL     1      -2.403   0.279  -2.235  0.00  0.00    +0.080 S 
ATOM     10  O   UNL     1      -2.731  -0.728  -3.183  0.00  0.00    -0.150 OA
ATOM     11  O   UNL     1      -3.394   1.016  -1.534  0.00  0.00    -0.150 OA
BRANCH   9  12
ATOM     12  C   UNL     1      -1.400   1.457  -3.078  0.00  0.00    +0.173 A 
ATOM     13  C   UNL     1      -1.083   2.775  -2.678  0.00  0.00    +0.107 A 
ATOM     14  N   UNL     1      -0.315   3.267  -3.607  0.00  0.00    -0.081 NA
ATOM     15  O   UNL     1      -0.126   2.470  -4.496  0.00  0.00    -0.358 OA
ATOM     16  C   UNL     1      -0.758   1.311  -4.262  0.00  0.00    +0.161 A 
ATOM     17  C   UNL     1      -0.755   0.088  -5.142  0.00  0.00    +0.091 C 
ATOM     18  C   UNL     1      -1.541   3.472  -1.422  0.00  0.00    +0.071 C 
ENDBRANCH   9  12
ENDBRANCH   1   9
BRANCH   1  19
ATOM     19  C   UNL     1      -1.459   0.054   0.289  0.00  0.00    +0.167 C 
BRANCH  19  20
ATOM     20  C   UNL     1      -2.438  -0.749   1.108  0.00  0.00    -0.025 A 
ATOM     21  C   UNL     1      -3.740  -0.308   1.253  0.00  0.00    +0.009 A 
ATOM     22  C   UNL     1      -4.641  -1.041   2.003  0.00  0.00    +0.050 A 
ATOM     23  C   UNL     1      -4.240  -2.220   2.610  0.00  0.00    +0.162 A 
ATOM     24  C   UNL     1      -2.929  -2.664   2.463  0.00  0.00    +0.162 A 
ATOM     25  C   UNL     1      -2.031  -1.925   1.711  0.00  0.00    +0.054 A 
BRANCH  24  26
ATOM     26  O   UNL     1      -2.530  -3.820   3.058  0.00  0.00    -0.491 OA
ATOM     27  C   UNL     1      -1.145  -4.156   2.960  0.00  0.00    +0.277 C 
ENDBRANCH  24  26
BRANCH  23  28
ATOM     28  O   UNL     1      -5.125  -2.943   3.347  0.00  0.00    -0.479 OA
BRANCH  28  29
ATOM     29  C   UNL     1      -6.454  -2.427   3.454  0.00  0.00    +0.342 C 
BRANCH  29  30
ATOM     30  C   UNL     1      -7.298  -3.368   4.315  0.00  0.00    +0.424 C 
ATOM     31  F   UNL     1      -6.733  -3.467   5.591  0.00  0.00    -0.167 F 
ATOM     32  F   UNL     1      -8.599  -2.863   4.420  0.00  0.00    -0.167 F 
ATOM     33  F   UNL     1      -7.336  -4.635   3.722  0.00  0.00    -0.167 F 
ENDBRANCH  29  30
ENDBRANCH  28  29
ENDBRANCH  23  28
ENDBRANCH  19  20
ENDBRANCH   1  19
TORSDOF 9
