REMARK  Name = ZINC49071843
REMARK  5 active torsions:
REMARK  status: ('A' for Active; 'I' for Inactive)
REMARK    1  A    between atoms: C_1  and  N_2
REMARK    2  A    between atoms: C_4  and  C_21
REMARK    3  A    between atoms: C_10  and  N_11
REMARK    4  A    between atoms: C_27  and  N_32
REMARK    5  A    between atoms: N_35  and  C_36
REMARK                            x       y       z     vdW  Elec       q    Type
REMARK                         _______ _______ _______ _____ _____    ______ ____
ROOT
ATOM      1  C   UNL     1       1.247  -3.636  -1.723  0.00  0.00    +0.060 C 
ATOM      2  C   UNL     1       1.002  -3.389  -3.042  0.00  0.00    +0.176 C 
ATOM      3  C   UNL     1       1.034  -4.350  -4.085  0.00  0.00    +0.232 C 
ATOM      4  O   UNL     1       1.281  -5.541  -3.989  0.00  0.00    -0.283 OA
ATOM      5  C   UNL     1       0.704  -3.599  -5.311  0.00  0.00    +0.069 A 
ATOM      6  C   UNL     1       0.575  -3.959  -6.651  0.00  0.00    +0.038 A 
ATOM      7  C   UNL     1       0.246  -2.996  -7.590  0.00  0.00    +0.036 A 
ATOM      8  C   UNL     1       0.047  -1.677  -7.192  0.00  0.00    +0.027 A 
ATOM      9  C   UNL     1       0.174  -1.316  -5.868  0.00  0.00    +0.049 A 
ATOM     10  C   UNL     1       0.504  -2.270  -4.912  0.00  0.00    +0.140 A 
ATOM     11  O   UNL     1       0.682  -2.186  -3.575  0.00  0.00    -0.451 OA
ENDROOT
BRANCH   1  15
ATOM     12  C   UNL     1       0.630   0.909   0.271  0.00  0.00    +0.150 C 
ATOM     13  N   UNL     1       0.901  -0.526   0.157  0.00  0.00    -0.334 N 
ATOM     14  C   UNL     1       0.870  -1.228  -1.005  0.00  0.00    +0.096 A 
ATOM     15  C   UNL     1       1.173  -2.548  -0.750  0.00  0.00    +0.007 A 
ATOM     16  C   UNL     1       1.407  -2.642   0.702  0.00  0.00    +0.047 A 
ATOM     17  C   UNL     1       1.229  -1.348   1.212  0.00  0.00    +0.143 A 
ATOM     18  N   UNL     1       1.383  -1.124   2.513  0.00  0.00    -0.237 NA
ATOM     19  C   UNL     1       1.706  -2.088   3.352  0.00  0.00    +0.115 A 
ATOM     20  C   UNL     1       1.901  -3.387   2.922  0.00  0.00    +0.043 A 
ATOM     21  C   UNL     1       1.745  -3.687   1.571  0.00  0.00    +0.043 A 
BRANCH  21  22
ATOM     22  N   UNL     1       1.935  -4.980   1.097  0.00  0.00    -0.324 N 
ATOM     23  C   UNL     1       3.265  -5.440   0.663  0.00  0.00    +0.136 C 
ATOM     24  C   UNL     1       3.510  -6.827   1.282  0.00  0.00    +0.136 C 
ATOM     25  C   UNL     1       3.334  -6.705   2.813  0.00  0.00    +0.036 C 
ATOM     26  C   UNL     1       1.835  -6.997   3.042  0.00  0.00    +0.036 C 
ATOM     27  C   UNL     1       1.283  -7.261   1.623  0.00  0.00    +0.136 C 
ATOM     28  C   UNL     1       0.812  -5.930   1.021  0.00  0.00    +0.136 C 
ATOM     29  O   UNL     1       2.439  -7.693   0.847  0.00  0.00    -0.370 OA
ENDBRANCH  21  22
ENDBRANCH   1  15
BRANCH   7  30
ATOM     30  N   UNL     1       0.114  -3.349  -8.940  0.00  0.00    -0.269 N 
ATOM     31  C   UNL     1      -0.364  -4.564  -9.275  0.00  0.00    +0.308 C 
ATOM     32  O   UNL     1      -0.768  -5.318  -8.411  0.00  0.00    -0.252 OA
ATOM     33  N   UNL     1      -0.393  -4.943 -10.568  0.00  0.00    -0.268 N 
ATOM     34  H   UNL     1       0.366  -2.719  -9.633  0.00  0.00    +0.156 HD
ATOM     35  H   UNL     1      -0.003  -4.374 -11.249  0.00  0.00    +0.156 HD
BRANCH  33  36
ATOM     36  C   UNL     1      -0.988  -6.158 -10.928  0.00  0.00    +0.053 A 
ATOM     37  C   UNL     1      -2.071  -6.656 -10.207  0.00  0.00    +0.026 A 
ATOM     38  C   UNL     1      -2.626  -7.862 -10.601  0.00  0.00    +0.021 A 
ATOM     39  C   UNL     1      -2.091  -8.527 -11.689  0.00  0.00    +0.111 A 
ATOM     40  N   UNL     1      -1.065  -8.029 -12.350  0.00  0.00    -0.261 NA
ATOM     41  C   UNL     1      -0.511  -6.882 -12.012  0.00  0.00    +0.134 A 
ENDBRANCH  33  36
ENDBRANCH   7  30
TORSDOF 4
