REMARK  Name = ZINC66194286
REMARK  12 active torsions:
REMARK  status: ('A' for Active; 'I' for Inactive)
REMARK    1  A    between atoms: C_1  and  C_2
REMARK    2  A    between atoms: C_2  and  C_3
REMARK    3  A    between atoms: C_3  and  N_4
REMARK    4  A    between atoms: C_7  and  N_10
REMARK    5  A    between atoms: N_10  and  C_11
REMARK    6  A    between atoms: N_14  and  C_15
REMARK    7  A    between atoms: C_15  and  C_16
REMARK    8  A    between atoms: C_22  and  O_24
REMARK    9  A    between atoms: O_24  and  C_25
REMARK   10  A    between atoms: C_25  and  C_26
REMARK   11  A    between atoms: C_25  and  C_27
REMARK   12  A    between atoms: C_25  and  C_28
REMARK                            x       y       z     vdW  Elec       q    Type
REMARK                         _______ _______ _______ _____ _____    ______ ____
ROOT
ATOM      1  N   UNL     1      -2.018  -6.065   0.950  0.00  0.00    -0.286 N 
ATOM      2  C   UNL     1      -1.265  -6.668  -0.153  0.00  0.00    +0.134 C 
ATOM      3  C   UNL     1      -2.625  -6.852   1.860  0.00  0.00    +0.302 C 
ATOM      4  O   UNL     1      -3.250  -6.352   2.776  0.00  0.00    -0.253 OA
ATOM      5  N   UNL     1      -2.541  -8.193   1.756  0.00  0.00    -0.299 N 
ATOM      6  H   UNL     1      -2.043  -8.592   1.025  0.00  0.00    +0.150 HD
ENDROOT
BRANCH   1  10
ATOM      7  N   UNL     1      -1.413  -2.002   0.005  0.00  0.00    +0.380 N 
ATOM      8  C   UNL     1      -0.802  -2.489   1.247  0.00  0.00    -0.077 C 
ATOM      9  C   UNL     1      -0.705  -4.016   1.209  0.00  0.00    +0.004 C 
ATOM     10  C   UNL     1      -2.110  -4.607   1.064  0.00  0.00    +0.074 C 
ATOM     11  C   UNL     1      -2.766  -4.036  -0.196  0.00  0.00    +0.004 C 
ATOM     12  C   UNL     1      -2.787  -2.508  -0.105  0.00  0.00    -0.077 C 
ATOM     13  H   UNL     1      -0.873  -2.326  -0.783  0.00  0.00    -0.082 HD
BRANCH   7  14
ATOM     14  C   UNL     1      -1.433  -0.534   0.013  0.00  0.00    -0.079 C 
BRANCH  14  16
ATOM     15  C   UNL     1      -0.019   1.526   0.010  0.00  0.00    +0.002 C 
ATOM     16  C   UNL     1       0.002  -0.004   0.002  0.00  0.00    -0.022 C 
ENDBRANCH  14  16
ENDBRANCH   7  14
ENDBRANCH   1  10
BRANCH   5  17
ATOM     17  C   UNL     1      -3.201  -9.048   2.745  0.00  0.00    +0.109 C 
BRANCH  17  18
ATOM     18  C   UNL     1      -2.951 -10.517   2.398  0.00  0.00    +0.009 C 
ATOM     19  C   UNL     1      -3.623 -10.846   1.062  0.00  0.00    +0.024 C 
ATOM     20  C   UNL     1      -3.341 -12.308   0.701  0.00  0.00    +0.111 C 
ATOM     21  N   UNL     1      -3.768 -13.162   1.818  0.00  0.00    -0.267 N 
ATOM     22  C   UNL     1      -3.252 -12.875   3.163  0.00  0.00    +0.111 C 
ATOM     23  C   UNL     1      -3.534 -11.407   3.497  0.00  0.00    +0.024 C 
ATOM     24  C   UNL     1      -4.617 -14.189   1.613  0.00  0.00    +0.403 C 
ATOM     25  O   UNL     1      -5.037 -14.415   0.495  0.00  0.00    -0.226 OA
BRANCH  24  26
ATOM     26  O   UNL     1      -4.999 -14.963   2.645  0.00  0.00    -0.445 OA
BRANCH  26  27
ATOM     27  C   UNL     1      -5.901 -16.033   2.355  0.00  0.00    +0.107 C 
ATOM     28  C   UNL     1      -5.255 -16.984   1.345  0.00  0.00    +0.055 C 
ATOM     29  C   UNL     1      -6.218 -16.796   3.643  0.00  0.00    +0.055 C 
ATOM     30  C   UNL     1      -7.193 -15.465   1.766  0.00  0.00    +0.055 C 
ENDBRANCH  26  27
ENDBRANCH  24  26
ENDBRANCH  17  18
ENDBRANCH   5  17
TORSDOF 7
