REMARK  Name = ZINC13023141
REMARK  10 active torsions:
REMARK  status: ('A' for Active; 'I' for Inactive)
REMARK    1  A    between atoms: C_1  and  C_2
REMARK    2  A    between atoms: C_5  and  C_40
REMARK    3  A    between atoms: C_9  and  C_14
REMARK    4  A    between atoms: C_14  and  C_16
REMARK    5  A    between atoms: C_14  and  N_70
REMARK    6  A    between atoms: N_20  and  C_21
REMARK    7  A    between atoms: C_21  and  C_22
REMARK    8  A    between atoms: N_29  and  C_32
REMARK    9  A    between atoms: C_35  and  O_38
REMARK   10  A    between atoms: O_38  and  C_39
REMARK                            x       y       z     vdW  Elec       q    Type
REMARK                         _______ _______ _______ _____ _____    ______ ____
ROOT
ATOM      1  C   UNL     1       3.592   1.628   3.727  0.00  0.00    +0.039 C 
ENDROOT
BRANCH   1  10
ATOM      2  C   UNL     1      -0.013   1.086   0.008  0.00  0.00    +0.044 C 
ATOM      3  C   UNL     1      -0.718   1.572   1.248  0.00  0.00    -0.041 A 
ATOM      4  C   UNL     1      -2.067   1.788   1.230  0.00  0.00    +0.004 A 
ATOM      5  C   UNL     1      -2.727   2.232   2.367  0.00  0.00    +0.005 A 
ATOM      6  C   UNL     1      -2.033   2.471   3.534  0.00  0.00    -0.026 A 
ATOM      7  C   UNL     1      -0.659   2.263   3.575  0.00  0.00    +0.052 A 
ATOM      8  C   UNL     1       0.006   1.809   2.420  0.00  0.00    +0.002 A 
ATOM      9  C   UNL     1       1.453   1.593   2.474  0.00  0.00    +0.018 A 
ATOM     10  C   UNL     1       2.103   1.839   3.638  0.00  0.00    +0.011 A 
ATOM     11  C   UNL     1       1.389   2.293   4.768  0.00  0.00    +0.251 A 
ATOM     12  O   UNL     1       1.992   2.509   5.805  0.00  0.00    -0.268 OA
ATOM     13  N   UNL     1       0.060   2.494   4.729  0.00  0.00    -0.322 N 
ATOM     14  H   UNL     1      -0.400   2.807   5.524  0.00  0.00    +0.169 HD
ATOM     15  C   UNL     1      -2.762   2.957   4.761  0.00  0.00    +0.046 C 
ENDBRANCH   1  10
BRANCH   1  21
ATOM     16  C   UNL     1       3.898   3.995   3.319  0.00  0.00    -0.058 C 
ATOM     17  C   UNL     1       4.521   5.275   3.882  0.00  0.00    +0.086 C 
ATOM     18  N   UNL     1       5.977   5.105   3.980  0.00  0.00    -0.333 N 
ATOM     19  C   UNL     1       6.314   3.974   4.855  0.00  0.00    +0.086 C 
ATOM     20  C   UNL     1       5.692   2.694   4.292  0.00  0.00    -0.058 C 
ATOM     21  N   UNL     1       4.226   2.869   4.219  0.00  0.00    +0.391 N 
ATOM     22  H   UNL     1       3.868   3.078   5.158  0.00  0.00    -0.080 HD
BRANCH  18  23
ATOM     23  C   UNL     1       6.590   6.282   4.424  0.00  0.00    +0.030 A 
ATOM     24  C   UNL     1       7.388   6.264   5.561  0.00  0.00    +0.027 A 
ATOM     25  C   UNL     1       7.997   7.425   5.995  0.00  0.00    +0.047 A 
ATOM     26  C   UNL     1       7.802   8.611   5.303  0.00  0.00    +0.120 A 
ATOM     27  C   UNL     1       7.001   8.632   4.171  0.00  0.00    +0.047 A 
ATOM     28  C   UNL     1       6.396   7.470   3.732  0.00  0.00    +0.027 A 
BRANCH  26  29
ATOM     29  O   UNL     1       8.398   9.755   5.735  0.00  0.00    -0.495 OA
ATOM     30  C   UNL     1       9.209   9.662   6.908  0.00  0.00    +0.277 C 
ENDBRANCH  26  29
ENDBRANCH  18  23
ENDBRANCH   1  21
BRANCH   1  31
ATOM     31  C   UNL     1       3.884   0.512   4.697  0.00  0.00    +0.143 A 
ATOM     32  N   UNL     1       3.819   0.576   6.005  0.00  0.00    -0.115 NA
ATOM     33  N   UNL     1       4.140  -0.580   6.476  0.00  0.00    -0.023 NA
ATOM     34  N   UNL     1       4.408  -1.379   5.502  0.00  0.00    -0.044 NA
ATOM     35  N   UNL     1       4.256  -0.744   4.389  0.00  0.00    -0.223 N 
BRANCH  35  36
ATOM     36  C   UNL     1       4.455  -1.287   3.043  0.00  0.00    +0.221 C 
BRANCH  36  37
ATOM     37  C   UNL     1       5.888  -1.080   2.624  0.00  0.00    +0.126 A 
ATOM     38  C   UNL     1       6.903  -1.936   2.840  0.00  0.00    +0.046 A 
ATOM     39  C   UNL     1       8.061  -1.347   2.284  0.00  0.00    +0.041 A 
ATOM     40  C   UNL     1       7.687  -0.162   1.768  0.00  0.00    +0.195 A 
ATOM     41  O   UNL     1       6.370  -0.006   1.978  0.00  0.00    -0.466 OA
ENDBRANCH  36  37
ENDBRANCH  35  36
ENDBRANCH   1  31
TORSDOF 7
