REMARK  Name = ZINC08922857
REMARK  9 active torsions:
REMARK  status: ('A' for Active; 'I' for Inactive)
REMARK    1  A    between atoms: C_1  and  C_2
REMARK    2  A    between atoms: C_3  and  S_14
REMARK    3  A    between atoms: C_4  and  C_13
REMARK    4  A    between atoms: N_5  and  C_7
REMARK    5  A    between atoms: S_14  and  C_15
REMARK    6  A    between atoms: C_15  and  C_16
REMARK    7  A    between atoms: N_18  and  C_19
REMARK    8  A    between atoms: C_23  and  S_25
REMARK    9  A    between atoms: S_25  and  N_28
REMARK                            x       y       z     vdW  Elec       q    Type
REMARK                         _______ _______ _______ _____ _____    ______ ____
ROOT
ATOM      1  C   UNL     1       1.024   5.949   0.106  0.00  0.00    +0.227 C 
ATOM      2  O   UNL     1       2.076   5.346   0.111  0.00  0.00    -0.275 OA
ATOM      3  N   UNL     1      -0.138   5.276  -0.007  0.00  0.00    -0.285 N 
ATOM      4  H   UNL     1      -0.975   5.761  -0.070  0.00  0.00    +0.155 HD
ENDROOT
BRANCH   3   5
ATOM      5  C   UNL     1      -0.136   3.877  -0.032  0.00  0.00    +0.035 A 
ATOM      6  C   UNL     1       0.903   3.193  -0.650  0.00  0.00    +0.023 A 
ATOM      7  C   UNL     1       0.902   1.812  -0.673  0.00  0.00    +0.004 A 
ATOM      8  C   UNL     1      -0.133   1.110  -0.082  0.00  0.00    +0.029 A 
ATOM      9  C   UNL     1      -1.171   1.788   0.530  0.00  0.00    +0.110 A 
ATOM     10  C   UNL     1      -1.173   3.169   0.562  0.00  0.00    +0.052 A 
BRANCH   9  11
ATOM     11  S   UNL     1      -2.490   0.889   1.277  0.00  0.00    +0.073 S 
ATOM     12  O   UNL     1      -3.611   1.761   1.304  0.00  0.00    -0.150 OA
ATOM     13  O   UNL     1      -2.527  -0.381   0.640  0.00  0.00    -0.150 OA
BRANCH  11  14
ATOM     14  N   UNL     1      -2.064   0.615   2.854  0.00  0.00    -0.205 N 
ATOM     15  C   UNL     1      -1.924   1.669   3.718  0.00  0.00    +0.088 C 
ATOM     16  C   UNL     1      -1.883   3.809   4.531  0.00  0.00    +0.114 C 
ATOM     17  C   UNL     1      -1.117   2.969   5.579  0.00  0.00    +0.028 C 
ATOM     18  C   UNL     1      -1.546   1.536   5.177  0.00  0.00    +0.072 C 
ATOM     19  H   UNL     1      -1.915  -0.291   3.166  0.00  0.00    +0.175 HD
ATOM     20  N   UNL     1      -2.106   2.908   3.381  0.00  0.00    -0.375 N 
ATOM     21  H   UNL     1      -2.370   3.221   2.439  0.00  0.00    +0.161 HD
ENDBRANCH  11  14
ENDBRANCH   9  11
ENDBRANCH   3   5
BRANCH   1  22
ATOM     22  C   UNL     1       1.016   7.451   0.226  0.00  0.00    +0.170 C 
BRANCH  22  23
ATOM     23  S   UNL     1       2.721   8.056   0.360  0.00  0.00    -0.112 S 
BRANCH  23  26
ATOM     24  C   UNL     1       2.651  10.365  -2.037  0.00  0.00    +0.068 C 
ATOM     25  C   UNL     1       2.523  10.715  -0.577  0.00  0.00    +0.074 A 
ATOM     26  C   UNL     1       2.544   9.805   0.491  0.00  0.00    +0.052 A 
ATOM     27  C   UNL     1       2.408  10.510   1.643  0.00  0.00    +0.056 A 
ATOM     28  N   UNL     1       2.300  11.826   1.307  0.00  0.00    -0.236 N 
ATOM     29  N   UNL     1       2.372  11.920  -0.089  0.00  0.00    -0.170 NA
ATOM     30  C   UNL     1       2.381   9.942   3.038  0.00  0.00    +0.067 C 
BRANCH  28  31
ATOM     31  C   UNL     1       2.144  12.895   2.199  0.00  0.00    +0.066 A 
ATOM     32  C   UNL     1       1.349  13.980   1.853  0.00  0.00    +0.028 A 
ATOM     33  C   UNL     1       1.194  15.030   2.736  0.00  0.00    +0.002 A 
ATOM     34  C   UNL     1       1.837  15.007   3.960  0.00  0.00    +0.000 A 
ATOM     35  C   UNL     1       2.632  13.931   4.306  0.00  0.00    +0.002 A 
ATOM     36  C   UNL     1       2.788  12.875   3.429  0.00  0.00    +0.028 A 
ENDBRANCH  28  31
ENDBRANCH  23  26
ENDBRANCH  22  23
ENDBRANCH   1  22
TORSDOF 7
