REMARK  Name = ZINC40797548
REMARK  9 active torsions:
REMARK  status: ('A' for Active; 'I' for Inactive)
REMARK    1  A    between atoms: C_1  and  C_2
REMARK    2  A    between atoms: C_2  and  O_3
REMARK    3  A    between atoms: O_3  and  C_4
REMARK    4  A    between atoms: C_4  and  C_6
REMARK    5  A    between atoms: C_7  and  C_27
REMARK    6  A    between atoms: C_10  and  N_11
REMARK    7  A    between atoms: C_12  and  C_14
REMARK    8  A    between atoms: C_14  and  C_26
REMARK    9  A    between atoms: C_20  and  C_25
REMARK                            x       y       z     vdW  Elec       q    Type
REMARK                         _______ _______ _______ _____ _____    ______ ____
ROOT
ATOM      1  N   UNL     1      -3.041  -2.526   2.495  0.00  0.00    -0.276 N 
ATOM      2  C   UNL     1      -3.819  -2.871   3.540  0.00  0.00    +0.270 C 
ATOM      3  O   UNL     1      -4.920  -3.342   3.348  0.00  0.00    -0.271 OA
ATOM      4  H   UNL     1      -2.161  -2.150   2.649  0.00  0.00    +0.155 HD
ENDROOT
BRANCH   2   5
ATOM      5  C   UNL     1      -3.321  -2.671   4.948  0.00  0.00    +0.258 C 
ATOM      6  C   UNL     1      -4.026  -3.632   5.871  0.00  0.00    +0.270 C 
ATOM      7  O   UNL     1      -5.036  -3.291   6.450  0.00  0.00    -0.271 OA
ATOM      8  N   UNL     1      -3.529  -4.874   6.051  0.00  0.00    -0.279 N 
ATOM      9  C   UNL     1      -2.296  -5.207   5.474  0.00  0.00    +0.076 A 
ATOM     10  C   UNL     1      -1.865  -6.524   5.443  0.00  0.00    +0.030 A 
ATOM     11  C   UNL     1      -0.652  -6.838   4.859  0.00  0.00    -0.048 A 
ATOM     12  C   UNL     1       0.132  -5.842   4.306  0.00  0.00    +0.007 A 
ATOM     13  C   UNL     1      -0.290  -4.525   4.338  0.00  0.00    +0.048 A 
ATOM     14  C   UNL     1      -1.501  -4.203   4.927  0.00  0.00    +0.144 A 
ATOM     15  O   UNL     1      -1.912  -2.908   4.992  0.00  0.00    -0.465 OA
ATOM     16  C   UNL     1      -0.182  -8.269   4.826  0.00  0.00    +0.044 C 
ATOM     17  C   UNL     1      -3.610  -1.236   5.391  0.00  0.00    +0.076 C 
ATOM     18  H   UNL     1      -4.020  -5.528   6.573  0.00  0.00    +0.155 HD
ENDBRANCH   2   5
BRANCH   1  23
ATOM     19  C   UNL     1      -2.841  -2.416   0.016  0.00  0.00    +0.095 A 
ATOM     20  C   UNL     1      -3.552  -2.716  -1.214  0.00  0.00    +0.005 A 
ATOM     21  C   UNL     1      -4.792  -3.249  -1.056  0.00  0.00    +0.056 A 
ATOM     22  S   UNL     1      -4.977  -3.336   0.712  0.00  0.00    -0.080 S 
ATOM     23  C   UNL     1      -3.499  -2.710   1.200  0.00  0.00    +0.086 A 
BRANCH  20  24
ATOM     24  C   UNL     1      -2.966  -2.457  -2.551  0.00  0.00    -0.017 A 
ATOM     25  C   UNL     1      -2.407  -1.214  -2.841  0.00  0.00    +0.008 A 
ATOM     26  C   UNL     1      -1.862  -0.979  -4.087  0.00  0.00    +0.001 A 
ATOM     27  C   UNL     1      -1.871  -1.975  -5.047  0.00  0.00    +0.000 A 
ATOM     28  C   UNL     1      -2.425  -3.211  -4.765  0.00  0.00    +0.001 A 
ATOM     29  C   UNL     1      -2.967  -3.459  -3.521  0.00  0.00    +0.008 A 
ENDBRANCH  20  24
BRANCH  19  30
ATOM     30  C   UNL     1      -1.497  -1.838   0.006  0.00  0.00    +0.342 C 
ATOM     31  O   UNL     1      -0.522  -2.566  -0.007  0.00  0.00    -0.245 OA
BRANCH  30  32
ATOM     32  O   UNL     1      -1.339  -0.499   0.012  0.00  0.00    -0.461 OA
BRANCH  32  34
ATOM     33  C   UNL     1      -0.019   1.526   0.010  0.00  0.00    +0.048 C 
ATOM     34  C   UNL     1       0.002  -0.004   0.002  0.00  0.00    +0.229 C 
ENDBRANCH  32  34
ENDBRANCH  30  32
ENDBRANCH  19  30
ENDBRANCH   1  23
TORSDOF 6
