REMARK  Name = ZINC12695173
REMARK  6 active torsions:
REMARK  status: ('A' for Active; 'I' for Inactive)
REMARK    1  A    between atoms: C_1  and  C_2
REMARK    2  A    between atoms: C_8  and  C_10
REMARK    3  A    between atoms: C_10  and  C_11
REMARK    4  A    between atoms: C_11  and  C_12
REMARK    5  A    between atoms: C_12  and  C_13
REMARK    6  A    between atoms: C_13  and  C_14
REMARK                            x       y       z     vdW  Elec       q    Type
REMARK                         _______ _______ _______ _____ _____    ______ ____
ROOT
ATOM      1  C   UNL     1      -0.037   1.099  -2.490  0.00  0.00    +0.002 C 
ENDROOT
BRANCH   1   2
ATOM      2  C   UNL     1      -0.753   1.593  -1.232  0.00  0.00    +0.009 C 
BRANCH   2   3
ATOM      3  C   UNL     1      -0.013   1.086   0.008  0.00  0.00    +0.096 C 
BRANCH   3  11
ATOM      4  C   UNL     1      -2.169   2.575   7.450  0.00  0.00    +0.053 C 
ATOM      5  C   UNL     1      -1.832   2.343   5.999  0.00  0.00    +0.008 A 
ATOM      6  C   UNL     1      -2.468   2.778   4.884  0.00  0.00    +0.124 A 
ATOM      7  N   UNL     1      -1.973   2.444   3.708  0.00  0.00    -0.233 NA
ATOM      8  C   UNL     1      -0.892   1.694   3.609  0.00  0.00    +0.165 A 
ATOM      9  S   UNL     1      -0.486   1.417   5.275  0.00  0.00    -0.057 S 
ATOM     10  N   UNL     1      -0.242   1.246   2.466  0.00  0.00    -0.265 N 
ATOM     11  C   UNL     1      -0.718   1.572   1.248  0.00  0.00    +0.219 C 
ATOM     12  O   UNL     1      -1.715   2.256   1.150  0.00  0.00    -0.275 OA
ATOM     13  H   UNL     1       0.555   0.699   2.544  0.00  0.00    +0.157 HD
ENDBRANCH   3  11
ENDBRANCH   2   3
ENDBRANCH   1   2
BRANCH   1  14
ATOM     14  C   UNL     1      -0.777   1.606  -3.730  0.00  0.00    +0.016 C 
BRANCH  14  15
ATOM     15  C   UNL     1      -0.060   1.113  -4.989  0.00  0.00    +0.069 C 
ATOM     16  C   UNL     1      -0.846   1.498  -6.260  0.00  0.00    +0.108 C 
ATOM     17  C   UNL     1       0.046   1.946  -7.422  0.00  0.00    +0.105 C 
ATOM     18  C   UNL     1       1.554   1.923  -7.092  0.00  0.00    +0.093 C 
ATOM     19  S   UNL     1       1.524   2.022  -5.249  0.00  0.00    -0.154 S 
ATOM     20  N   UNL     1      -0.369   3.335  -7.677  0.00  0.00    -0.294 N 
ATOM     21  C   UNL     1      -1.342   3.664  -6.816  0.00  0.00    +0.300 C 
ATOM     22  O   UNL     1      -1.873   4.758  -6.802  0.00  0.00    -0.253 OA
ATOM     23  N   UNL     1      -1.677   2.678  -5.973  0.00  0.00    -0.294 N 
ATOM     24  H   UNL     1       0.002   3.918  -8.357  0.00  0.00    +0.151 HD
ATOM     25  H   UNL     1      -2.358   2.733  -5.284  0.00  0.00    +0.151 HD
ENDBRANCH  14  15
ENDBRANCH   1  14
TORSDOF 5
