REMARK  Name = ZINC60355073
REMARK  8 active torsions:
REMARK  status: ('A' for Active; 'I' for Inactive)
REMARK    1  A    between atoms: C_1  and  C_2
REMARK    2  A    between atoms: C_5  and  C_7
REMARK    3  A    between atoms: C_7  and  C_9
REMARK    4  A    between atoms: C_7  and  N_29
REMARK    5  A    between atoms: C_9  and  N_10
REMARK    6  A    between atoms: C_11  and  C_13
REMARK    7  A    between atoms: C_16  and  S_19
REMARK    8  A    between atoms: S_19  and  N_22
REMARK                            x       y       z     vdW  Elec       q    Type
REMARK                         _______ _______ _______ _____ _____    ______ ____
ROOT
ATOM      1  N   UNL     1       3.139  -4.616  -1.417  0.00  0.00    -0.312 N 
ATOM      2  C   UNL     1       3.697  -5.031  -2.571  0.00  0.00    +0.244 C 
ATOM      3  O   UNL     1       3.299  -4.592  -3.632  0.00  0.00    -0.270 OA
ATOM      4  H   UNL     1       3.457  -4.966  -0.571  0.00  0.00    +0.149 HD
ENDROOT
BRANCH   2   5
ATOM      5  C   UNL     1       4.795  -6.022  -2.547  0.00  0.00    +0.037 A 
ATOM      6  C   UNL     1       5.251  -6.532  -1.331  0.00  0.00    +0.015 A 
ATOM      7  C   UNL     1       6.276  -7.457  -1.315  0.00  0.00    +0.029 A 
ATOM      8  C   UNL     1       6.850  -7.877  -2.501  0.00  0.00    +0.106 A 
ATOM      9  C   UNL     1       6.403  -7.374  -3.710  0.00  0.00    +0.029 A 
ATOM     10  C   UNL     1       5.375  -6.454  -3.740  0.00  0.00    +0.015 A 
BRANCH   8  11
ATOM     11  S   UNL     1       8.158  -9.057  -2.472  0.00  0.00    +0.061 S 
ATOM     12  O   UNL     1       8.894  -8.878  -3.675  0.00  0.00    -0.153 OA
ATOM     13  O   UNL     1       8.762  -8.963  -1.189  0.00  0.00    -0.153 OA
BRANCH  11  14
ATOM     14  N   UNL     1       7.465 -10.558  -2.561  0.00  0.00    -0.166 NA
ATOM     15  C   UNL     1       7.072 -11.293  -1.347  0.00  0.00    +0.128 C 
ATOM     16  C   UNL     1       5.560 -11.520  -1.394  0.00  0.00    +0.121 C 
ATOM     17  N   UNL     1       5.152 -12.010  -2.703  0.00  0.00    -0.313 N 
ATOM     18  C   UNL     1       5.854 -11.849  -3.825  0.00  0.00    +0.229 C 
ATOM     19  O   UNL     1       5.373 -12.232  -4.870  0.00  0.00    -0.274 OA
ATOM     20  C   UNL     1       7.211 -11.209  -3.855  0.00  0.00    +0.205 C 
ATOM     21  H   UNL     1       4.309 -12.488  -2.763  0.00  0.00    +0.149 HD
ENDBRANCH  11  14
ENDBRANCH   8  11
ENDBRANCH   2   5
BRANCH   1  22
ATOM     22  C   UNL     1       2.052  -3.634  -1.442  0.00  0.00    +0.097 C 
BRANCH  22  23
ATOM     23  C   UNL     1       1.514  -3.434  -0.023  0.00  0.00    +0.016 C 
BRANCH  23  28
ATOM     24  C   UNL     1      -1.860  -7.123   0.647  0.00  0.00    +0.086 C 
ATOM     25  C   UNL     1      -0.592  -6.316   0.749  0.00  0.00    +0.102 A 
ATOM     26  C   UNL     1       0.498  -6.649   1.464  0.00  0.00    +0.044 A 
ATOM     27  C   UNL     1       1.444  -5.615   1.276  0.00  0.00    +0.043 A 
ATOM     28  C   UNL     1       0.876  -4.712   0.457  0.00  0.00    +0.093 A 
ATOM     29  O   UNL     1      -0.355  -5.144   0.137  0.00  0.00    -0.466 OA
ENDBRANCH  23  28
BRANCH  23  30
ATOM     30  N   UNL     1       0.514  -2.358  -0.026  0.00  0.00    +0.387 N 
ATOM     31  C   UNL     1      -0.017  -2.148   1.345  0.00  0.00    -0.078 C 
ATOM     32  C   UNL     1      -0.573  -0.703   1.293  0.00  0.00    -0.020 C 
ATOM     33  C   UNL     1       0.455   0.031   0.402  0.00  0.00    -0.020 C 
ATOM     34  C   UNL     1       1.143  -1.077  -0.415  0.00  0.00    -0.078 C 
ATOM     35  H   UNL     1      -0.238  -2.583  -0.660  0.00  0.00    -0.081 HD
ENDBRANCH  23  30
ENDBRANCH  22  23
ENDBRANCH   1  22
TORSDOF 7
