REMARK  Name = ZINC13033453
REMARK  14 active torsions:
REMARK  status: ('A' for Active; 'I' for Inactive)
REMARK    1  A    between atoms: C_1  and  C_2
REMARK    2  A    between atoms: C_2  and  O_3
REMARK    3  A    between atoms: O_3  and  C_4
REMARK    4  A    between atoms: C_4  and  C_6
REMARK    5  A    between atoms: C_6  and  N_7
REMARK    6  A    between atoms: C_8  and  C_12
REMARK    7  A    between atoms: C_12  and  N_65
REMARK    8  A    between atoms: C_13  and  C_14
REMARK    9  A    between atoms: C_13  and  N_65
REMARK   10  A    between atoms: C_17  and  C_20
REMARK   11  A    between atoms: C_21  and  C_22
REMARK   12  A    between atoms: C_21  and  N_65
REMARK   13  A    between atoms: C_27  and  C_35
REMARK   14  A    between atoms: C_28  and  C_34
REMARK                            x       y       z     vdW  Elec       q    Type
REMARK                         _______ _______ _______ _____ _____    ______ ____
ROOT
ATOM      1  N   UNL     1      -1.238  -1.387   2.291  0.00  0.00    +0.390 N 
ATOM      2  H   UNL     1      -0.214  -1.408   2.232  0.00  0.00    -0.080 HD
ENDROOT
BRANCH   1   3
ATOM      3  C   UNL     1      -1.718  -0.064   1.838  0.00  0.00    +0.001 C 
BRANCH   3   5
ATOM      4  N   UNL     1       0.193   1.579   2.234  0.00  0.00    -0.220 N 
ATOM      5  C   UNL     1      -0.973   1.008   2.592  0.00  0.00    +0.136 A 
ATOM      6  N   UNL     1      -1.333   1.563   3.723  0.00  0.00    -0.115 NA
ATOM      7  N   UNL     1      -0.436   2.430   4.044  0.00  0.00    -0.023 NA
ATOM      8  N   UNL     1       0.490   2.439   3.149  0.00  0.00    -0.043 NA
BRANCH   4   9
ATOM      9  C   UNL     1       0.978   1.278   1.035  0.00  0.00    +0.267 C 
BRANCH   9  10
ATOM     10  C   UNL     1       0.537   2.174  -0.093  0.00  0.00    +0.329 C 
ATOM     11  O   UNL     1      -0.343   2.982   0.086  0.00  0.00    -0.249 OA
BRANCH  10  12
ATOM     12  O   UNL     1       1.122   2.075  -1.297  0.00  0.00    -0.464 OA
BRANCH  12  14
ATOM     13  C   UNL     1       1.426   2.712  -3.628  0.00  0.00    +0.048 C 
ATOM     14  C   UNL     1       0.646   2.970  -2.337  0.00  0.00    +0.229 C 
ENDBRANCH  12  14
ENDBRANCH  10  12
ENDBRANCH   9  10
ENDBRANCH   4   9
ENDBRANCH   3   5
ENDBRANCH   1   3
BRANCH   1  15
ATOM     15  C   UNL     1      -1.644  -1.618   3.693  0.00  0.00    -0.042 C 
BRANCH  15  16
ATOM     16  C   UNL     1      -0.852  -2.776   4.242  0.00  0.00    -0.064 A 
ATOM     17  C   UNL     1      -1.396  -4.047   4.244  0.00  0.00    +0.002 A 
ATOM     18  C   UNL     1      -0.667  -5.110   4.743  0.00  0.00    +0.003 A 
ATOM     19  C   UNL     1       0.603  -4.901   5.249  0.00  0.00    -0.050 A 
ATOM     20  C   UNL     1       1.145  -3.629   5.251  0.00  0.00    +0.003 A 
ATOM     21  C   UNL     1       0.417  -2.567   4.748  0.00  0.00    +0.002 A 
ATOM     22  C   UNL     1       1.395  -6.059   5.797  0.00  0.00    +0.044 C 
ENDBRANCH  15  16
ENDBRANCH   1  15
BRANCH   1  23
ATOM     23  C   UNL     1      -1.791  -2.448   1.423  0.00  0.00    -0.036 C 
BRANCH  23  24
ATOM     24  C   UNL     1      -1.007  -2.477   0.136  0.00  0.00    +0.001 A 
ATOM     25  C   UNL     1       0.055  -3.311   0.011  0.00  0.00    +0.017 A 
ATOM     26  C   UNL     1       0.793  -3.317  -1.254  0.00  0.00    -0.001 A 
ATOM     27  C   UNL     1       1.893  -4.160  -1.445  0.00  0.00    +0.010 A 
ATOM     28  C   UNL     1       2.563  -4.139  -2.635  0.00  0.00    +0.004 A 
ATOM     29  C   UNL     1       2.162  -3.289  -3.657  0.00  0.00    -0.046 A 
ATOM     30  C   UNL     1       1.081  -2.451  -3.491  0.00  0.00    -0.024 A 
ATOM     31  C   UNL     1       0.383  -2.455  -2.288  0.00  0.00    +0.052 A 
ATOM     32  N   UNL     1      -0.703  -1.627  -2.095  0.00  0.00    -0.322 N 
ATOM     33  H   UNL     1      -0.984  -1.034  -2.808  0.00  0.00    +0.169 HD
ATOM     34  C   UNL     1      -1.377  -1.631  -0.931  0.00  0.00    +0.251 A 
ATOM     35  O   UNL     1      -2.333  -0.886  -0.796  0.00  0.00    -0.268 OA
ATOM     36  C   UNL     1       0.656  -1.534  -4.609  0.00  0.00    +0.046 C 
ATOM     37  C   UNL     1       2.917  -3.283  -4.961  0.00  0.00    +0.044 C 
ENDBRANCH  23  24
ENDBRANCH   1  23
TORSDOF 10
