REMARK  Name = ZINC45681522
REMARK  13 active torsions:
REMARK  status: ('A' for Active; 'I' for Inactive)
REMARK    1  A    between atoms: C_1  and  C_2
REMARK    2  A    between atoms: C_2  and  C_3
REMARK    3  A    between atoms: C_7  and  C_33
REMARK    4  A    between atoms: C_8  and  N_9
REMARK    5  A    between atoms: C_10  and  C_12
REMARK    6  A    between atoms: C_12  and  O_13
REMARK    7  A    between atoms: O_13  and  C_14
REMARK    8  A    between atoms: C_14  and  C_16
REMARK    9  A    between atoms: C_18  and  C_26
REMARK   10  A    between atoms: C_22  and  C_25
REMARK   11  A    between atoms: C_28  and  C_32
REMARK   12  A    between atoms: C_30  and  C_31
REMARK   13  A    between atoms: C_33  and  C_34
REMARK                            x       y       z     vdW  Elec       q    Type
REMARK                         _______ _______ _______ _____ _____    ______ ____
ROOT
ATOM      1  C   UNL     1       3.664   6.660  -0.390  0.00  0.00    +0.341 C 
ATOM      2  O   UNL     1       3.095   7.417  -1.151  0.00  0.00    -0.245 OA
ENDROOT
BRANCH   1   3
ATOM      3  C   UNL     1       4.758   7.160   0.470  0.00  0.00    +0.075 A 
ATOM      4  C   UNL     1       4.895   6.723   1.784  0.00  0.00    +0.044 A 
ATOM      5  C   UNL     1       5.944   7.222   2.561  0.00  0.00    +0.076 A 
ATOM      6  N   UNL     1       6.808   8.100   2.072  0.00  0.00    -0.210 NA
ATOM      7  C   UNL     1       6.723   8.548   0.830  0.00  0.00    +0.260 A 
ATOM      8  C   UNL     1       5.699   8.091  -0.018  0.00  0.00    +0.077 A 
ATOM      9  C   UNL     1       5.888   8.762  -1.302  0.00  0.00    +0.091 A 
ATOM     10  N   UNL     1       6.932   9.528  -1.190  0.00  0.00    -0.080 NA
ATOM     11  O   UNL     1       7.462   9.422   0.116  0.00  0.00    -0.334 OA
ATOM     12  C   UNL     1       5.031   8.597  -2.531  0.00  0.00    +0.070 C 
BRANCH   5  13
ATOM     13  C   UNL     1       6.094   6.761   3.960  0.00  0.00    +0.011 A 
ATOM     14  C   UNL     1       5.206   5.833   4.507  0.00  0.00    +0.021 A 
ATOM     15  C   UNL     1       5.429   5.475   5.792  0.00  0.00    -0.012 A 
ATOM     16  S   UNL     1       6.868   6.438   6.212  0.00  0.00    -0.098 S 
ATOM     17  C   UNL     1       7.105   7.226   4.747  0.00  0.00    -0.004 A 
ATOM     18  C   UNL     1       8.182   8.216   4.387  0.00  0.00    +0.052 C 
ATOM     19  C   UNL     1       4.655   4.509   6.651  0.00  0.00    +0.051 C 
ENDBRANCH   5  13
ENDBRANCH   1   3
BRANCH   1  20
ATOM     20  O   UNL     1       3.298   5.365  -0.330  0.00  0.00    -0.452 OA
BRANCH  20  21
ATOM     21  C   UNL     1       2.234   4.951  -1.189  0.00  0.00    +0.328 C 
BRANCH  21  23
ATOM     22  N   UNL     1       0.998   2.868  -1.693  0.00  0.00    -0.282 N 
ATOM     23  C   UNL     1       1.966   3.482  -0.985  0.00  0.00    +0.255 C 
ATOM     24  O   UNL     1       2.622   2.852  -0.182  0.00  0.00    -0.272 OA
ATOM     25  H   UNL     1       0.522   3.353  -2.385  0.00  0.00    +0.155 HD
BRANCH  22  31
ATOM     26  C   UNL     1      -0.508   1.213  -0.784  0.00  0.00    -0.026 A 
ATOM     27  C   UNL     1      -0.823  -0.107  -0.532  0.00  0.00    +0.005 A 
ATOM     28  C   UNL     1       0.045  -1.112  -0.917  0.00  0.00    +0.001 A 
ATOM     29  C   UNL     1       1.231  -0.799  -1.556  0.00  0.00    +0.005 A 
ATOM     30  C   UNL     1       1.551   0.520  -1.811  0.00  0.00    -0.026 A 
ATOM     31  C   UNL     1       0.679   1.532  -1.431  0.00  0.00    +0.040 A 
BRANCH  26  33
ATOM     32  C   UNL     1      -2.364   2.675  -1.538  0.00  0.00    +0.009 C 
ATOM     33  C   UNL     1      -1.455   2.308  -0.364  0.00  0.00    +0.033 C 
ENDBRANCH  26  33
BRANCH  30  34
ATOM     34  C   UNL     1       2.844   0.861  -2.507  0.00  0.00    +0.033 C 
ATOM     35  C   UNL     1       3.705  -0.397  -2.628  0.00  0.00    +0.009 C 
ENDBRANCH  30  34
ENDBRANCH  22  31
ENDBRANCH  21  23
ENDBRANCH  20  21
ENDBRANCH   1  20
TORSDOF 8
