REMARK  Name = ZINC67537852
REMARK  5 active torsions:
REMARK  status: ('A' for Active; 'I' for Inactive)
REMARK    1  A    between atoms: C_6  and  C_11
REMARK    2  A    between atoms: C_11  and  C_13
REMARK    3  A    between atoms: C_11  and  O_27
REMARK    4  A    between atoms: C_13  and  N_14
REMARK    5  A    between atoms: C_21  and  C_23
REMARK                            x       y       z     vdW  Elec       q    Type
REMARK                         _______ _______ _______ _____ _____    ______ ____
ROOT
ATOM      1  N   UNL     1       6.665  -3.753  -1.519  0.00  0.00    -0.296 N 
ATOM      2  C   UNL     1       7.195  -4.160  -2.689  0.00  0.00    +0.305 C 
ATOM      3  O   UNL     1       6.608  -3.943  -3.731  0.00  0.00    -0.252 OA
ATOM      4  N   UNL     1       8.377  -4.808  -2.704  0.00  0.00    -0.247 N 
ATOM      5  C   UNL     1       8.924  -5.228  -3.912  0.00  0.00    +0.189 A 
ATOM      6  N   UNL     1       8.451  -5.085  -5.134  0.00  0.00    -0.125 NA
ATOM      7  N   UNL     1       9.069  -5.524  -6.145  0.00  0.00    -0.136 NA
ATOM      8  C   UNL     1      10.219  -6.144  -5.974  0.00  0.00    +0.206 A 
ATOM      9  S   UNL     1      10.370  -6.047  -4.196  0.00  0.00    -0.027 S 
ATOM     10  H   UNL     1       7.134  -3.926  -0.688  0.00  0.00    +0.150 HD
ATOM     11  H   UNL     1       8.846  -4.981  -1.873  0.00  0.00    +0.158 HD
ENDROOT
BRANCH   8  12
ATOM     12  C   UNL     1      11.147  -6.756  -6.992  0.00  0.00    +0.443 C 
ATOM     13  F   UNL     1      10.671  -6.486  -8.279  0.00  0.00    -0.164 F 
ATOM     14  F   UNL     1      12.427  -6.210  -6.843  0.00  0.00    -0.164 F 
ATOM     15  F   UNL     1      11.205  -8.140  -6.796  0.00  0.00    -0.164 F 
ENDBRANCH   8  12
BRANCH   1  16
ATOM     16  C   UNL     1       5.380  -3.049  -1.503  0.00  0.00    +0.141 C 
BRANCH  16  17
ATOM     17  C   UNL     1       5.008  -2.700  -0.060  0.00  0.00    +0.162 C 
BRANCH  17  23
ATOM     18  C   UNL     1      -0.016   1.357   0.009  0.00  0.00    +0.001 A 
ATOM     19  C   UNL     1       1.169   2.091   0.002  0.00  0.00    +0.001 A 
ATOM     20  C   UNL     1       2.378   1.468  -0.013  0.00  0.00    +0.008 A 
ATOM     21  C   UNL     1       2.438   0.063  -0.021  0.00  0.00    -0.018 A 
ATOM     22  C   UNL     1       3.668  -0.615  -0.036  0.00  0.00    +0.014 A 
ATOM     23  C   UNL     1       3.687  -1.976  -0.043  0.00  0.00    -0.017 A 
ATOM     24  C   UNL     1       2.502  -2.710  -0.036  0.00  0.00    +0.007 A 
ATOM     25  C   UNL     1       1.292  -2.087  -0.021  0.00  0.00    +0.009 A 
ATOM     26  C   UNL     1       1.233  -0.683  -0.013  0.00  0.00    -0.018 A 
ATOM     27  C   UNL     1       0.002  -0.004   0.002  0.00  0.00    +0.008 A 
ENDBRANCH  17  23
BRANCH  17  28
ATOM     28  O   UNL     1       4.903  -3.901   0.708  0.00  0.00    -0.386 OA
ATOM     29  H   UNL     1       4.234  -4.519   0.382  0.00  0.00    +0.210 HD
ENDBRANCH  17  28
ENDBRANCH  16  17
ENDBRANCH   1  16
TORSDOF 5
