REMARK  Name = ZINC02907768
REMARK  15 active torsions:
REMARK  status: ('A' for Active; 'I' for Inactive)
REMARK    1  A    between atoms: C_1  and  C_2
REMARK    2  A    between atoms: C_2  and  C_3
REMARK    3  A    between atoms: C_3  and  C_4
REMARK    4  A    between atoms: C_4  and  C_5
REMARK    5  A    between atoms: C_5  and  C_6
REMARK    6  A    between atoms: C_5  and  C_13
REMARK    7  A    between atoms: C_5  and  O_28
REMARK    8  A    between atoms: C_13  and  C_15
REMARK    9  A    between atoms: C_13  and  C_22
REMARK   10  A    between atoms: C_15  and  N_16
REMARK   11  A    between atoms: N_16  and  C_17
REMARK   12  A    between atoms: C_17  and  C_18
REMARK   13  A    between atoms: C_18  and  C_19
REMARK   14  A    between atoms: C_19  and  C_20
REMARK   15  A    between atoms: C_20  and  O_21
REMARK                            x       y       z     vdW  Elec       q    Type
REMARK                         _______ _______ _______ _____ _____    ______ ____
ROOT
ATOM      1  C   UNL     1       1.183  -3.728  -2.108  0.00  0.00    +0.038 C 
ENDROOT
BRANCH   1   2
ATOM      2  C   UNL     1      -0.264  -4.101  -2.308  0.00  0.00    -0.043 A 
ATOM      3  C   UNL     1      -1.252  -3.428  -1.615  0.00  0.00    +0.004 A 
ATOM      4  C   UNL     1      -2.579  -3.769  -1.799  0.00  0.00    +0.000 A 
ATOM      5  C   UNL     1      -2.917  -4.783  -2.675  0.00  0.00    +0.000 A 
ATOM      6  C   UNL     1      -1.929  -5.455  -3.369  0.00  0.00    +0.000 A 
ATOM      7  C   UNL     1      -0.602  -5.111  -3.189  0.00  0.00    +0.004 A 
ENDBRANCH   1   2
BRANCH   1   8
ATOM      8  C   UNL     1       1.425  -2.317  -2.646  0.00  0.00    +0.096 C 
BRANCH   8   9
ATOM      9  C   UNL     1       2.891  -1.982  -2.537  0.00  0.00    -0.016 A 
ATOM     10  C   UNL     1       3.833  -2.804  -3.127  0.00  0.00    +0.007 A 
ATOM     11  C   UNL     1       5.177  -2.498  -3.028  0.00  0.00    +0.015 A 
ATOM     12  C   UNL     1       5.579  -1.369  -2.338  0.00  0.00    +0.018 A 
ATOM     13  C   UNL     1       4.637  -0.547  -1.747  0.00  0.00    +0.015 A 
ATOM     14  C   UNL     1       3.292  -0.851  -1.851  0.00  0.00    +0.007 A 
ATOM     15 BR   UNL     1       7.418  -0.949  -2.201  0.00  0.00    -0.050 Br
ENDBRANCH   8   9
BRANCH   8  16
ATOM     16  O   UNL     1       0.665  -1.379  -1.881  0.00  0.00    -0.383 OA
ATOM     17  H   UNL     1       0.886  -1.368  -0.940  0.00  0.00    +0.211 HD
ENDBRANCH   8  16
BRANCH   8  18
ATOM     18  C   UNL     1       0.994  -2.248  -4.112  0.00  0.00    +0.040 C 
BRANCH  18  19
ATOM     19  C   UNL     1       1.246  -0.839  -4.652  0.00  0.00    +0.003 C 
BRANCH  19  21
ATOM     20  C   UNL     1       1.066   0.639  -6.659  0.00  0.00    +0.004 C 
ATOM     21  C   UNL     1       0.815  -0.770  -6.119  0.00  0.00    -0.003 C 
ENDBRANCH  19  21
ENDBRANCH  18  19
ENDBRANCH   8  18
ENDBRANCH   1   8
BRANCH   1  22
ATOM     22  C   UNL     1       1.519  -3.771  -0.617  0.00  0.00    -0.071 C 
BRANCH  22  23
ATOM     23  N   UNL     1       1.402  -5.151  -0.127  0.00  0.00    +0.380 N 
ATOM     24  H   UNL     1       0.458  -5.479  -0.269  0.00  0.00    -0.086 HD
ATOM     25  H   UNL     1       2.043  -5.743  -0.633  0.00  0.00    -0.086 HD
BRANCH  23  26
ATOM     26  C   UNL     1       1.724  -5.192   1.305  0.00  0.00    -0.083 C 
BRANCH  26  27
ATOM     27  C   UNL     1       1.602  -6.629   1.815  0.00  0.00    -0.017 C 
BRANCH  27  28
ATOM     28  C   UNL     1       1.938  -6.672   3.307  0.00  0.00    +0.026 C 
BRANCH  28  29
ATOM     29  C   UNL     1       1.816  -8.109   3.817  0.00  0.00    +0.156 C 
BRANCH  29  30
ATOM     30  O   UNL     1       2.130  -8.149   5.210  0.00  0.00    -0.395 OA
ATOM     31  H   UNL     1       2.072  -9.032   5.601  0.00  0.00    +0.209 HD
ENDBRANCH  29  30
ENDBRANCH  28  29
ENDBRANCH  27  28
ENDBRANCH  26  27
ENDBRANCH  23  26
ENDBRANCH  22  23
ENDBRANCH   1  22
TORSDOF 14
