REMARK  Name = ZINC14015874
REMARK  4 active torsions:
REMARK  status: ('A' for Active; 'I' for Inactive)
REMARK    1  A    between atoms: C_1  and  C_2
REMARK    2  A    between atoms: C_12  and  C_14
REMARK    3  A    between atoms: N_19  and  S_21
REMARK    4  A    between atoms: S_21  and  C_24
REMARK                            x       y       z     vdW  Elec       q    Type
REMARK                         _______ _______ _______ _____ _____    ______ ____
ROOT
ATOM      1  C   UNL     1      -2.044   6.797  -5.355  0.00  0.00    +0.091 C 
ATOM      2  C   UNL     1      -0.903   7.815  -5.410  0.00  0.00    +0.015 C 
ATOM      3  C   UNL     1      -1.218   8.880  -6.463  0.00  0.00    +0.018 C 
ATOM      4  C   UNL     1      -1.339   8.214  -7.837  0.00  0.00    +0.109 C 
ATOM      5  N   UNL     1      -2.333   7.136  -7.754  0.00  0.00    -0.176 NA
ATOM      6  C   UNL     1      -2.175   6.107  -6.717  0.00  0.00    +0.122 C 
ENDROOT
BRANCH   1  17
ATOM      7  C   UNL     1      -0.138   0.872   2.497  0.00  0.00    +0.008 C 
ATOM      8  C   UNL     1      -0.724   1.577   1.272  0.00  0.00    -0.009 C 
ATOM      9  C   UNL     1      -0.013   1.086   0.008  0.00  0.00    +0.010 C 
ATOM     10  C   UNL     1      -0.747   1.590  -1.235  0.00  0.00    +0.056 C 
ATOM     11  C   UNL     1      -0.915   3.101  -1.127  0.00  0.00    +0.054 A 
ATOM     12  C   UNL     1      -0.797   3.718   0.077  0.00  0.00    +0.015 A 
ATOM     13  S   UNL     1      -1.069   5.422  -0.330  0.00  0.00    -0.057 S 
ATOM     14  C   UNL     1      -1.315   5.196  -2.035  0.00  0.00    +0.165 A 
ATOM     15  N   UNL     1      -1.178   3.892  -2.164  0.00  0.00    -0.229 NA
ATOM     16  N   UNL     1      -1.588   6.146  -3.012  0.00  0.00    -0.264 N 
ATOM     17  C   UNL     1      -1.748   5.766  -4.296  0.00  0.00    +0.223 C 
ATOM     18  O   UNL     1      -1.654   4.596  -4.598  0.00  0.00    -0.275 OA
ATOM     19  C   UNL     1      -0.510   3.094   1.401  0.00  0.00    +0.047 C 
ATOM     20  H   UNL     1      -1.664   7.082  -2.771  0.00  0.00    +0.157 HD
ENDBRANCH   1  17
BRANCH   5  21
ATOM     21  S   UNL     1      -3.607   7.080  -8.810  0.00  0.00    +0.061 S 
ATOM     22  O   UNL     1      -4.633   6.333  -8.170  0.00  0.00    -0.153 OA
ATOM     23  O   UNL     1      -3.809   8.408  -9.274  0.00  0.00    -0.153 OA
BRANCH  21  24
ATOM     24  C   UNL     1      -3.089   6.133 -10.203  0.00  0.00    +0.106 A 
ATOM     25  C   UNL     1      -2.495   6.761 -11.282  0.00  0.00    +0.031 A 
ATOM     26  C   UNL     1      -2.084   6.018 -12.373  0.00  0.00    +0.040 A 
ATOM     27  C   UNL     1      -2.276   4.647 -12.389  0.00  0.00    +0.124 A 
ATOM     28  C   UNL     1      -2.876   4.021 -11.310  0.00  0.00    +0.040 A 
ATOM     29  C   UNL     1      -3.282   4.764 -10.218  0.00  0.00    +0.031 A 
ATOM     30  F   UNL     1      -1.879   3.921 -13.457  0.00  0.00    -0.205 F 
ENDBRANCH  21  24
ENDBRANCH   5  21
TORSDOF 3
