REMARK  Name = ZINC53714649
REMARK  4 active torsions:
REMARK  status: ('A' for Active; 'I' for Inactive)
REMARK    1  A    between atoms: C_5  and  C_8
REMARK    2  A    between atoms: N_10  and  C_11
REMARK    3  A    between atoms: C_11  and  C_16
REMARK    4  A    between atoms: C_16  and  N_18
REMARK                            x       y       z     vdW  Elec       q    Type
REMARK                         _______ _______ _______ _____ _____    ______ ____
ROOT
ATOM      1  C   UNL     1       2.055  -1.021  -3.120  0.00  0.00    +0.217 C 
ATOM      2  O   UNL     1       2.218  -0.654  -4.264  0.00  0.00    -0.275 OA
ATOM      3  N   UNL     1       2.189  -2.324  -2.804  0.00  0.00    -0.304 N 
ATOM      4  H   UNL     1       2.133  -2.607  -1.878  0.00  0.00    +0.150 HD
ENDROOT
BRANCH   1   9
ATOM      5  C   UNL     1       0.151   1.778  -0.196  0.00  0.00    +0.000 C 
ATOM      6  C   UNL     1       1.583   2.239  -0.245  0.00  0.00    +0.000 C 
ATOM      7  C   UNL     1       2.082   2.459  -1.687  0.00  0.00    +0.001 C 
ATOM      8  C   UNL     1       1.614   1.356  -2.656  0.00  0.00    +0.013 C 
ATOM      9  C   UNL     1       1.703  -0.019  -2.050  0.00  0.00    +0.075 C 
ATOM     10  C   UNL     1       0.333  -0.374  -1.438  0.00  0.00    +0.013 C 
ATOM     11  C   UNL     1       0.134   0.237  -0.132  0.00  0.00    +0.001 C 
ENDBRANCH   1   9
BRANCH   3  12
ATOM     12  C   UNL     1       2.420  -3.313  -3.860  0.00  0.00    +0.079 C 
ATOM     13  C   UNL     1       2.521  -4.736  -3.256  0.00  0.00    +0.032 C 
ATOM     14  C   UNL     1       3.981  -4.786  -2.741  0.00  0.00    +0.003 C 
ATOM     15  C   UNL     1       4.786  -4.021  -3.811  0.00  0.00    +0.003 C 
ATOM     16  C   UNL     1       3.794  -3.085  -4.523  0.00  0.00    +0.032 C 
BRANCH  12  17
ATOM     17  C   UNL     1       1.320  -3.251  -4.888  0.00  0.00    +0.070 C 
ATOM     18  S   UNL     1       1.684  -3.216  -6.445  0.00  0.00    -0.038 S 
BRANCH  17  19
ATOM     19  N   UNL     1       0.031  -3.225  -4.497  0.00  0.00    -0.354 N 
ATOM     20  H   UNL     1      -0.192  -3.322  -3.558  0.00  0.00    +0.143 HD
ATOM     21  H   UNL     1      -0.673  -3.109  -5.153  0.00  0.00    +0.143 HD
ENDBRANCH  17  19
ENDBRANCH  12  17
ENDBRANCH   3  12
TORSDOF 4
