REMARK  Name = ZINC20996153
REMARK  6 active torsions:
REMARK  status: ('A' for Active; 'I' for Inactive)
REMARK    1  A    between atoms: C_3  and  C_26
REMARK    2  A    between atoms: C_8  and  C_9
REMARK    3  A    between atoms: C_9  and  N_10
REMARK    4  A    between atoms: N_13  and  C_16
REMARK    5  A    between atoms: N_28  and  C_29
REMARK    6  A    between atoms: C_29  and  C_30
REMARK                            x       y       z     vdW  Elec       q    Type
REMARK                         _______ _______ _______ _____ _____    ______ ____
ROOT
ATOM      1  C   UNL     1      -0.546   2.201  -4.562  0.00  0.00    +0.023 A 
ATOM      2  C   UNL     1      -1.357   2.502  -5.656  0.00  0.00    +0.020 A 
ATOM      3  C   UNL     1      -2.626   1.932  -5.733  0.00  0.00    +0.101 A 
ATOM      4  C   UNL     1      -3.050   1.063  -4.694  0.00  0.00    +0.261 A 
ATOM      5  O   UNL     1      -4.155   0.552  -4.738  0.00  0.00    -0.267 OA
ATOM      6  N   UNL     1      -2.225   0.803  -3.662  0.00  0.00    -0.324 N 
ATOM      7  H   UNL     1      -2.547   0.124  -2.858  0.00  0.00    +0.169 HD
ATOM      8  C   UNL     1      -0.995   1.365  -3.591  0.00  0.00    +0.033 A 
ENDROOT
BRANCH   3   9
ATOM      9  C   UNL     1      -3.510   2.224  -6.871  0.00  0.00    +0.249 C 
ATOM     10  O   UNL     1      -3.180   3.050  -7.701  0.00  0.00    -0.270 OA
ATOM     11  N   UNL     1      -4.686   1.577  -6.995  0.00  0.00    -0.309 N 
ATOM     12  H   UNL     1      -5.022   0.892  -6.203  0.00  0.00    +0.149 HD
BRANCH  11  13
ATOM     13  C   UNL     1      -5.514   1.785  -8.185  0.00  0.00    +0.138 C 
BRANCH  13  14
ATOM     14  C   UNL     1      -6.785   0.939  -8.076  0.00  0.00    +0.161 C 
ATOM     15  C   UNL     1      -7.592   1.058  -9.372  0.00  0.00    +0.193 C 
ATOM     16  O   UNL     1      -8.829   0.356  -9.220  0.00  0.00    -0.375 OA
ATOM     17  C   UNL     1      -9.624   0.826  -8.127  0.00  0.00    +0.188 C 
ATOM     18  C   UNL     1      -8.817   0.706  -6.831  0.00  0.00    +0.188 C 
ATOM     19  O   UNL     1      -7.580   1.409  -6.983  0.00  0.00    -0.370 OA
ENDBRANCH  13  14
ENDBRANCH  11  13
ENDBRANCH   3   9
BRANCH   8  20
ATOM     20  C   UNL     1      -0.105   1.051  -2.416  0.00  0.00    +0.137 C 
BRANCH  20  21
ATOM     21  N   UNL     1      -0.710   1.583  -1.188  0.00  0.00    -0.300 NA
ATOM     22  C   UNL     1       0.001   1.097   0.003  0.00  0.00    +0.066 C 
ATOM     23  C   UNL     1      -0.706   1.608   1.261  0.00  0.00    -0.062 C 
ATOM     24  N   UNL     1      -0.743   3.077   1.236  0.00  0.00    +0.385 N 
ATOM     25  C   UNL     1      -1.454   3.563   0.045  0.00  0.00    -0.062 C 
ATOM     26  C   UNL     1      -0.746   3.052  -1.212  0.00  0.00    +0.066 C 
ATOM     27  H   UNL     1       0.294   3.442   1.185  0.00  0.00    -0.081 HD
BRANCH  24  28
ATOM     28  C   UNL     1      -1.348   3.609   2.464  0.00  0.00    -0.065 C 
ATOM     29  C   UNL     1      -1.282   5.138   2.444  0.00  0.00    -0.009 C 
ATOM     30  C   UNL     1      -1.912   5.692   3.723  0.00  0.00    -0.012 C 
ATOM     31  C   UNL     1      -1.147   5.165   4.939  0.00  0.00    +0.007 C 
ATOM     32  C   UNL     1      -1.213   3.636   4.959  0.00  0.00    -0.012 C 
ATOM     33  C   UNL     1      -0.583   3.082   3.679  0.00  0.00    -0.009 C 
ATOM     34  C   UNL     1      -2.674   3.189   5.043  0.00  0.00    +0.007 C 
ATOM     35  C   UNL     1      -3.439   3.717   3.827  0.00  0.00    -0.012 C 
ATOM     36  C   UNL     1      -3.373   5.245   3.807  0.00  0.00    +0.007 C 
ATOM     37  C   UNL     1      -2.809   3.163   2.548  0.00  0.00    -0.009 C 
ENDBRANCH  24  28
ENDBRANCH  20  21
ENDBRANCH   8  20
TORSDOF 6
