REMARK  Name = ZINC60275240
REMARK  9 active torsions:
REMARK  status: ('A' for Active; 'I' for Inactive)
REMARK    1  A    between atoms: C_1  and  C_2
REMARK    2  A    between atoms: C_2  and  C_3
REMARK    3  A    between atoms: C_3  and  C_4
REMARK    4  A    between atoms: C_4  and  C_5
REMARK    5  A    between atoms: C_5  and  C_7
REMARK    6  A    between atoms: C_5  and  N_24
REMARK    7  A    between atoms: C_13  and  C_16
REMARK    8  A    between atoms: C_16  and  N_17
REMARK    9  A    between atoms: C_20  and  C_23
REMARK                            x       y       z     vdW  Elec       q    Type
REMARK                         _______ _______ _______ _____ _____    ______ ____
ROOT
ATOM      1  C   UNL     1       1.417  -4.051   2.529  0.00  0.00    +0.236 C 
ATOM      2  O   UNL     1       2.353  -4.726   2.156  0.00  0.00    -0.274 OA
ATOM      3  N   UNL     1       0.301  -4.646   2.994  0.00  0.00    -0.300 N 
ATOM      4  C   UNL     1      -0.844  -3.842   3.443  0.00  0.00    +0.108 C 
ATOM      5  C   UNL     1      -2.099  -4.312   2.702  0.00  0.00    +0.019 C 
ATOM      6  C   UNL     1      -2.271  -5.820   2.905  0.00  0.00    +0.005 C 
ATOM      7  C   UNL     1      -1.062  -6.556   2.323  0.00  0.00    -0.010 C 
ATOM      8  C   UNL     1       0.203  -6.111   3.055  0.00  0.00    +0.109 C 
ENDROOT
BRANCH   1   9
ATOM      9  C   UNL     1       1.503  -2.548   2.473  0.00  0.00    +0.160 C 
BRANCH   9  10
ATOM     10  N   UNL     1       2.908  -2.140   2.403  0.00  0.00    -0.288 N 
ATOM     11  C   UNL     1       3.678  -2.549   1.374  0.00  0.00    +0.298 C 
ATOM     12  O   UNL     1       3.206  -3.255   0.505  0.00  0.00    -0.253 OA
ATOM     13  N   UNL     1       4.971  -2.175   1.310  0.00  0.00    -0.313 N 
ATOM     14  H   UNL     1       3.285  -1.577   3.097  0.00  0.00    +0.151 HD
ATOM     15  H   UNL     1       5.348  -1.611   2.004  0.00  0.00    +0.146 HD
ATOM     16  H   UNL     1       5.525  -2.469   0.570  0.00  0.00    +0.146 HD
ENDBRANCH   9  10
BRANCH   9  17
ATOM     17  C   UNL     1       0.763  -2.041   1.233  0.00  0.00    +0.032 C 
BRANCH  17  18
ATOM     18  C   UNL     1       0.742  -0.511   1.242  0.00  0.00    +0.002 C 
BRANCH  18  20
ATOM     19  C   UNL     1      -0.019   1.526   0.010  0.00  0.00    +0.004 C 
ATOM     20  C   UNL     1       0.002  -0.004   0.002  0.00  0.00    -0.003 C 
ENDBRANCH  18  20
ENDBRANCH  17  18
ENDBRANCH   9  17
ENDBRANCH   1   9
BRANCH   7  21
ATOM     21  C   UNL     1      -1.251  -8.064   2.496  0.00  0.00    -0.074 C 
BRANCH  21  22
ATOM     22  N   UNL     1      -2.398  -8.509   1.694  0.00  0.00    +0.380 N 
ATOM     23  C   UNL     1      -2.107  -8.306   0.270  0.00  0.00    -0.079 C 
ATOM     24  C   UNL     1      -3.329  -8.692  -0.565  0.00  0.00    -0.016 C 
ATOM     25  C   UNL     1      -3.667 -10.165  -0.316  0.00  0.00    -0.018 C 
ATOM     26  C   UNL     1      -3.896 -10.380   1.183  0.00  0.00    -0.016 C 
ATOM     27  C   UNL     1      -2.652  -9.931   1.953  0.00  0.00    -0.079 C 
ATOM     28  C   UNL     1      -4.935 -10.537  -1.086  0.00  0.00    +0.007 C 
ATOM     29  H   UNL     1      -3.213  -7.971   1.948  0.00  0.00    -0.082 HD
ENDBRANCH  21  22
ENDBRANCH   7  21
TORSDOF 7
