REMARK  Name = ZINC39687510
REMARK  8 active torsions:
REMARK  status: ('A' for Active; 'I' for Inactive)
REMARK    1  A    between atoms: C_1  and  C_2
REMARK    2  A    between atoms: C_2  and  C_3
REMARK    3  A    between atoms: C_2  and  C_4
REMARK    4  A    between atoms: C_4  and  C_6
REMARK    5  A    between atoms: C_4  and  O_34
REMARK    6  A    between atoms: C_10  and  C_19
REMARK    7  A    between atoms: N_21  and  C_22
REMARK    8  A    between atoms: O_34  and  C_35
REMARK                            x       y       z     vdW  Elec       q    Type
REMARK                         _______ _______ _______ _____ _____    ______ ____
ROOT
ATOM      1  C   UNL     1      -1.837  -0.574  -1.784  0.00  0.00    +0.257 C 
ATOM      2  O   UNL     1      -2.188  -1.495  -2.491  0.00  0.00    -0.272 OA
ATOM      3  N   UNL     1      -1.869   0.688  -2.257  0.00  0.00    -0.297 N 
ATOM      4  C   UNL     1      -1.385   1.919  -1.590  0.00  0.00    +0.121 C 
ATOM      5  C   UNL     1      -0.731   2.744  -2.721  0.00  0.00    +0.100 C 
ATOM      6  C   UNL     1      -1.400   2.240  -4.011  0.00  0.00    -0.004 C 
ATOM      7  C   UNL     1      -2.390   1.156  -3.563  0.00  0.00    +0.115 C 
ATOM      8  C   UNL     1      -2.140   3.381  -4.702  0.00  0.00    -0.010 C 
ATOM      9  C   UNL     1      -2.748   2.870  -6.011  0.00  0.00    -0.082 C 
ATOM     10  N   UNL     1      -1.682   2.355  -6.880  0.00  0.00    +0.379 N 
ATOM     11  C   UNL     1      -1.036   1.199  -6.247  0.00  0.00    -0.082 C 
ATOM     12  C   UNL     1      -0.356   1.639  -4.947  0.00  0.00    -0.010 C 
ATOM     13  H   UNL     1      -2.077   2.075  -7.765  0.00  0.00    -0.086 HD
ATOM     14  H   UNL     1      -0.997   3.079  -7.034  0.00  0.00    -0.086 HD
ENDROOT
BRANCH   5  15
ATOM     15  C   UNL     1       0.754   2.490  -2.764  0.00  0.00    +0.218 C 
ATOM     16  O   UNL     1       1.191   1.396  -2.476  0.00  0.00    -0.275 OA
ATOM     17  N   UNL     1       1.597   3.480  -3.122  0.00  0.00    -0.312 N 
ATOM     18  H   UNL     1       1.255   4.373  -3.281  0.00  0.00    +0.149 HD
BRANCH  17  19
ATOM     19  C   UNL     1       3.028   3.205  -3.270  0.00  0.00    +0.076 C 
ATOM     20  C   UNL     1       3.699   3.239  -1.895  0.00  0.00    +0.041 C 
ATOM     21  C   UNL     1       5.189   2.917  -2.050  0.00  0.00    +0.108 C 
ATOM     22  N   UNL     1       5.773   3.843  -3.029  0.00  0.00    -0.317 N 
ATOM     23  C   UNL     1       5.149   3.956  -4.355  0.00  0.00    +0.108 C 
ATOM     24  C   UNL     1       3.660   4.266  -4.174  0.00  0.00    +0.041 C 
ATOM     25  C   UNL     1       6.894   4.599  -2.708  0.00  0.00    +0.099 A 
ATOM     26  C   UNL     1       7.359   5.558  -3.602  0.00  0.00    +0.042 A 
ATOM     27  C   UNL     1       8.476   6.303  -3.269  0.00  0.00    +0.005 A 
ATOM     28  C   UNL     1       9.094   6.062  -2.049  0.00  0.00    +0.018 A 
ATOM     29  C   UNL     1       8.579   5.095  -1.210  0.00  0.00    +0.084 A 
ATOM     30  N   UNL     1       7.508   4.403  -1.551  0.00  0.00    -0.350 N 
ATOM     31  H   UNL     1       7.164   3.732  -0.941  0.00  0.00    +0.166 HD
ENDBRANCH  17  19
ENDBRANCH   5  15
BRANCH   1  32
ATOM     32  C   UNL     1      -1.365  -0.841  -0.378  0.00  0.00    +0.261 C 
BRANCH  32  34
ATOM     33  C   UNL     1      -3.622  -1.639   0.339  0.00  0.00    +0.011 C 
ATOM     34  C   UNL     1      -2.519  -0.610   0.600  0.00  0.00    +0.033 C 
ATOM     35  C   UNL     1      -2.010  -0.761   2.034  0.00  0.00    +0.011 C 
ENDBRANCH  32  34
BRANCH  32  36
ATOM     36  O   UNL     1      -0.288   0.043  -0.061  0.00  0.00    -0.479 OA
BRANCH  36  37
ATOM     37  C   UNL     1       0.730  -0.465   0.681  0.00  0.00    +0.122 A 
ATOM     38  C   UNL     1       0.716  -1.801   1.056  0.00  0.00    +0.045 A 
ATOM     39  C   UNL     1       1.753  -2.316   1.810  0.00  0.00    +0.004 A 
ATOM     40  C   UNL     1       2.803  -1.501   2.191  0.00  0.00    +0.000 A 
ATOM     41  C   UNL     1       2.819  -0.170   1.819  0.00  0.00    +0.004 A 
ATOM     42  C   UNL     1       1.788   0.348   1.060  0.00  0.00    +0.045 A 
ENDBRANCH  36  37
ENDBRANCH  32  36
ENDBRANCH   1  32
TORSDOF 6
