REMARK  Name = ZINC24717567
REMARK  17 active torsions:
REMARK  status: ('A' for Active; 'I' for Inactive)
REMARK    1  A    between atoms: C_1  and  C_2
REMARK    2  A    between atoms: C_2  and  C_3
REMARK    3  A    between atoms: C_2  and  C_4
REMARK    4  A    between atoms: C_4  and  C_5
REMARK    5  A    between atoms: C_10  and  O_34
REMARK    6  A    between atoms: C_11  and  O_14
REMARK    7  A    between atoms: O_14  and  C_15
REMARK    8  A    between atoms: C_19  and  O_22
REMARK    9  A    between atoms: C_20  and  O_21
REMARK   10  A    between atoms: O_22  and  C_23
REMARK   11  A    between atoms: N_26  and  C_33
REMARK   12  A    between atoms: C_27  and  C_29
REMARK   13  A    between atoms: C_29  and  C_30
REMARK   14  A    between atoms: C_30  and  C_31
REMARK   15  A    between atoms: C_30  and  C_32
REMARK   16  A    between atoms: O_34  and  C_35
REMARK   17  A    between atoms: N_38  and  C_39
REMARK                            x       y       z     vdW  Elec       q    Type
REMARK                         _______ _______ _______ _____ _____    ______ ____
ROOT
ATOM      1  O   UNL     1       3.495   4.971   0.558  0.00  0.00    -0.444 OA
ENDROOT
BRANCH   1   7
ATOM      2  C   UNL     1       0.606   1.252  -0.687  0.00  0.00    -0.034 C 
ATOM      3  C   UNL     1       0.795   2.729  -0.460  0.00  0.00    -0.007 A 
ATOM      4  C   UNL     1      -0.231   3.631  -0.643  0.00  0.00    -0.040 A 
ATOM      5  C   UNL     1      -0.013   4.983  -0.428  0.00  0.00    +0.053 A 
ATOM      6  C   UNL     1       1.231   5.439  -0.027  0.00  0.00    +0.166 A 
ATOM      7  C   UNL     1       2.269   4.533   0.163  0.00  0.00    +0.217 A 
ATOM      8  C   UNL     1       2.048   3.180  -0.055  0.00  0.00    +0.226 A 
ATOM      9  O   UNL     1       3.060   2.291   0.129  0.00  0.00    -0.284 OA
ATOM     10  C   UNL     1      -1.606   3.187  -1.076  0.00  0.00    +0.017 C 
ATOM     11  C   UNL     1      -1.540   1.772  -1.653  0.00  0.00    -0.074 C 
ATOM     12  N   UNL     1      -0.820   0.912  -0.700  0.00  0.00    +0.383 N 
ATOM     13  C   UNL     1      -1.021  -0.508  -1.017  0.00  0.00    -0.095 C 
ATOM     14  H   UNL     1      -1.226   1.089   0.307  0.00  0.00    -0.081 HD
BRANCH   6  15
ATOM     15  O   UNL     1       1.438   6.766   0.182  0.00  0.00    -0.491 OA
ATOM     16  C   UNL     1       0.299   7.624   0.079  0.00  0.00    +0.277 C 
ENDBRANCH   6  15
BRANCH   2  17
ATOM     17  C   UNL     1       1.300   0.475   0.435  0.00  0.00    -0.008 C 
BRANCH  17  19
ATOM     18  C   UNL     1       1.145  -0.192   2.837  0.00  0.00    +0.007 C 
ATOM     19  C   UNL     1       0.564   0.719   1.754  0.00  0.00    -0.018 C 
ATOM     20  C   UNL     1       0.735   2.181   2.171  0.00  0.00    +0.007 C 
ENDBRANCH  17  19
ENDBRANCH   2  17
ENDBRANCH   1   7
BRANCH   1  21
ATOM     21  C   UNL     1       3.823   4.848   1.872  0.00  0.00    +0.179 A 
ATOM     22  C   UNL     1       4.807   3.942   2.259  0.00  0.00    +0.019 A 
ATOM     23  C   UNL     1       5.145   3.824   3.590  0.00  0.00    -0.034 A 
ATOM     24  C   UNL     1       4.495   4.597   4.541  0.00  0.00    +0.053 A 
ATOM     25  C   UNL     1       3.510   5.494   4.164  0.00  0.00    +0.165 A 
ATOM     26  C   UNL     1       3.172   5.622   2.822  0.00  0.00    +0.202 A 
ATOM     27  C   UNL     1       6.213   2.867   4.052  0.00  0.00    +0.051 C 
ATOM     28  C   UNL     1       6.501   1.837   2.959  0.00  0.00    +0.089 C 
ATOM     29  N   UNL     1       6.737   2.553   1.695  0.00  0.00    -0.298 NA
ATOM     30  C   UNL     1       5.481   3.120   1.192  0.00  0.00    +0.091 C 
ATOM     31  C   UNL     1       7.352   1.669   0.696  0.00  0.00    +0.105 C 
BRANCH  26  32
ATOM     32  O   UNL     1       2.206   6.503   2.441  0.00  0.00    -0.501 OA
ATOM     33  H   UNL     1       1.692   7.115   3.196  0.00  0.00    +0.292 HD
ENDBRANCH  26  32
BRANCH  25  34
ATOM     34  O   UNL     1       2.877   6.247   5.103  0.00  0.00    -0.491 OA
ATOM     35  C   UNL     1       3.278   6.061   6.462  0.00  0.00    +0.277 C 
ENDBRANCH  25  34
BRANCH  30  36
ATOM     36  C   UNL     1       5.778   4.006  -0.020  0.00  0.00    +0.026 C 
BRANCH  36  37
ATOM     37  C   UNL     1       6.846   5.037   0.351  0.00  0.00    -0.015 C 
ATOM     38  C   UNL     1       7.295   5.782  -0.908  0.00  0.00    +0.007 C 
ATOM     39  C   UNL     1       6.265   6.035   1.354  0.00  0.00    +0.007 C 
ENDBRANCH  36  37
ENDBRANCH  30  36
ENDBRANCH   1  21
TORSDOF 9
