REMARK  Name = ZINC16661843
REMARK  6 active torsions:
REMARK  status: ('A' for Active; 'I' for Inactive)
REMARK    1  A    between atoms: C_1  and  C_2
REMARK    2  A    between atoms: C_5  and  N_8
REMARK    3  A    between atoms: N_8  and  C_9
REMARK    4  A    between atoms: C_14  and  C_15
REMARK    5  A    between atoms: C_20  and  O_21
REMARK    6  A    between atoms: O_21  and  C_22
REMARK                            x       y       z     vdW  Elec       q    Type
REMARK                         _______ _______ _______ _____ _____    ______ ____
ROOT
ATOM      1  C   UNL     1      -0.170  -4.933   1.155  0.00  0.00    +0.175 C 
ATOM      2  N   UNL     1      -0.461  -4.530   2.382  0.00  0.00    -0.152 NA
ATOM      3  C   UNL     1      -0.279  -5.294   3.437  0.00  0.00    +0.276 C 
ATOM      4  O   UNL     1      -0.552  -4.911   4.563  0.00  0.00    -0.267 OA
ATOM      5  C   UNL     1       0.275  -6.644   3.183  0.00  0.00    +0.080 C 
ATOM      6  C   UNL     1       0.567  -7.642   4.055  0.00  0.00    +0.032 C 
ATOM      7  S   UNL     1       0.442  -6.592   1.403  0.00  0.00    -0.050 S 
ENDROOT
BRANCH   6   8
ATOM      8  C   UNL     1       0.497  -7.397   5.500  0.00  0.00    +0.018 A 
ATOM      9  C   UNL     1       1.008  -6.211   6.040  0.00  0.00    +0.011 A 
ATOM     10  C   UNL     1       0.938  -5.988   7.397  0.00  0.00    +0.001 A 
ATOM     11  C   UNL     1       0.365  -6.934   8.233  0.00  0.00    +0.004 A 
ATOM     12  C   UNL     1      -0.143  -8.110   7.715  0.00  0.00    +0.046 A 
ATOM     13  C   UNL     1      -0.088  -8.350   6.351  0.00  0.00    +0.127 A 
BRANCH  13  14
ATOM     14  O   UNL     1      -0.593  -9.502   5.841  0.00  0.00    -0.495 OA
ATOM     15  C   UNL     1      -1.172 -10.422   6.767  0.00  0.00    +0.277 C 
ENDBRANCH  13  14
ENDBRANCH   6   8
BRANCH   1  16
ATOM     16  N   UNL     1      -0.309  -4.244  -0.022  0.00  0.00    -0.192 NA
BRANCH  16  21
ATOM     17  C   UNL     1      -1.579   1.283   0.058  0.00  0.00    +0.044 C 
ATOM     18  C   UNL     1      -1.242  -0.185   0.036  0.00  0.00    -0.050 A 
ATOM     19  C   UNL     1      -0.612  -0.765   1.123  0.00  0.00    +0.005 A 
ATOM     20  C   UNL     1      -0.302  -2.110   1.107  0.00  0.00    +0.025 A 
ATOM     21  C   UNL     1      -0.623  -2.882  -0.003  0.00  0.00    +0.056 A 
ATOM     22  C   UNL     1      -1.255  -2.297  -1.092  0.00  0.00    +0.025 A 
ATOM     23  C   UNL     1      -1.567  -0.952  -1.067  0.00  0.00    +0.005 A 
ENDBRANCH  16  21
ENDBRANCH   1  16
TORSDOF 4
