REMARK  Name = ZINC44657327
REMARK  10 active torsions:
REMARK  status: ('A' for Active; 'I' for Inactive)
REMARK    1  A    between atoms: C_1  and  C_2
REMARK    2  A    between atoms: C_2  and  C_4
REMARK    3  A    between atoms: C_2  and  O_15
REMARK    4  A    between atoms: C_4  and  C_6
REMARK    5  A    between atoms: O_15  and  C_16
REMARK    6  A    between atoms: C_16  and  C_18
REMARK    7  A    between atoms: C_21  and  S_24
REMARK    8  A    between atoms: S_24  and  N_27
REMARK    9  A    between atoms: N_27  and  C_28
REMARK   10  A    between atoms: C_28  and  C_29
REMARK                            x       y       z     vdW  Elec       q    Type
REMARK                         _______ _______ _______ _____ _____    ______ ____
ROOT
ATOM      1  C   UNL     1      -0.045  -0.697   2.265  0.00  0.00    +0.340 C 
ATOM      2  O   UNL     1      -1.242  -0.493   2.247  0.00  0.00    -0.245 OA
ENDROOT
BRANCH   1   3
ATOM      3  C   UNL     1       0.602  -1.187   3.500  0.00  0.00    +0.059 A 
ATOM      4  C   UNL     1       1.979  -1.418   3.526  0.00  0.00    +0.017 A 
ATOM      5  C   UNL     1       2.577  -1.875   4.682  0.00  0.00    +0.029 A 
ATOM      6  C   UNL     1       1.815  -2.106   5.814  0.00  0.00    +0.105 A 
ATOM      7  C   UNL     1       0.450  -1.880   5.795  0.00  0.00    +0.029 A 
ATOM      8  C   UNL     1      -0.159  -1.416   4.647  0.00  0.00    +0.017 A 
BRANCH   6   9
ATOM      9  S   UNL     1       2.587  -2.690   7.286  0.00  0.00    +0.059 S 
ATOM     10  O   UNL     1       1.577  -3.346   8.041  0.00  0.00    -0.153 OA
ATOM     11  O   UNL     1       3.784  -3.342   6.886  0.00  0.00    -0.153 OA
BRANCH   9  12
ATOM     12  N   UNL     1       3.042  -1.360   8.161  0.00  0.00    -0.183 NA
ATOM     13  H   UNL     1       3.983  -1.180   8.317  0.00  0.00    +0.148 HD
BRANCH  12  14
ATOM     14  C   UNL     1       2.025  -0.454   8.700  0.00  0.00    +0.180 C 
BRANCH  14  15
ATOM     15  C   UNL     1       2.649   0.441   9.740  0.00  0.00    +0.120 A 
ATOM     16  C   UNL     1       3.211   1.641   9.510  0.00  0.00    +0.046 A 
ATOM     17  C   UNL     1       3.665   2.127  10.758  0.00  0.00    +0.041 A 
ATOM     18  C   UNL     1       3.353   1.194  11.675  0.00  0.00    +0.195 A 
ATOM     19  O   UNL     1       2.733   0.178  11.054  0.00  0.00    -0.466 OA
ENDBRANCH  14  15
ENDBRANCH  12  14
ENDBRANCH   9  12
ENDBRANCH   6   9
ENDBRANCH   1   3
BRANCH   1  20
ATOM     20  O   UNL     1       0.693  -0.477   1.160  0.00  0.00    -0.450 OA
BRANCH  20  22
ATOM     21  C   UNL     1      -0.019   1.526   0.010  0.00  0.00    +0.061 C 
ATOM     22  C   UNL     1       0.002  -0.004   0.002  0.00  0.00    +0.244 C 
BRANCH  22  23
ATOM     23  C   UNL     1       0.707  -0.490  -1.238  0.00  0.00    +0.202 C 
ATOM     24  O   UNL     1       1.835  -0.934  -1.160  0.00  0.00    -0.288 OA
BRANCH  23  25
ATOM     25  C   UNL     1       0.058  -0.429  -2.489  0.00  0.00    +0.027 C 
ATOM     26  C   UNL     1       0.559  -0.836  -3.712  0.00  0.00    +0.006 A 
ATOM     27  C   UNL     1       1.792  -1.406  -4.106  0.00  0.00    +0.010 A 
ATOM     28  C   UNL     1       2.019  -1.712  -5.403  0.00  0.00    +0.001 A 
ATOM     29  C   UNL     1       1.065  -1.486  -6.408  0.00  0.00    +0.002 A 
ATOM     30  C   UNL     1      -0.143  -0.946  -6.139  0.00  0.00    +0.026 A 
ATOM     31  C   UNL     1      -0.471  -0.584  -4.750  0.00  0.00    +0.043 A 
ATOM     32  N   UNL     1      -1.538  -0.059  -4.217  0.00  0.00    -0.380 N 
ATOM     33  C   UNL     1      -1.335   0.089  -2.772  0.00  0.00    +0.152 C 
ATOM     34  H   UNL     1      -2.341   0.191  -4.699  0.00  0.00    +0.160 HD
ENDBRANCH  23  25
ENDBRANCH  22  23
ENDBRANCH  20  22
ENDBRANCH   1  20
TORSDOF 9
