REMARK  Name = ZINC39674566
REMARK  9 active torsions:
REMARK  status: ('A' for Active; 'I' for Inactive)
REMARK    1  A    between atoms: C_1  and  C_2
REMARK    2  A    between atoms: C_6  and  C_8
REMARK    3  A    between atoms: C_8  and  C_9
REMARK    4  A    between atoms: C_13  and  C_22
REMARK    5  A    between atoms: N_24  and  C_25
REMARK    6  A    between atoms: C_25  and  C_27
REMARK    7  A    between atoms: C_25  and  C_28
REMARK    8  A    between atoms: C_29  and  C_35
REMARK    9  A    between atoms: C_32  and  C_34
REMARK                            x       y       z     vdW  Elec       q    Type
REMARK                         _______ _______ _______ _____ _____    ______ ____
ROOT
ATOM      1  C   UNL     1       2.149  -3.358   2.846  0.00  0.00    +0.220 C 
ATOM      2  O   UNL     1       3.143  -3.003   2.249  0.00  0.00    -0.275 OA
ATOM      3  N   UNL     1       2.263  -3.950   4.052  0.00  0.00    -0.300 N 
ATOM      4  C   UNL     1       1.175  -4.454   4.922  0.00  0.00    +0.121 C 
ATOM      5  C   UNL     1       1.726  -5.771   5.513  0.00  0.00    +0.100 C 
ATOM      6  C   UNL     1       3.255  -5.627   5.436  0.00  0.00    -0.004 C 
ATOM      7  C   UNL     1       3.505  -4.250   4.803  0.00  0.00    +0.115 C 
ATOM      8  C   UNL     1       3.845  -6.721   4.552  0.00  0.00    -0.010 C 
ATOM      9  C   UNL     1       5.371  -6.591   4.537  0.00  0.00    -0.082 C 
ATOM     10  N   UNL     1       5.888  -6.707   5.906  0.00  0.00    +0.379 N 
ATOM     11  C   UNL     1       5.388  -5.597   6.726  0.00  0.00    -0.082 C 
ATOM     12  C   UNL     1       3.863  -5.685   6.834  0.00  0.00    -0.010 C 
ATOM     13  H   UNL     1       5.583  -7.582   6.306  0.00  0.00    -0.086 HD
ATOM     14  H   UNL     1       6.896  -6.682   5.887  0.00  0.00    -0.086 HD
ENDROOT
BRANCH   5  15
ATOM     15  C   UNL     1       1.283  -5.930   6.945  0.00  0.00    +0.219 C 
ATOM     16  O   UNL     1       1.141  -4.952   7.648  0.00  0.00    -0.275 OA
ATOM     17  N   UNL     1       1.045  -7.159   7.444  0.00  0.00    -0.309 N 
ATOM     18  H   UNL     1       1.158  -7.941   6.882  0.00  0.00    +0.149 HD
BRANCH  17  19
ATOM     19  C   UNL     1       0.615  -7.313   8.836  0.00  0.00    +0.100 C 
ATOM     20  C   UNL     1       1.842  -7.340   9.749  0.00  0.00    +0.033 C 
BRANCH  19  21
ATOM     21  C   UNL     1      -0.151  -8.602   8.985  0.00  0.00    -0.001 C 
ATOM     22  C   UNL     1      -1.364  -8.783   9.514  0.00  0.00    +0.063 C 
ATOM     23  N   UNL     1      -1.717 -10.086   9.471  0.00  0.00    -0.159 NA
ATOM     24  N   UNL     1      -0.872 -10.830   8.967  0.00  0.00    -0.180 NA
ATOM     25  C   UNL     1       0.275  -9.998   8.564  0.00  0.00    +0.154 C 
ATOM     26  C   UNL     1       1.540 -10.426   9.310  0.00  0.00    +0.039 C 
ATOM     27  C   UNL     1      -2.222  -7.681  10.080  0.00  0.00    +0.067 C 
ENDBRANCH  19  21
ENDBRANCH  17  19
ENDBRANCH   5  15
BRANCH   1  28
ATOM     28  C   UNL     1       0.787  -3.138   2.240  0.00  0.00    +0.131 C 
BRANCH  28  34
ATOM     29  C   UNL     1       1.079   1.038  -0.501  0.00  0.00    +0.044 C 
ATOM     30  C   UNL     1       1.075  -0.466  -0.411  0.00  0.00    -0.050 A 
ATOM     31  C   UNL     1       1.208  -1.228  -1.557  0.00  0.00    +0.003 A 
ATOM     32  C   UNL     1       1.204  -2.608  -1.474  0.00  0.00    +0.001 A 
ATOM     33  C   UNL     1       1.067  -3.226  -0.245  0.00  0.00    +0.004 A 
ATOM     34  C   UNL     1       0.936  -2.464   0.901  0.00  0.00    -0.038 A 
ATOM     35  C   UNL     1       0.944  -1.084   0.818  0.00  0.00    +0.007 A 
ENDBRANCH  28  34
ENDBRANCH   1  28
TORSDOF 5
