REMARK  Name = ZINC11936625
REMARK  11 active torsions:
REMARK  status: ('A' for Active; 'I' for Inactive)
REMARK    1  A    between atoms: C_1  and  C_2
REMARK    2  A    between atoms: C_2  and  C_3
REMARK    3  A    between atoms: C_2  and  N_4
REMARK    4  A    between atoms: N_4  and  C_5
REMARK    5  A    between atoms: C_5  and  C_6
REMARK    6  A    between atoms: N_10  and  C_11
REMARK    7  A    between atoms: C_12  and  C_14
REMARK    8  A    between atoms: C_14  and  C_15
REMARK    9  A    between atoms: C_22  and  C_23
REMARK   10  A    between atoms: C_22  and  N_60
REMARK   11  A    between atoms: C_28  and  C_29
REMARK                            x       y       z     vdW  Elec       q    Type
REMARK                         _______ _______ _______ _____ _____    ______ ____
ROOT
ATOM      1  C   UNL     1       3.592   1.779  -2.071  0.00  0.00    +0.028 C 
ATOM      2  C   UNL     1       2.705   0.596  -1.802  0.00  0.00    +0.200 C 
ATOM      3  O   UNL     1       2.299   0.419  -0.673  0.00  0.00    -0.278 OA
ATOM      4  N   UNL     1       2.345  -0.270  -2.755  0.00  0.00    -0.318 N 
ATOM      5  C   UNL     1       2.808  -0.167  -4.136  0.00  0.00    +0.085 C 
ATOM      6  C   UNL     1       3.339   1.242  -4.408  0.00  0.00    -0.058 C 
ATOM      7  H   UNL     1       1.750  -0.998  -2.519  0.00  0.00    +0.149 HD
ATOM      8  N   UNL     1       4.307   1.578  -3.345  0.00  0.00    +0.391 N 
ATOM      9  H   UNL     1       4.971   0.803  -3.239  0.00  0.00    -0.080 HD
ENDROOT
BRANCH   1  10
ATOM     10  C   UNL     1       4.616   1.913  -0.942  0.00  0.00    +0.090 C 
BRANCH  10  12
ATOM     11  N   UNL     1       4.542   1.901   1.530  0.00  0.00    -0.292 N 
ATOM     12  C   UNL     1       3.897   2.116   0.367  0.00  0.00    +0.215 C 
ATOM     13  O   UNL     1       2.738   2.473   0.373  0.00  0.00    -0.276 OA
BRANCH  11  15
ATOM     14  C   UNL     1       6.735   2.515   2.420  0.00  0.00    +0.028 C 
ATOM     15  C   UNL     1       5.963   1.544   1.525  0.00  0.00    +0.070 C 
ATOM     16  C   UNL     1       6.133   0.118   2.054  0.00  0.00    +0.028 C 
ENDBRANCH  11  15
BRANCH  11  17
ATOM     17  C   UNL     1       3.822   2.023   2.800  0.00  0.00    +0.182 C 
BRANCH  17  18
ATOM     18  C   UNL     1       3.158   0.711   3.130  0.00  0.00    +0.127 A 
ATOM     19  N   UNL     1       3.719  -0.292   3.748  0.00  0.00    -0.239 NA
ATOM     20  C   UNL     1       2.832  -1.291   3.867  0.00  0.00    +0.130 A 
ATOM     21  C   UNL     1       1.677  -0.892   3.302  0.00  0.00    +0.106 A 
ATOM     22  N   UNL     1       1.881   0.380   2.839  0.00  0.00    -0.336 N 
ATOM     23  C   UNL     1       0.899   1.224   2.153  0.00  0.00    +0.150 C 
ENDBRANCH  17  18
ENDBRANCH  11  17
ENDBRANCH  10  12
ENDBRANCH   1  10
BRANCH   8  24
ATOM     24  C   UNL     1       5.052   2.806  -3.707  0.00  0.00    -0.041 C 
BRANCH  24  25
ATOM     25  C   UNL     1       6.323   2.861  -2.899  0.00  0.00    -0.052 A 
ATOM     26  C   UNL     1       6.568   3.939  -2.069  0.00  0.00    +0.002 A 
ATOM     27  C   UNL     1       7.733   3.989  -1.327  0.00  0.00    +0.000 A 
ATOM     28  C   UNL     1       8.651   2.958  -1.411  0.00  0.00    +0.001 A 
ATOM     29  C   UNL     1       8.408   1.883  -2.245  0.00  0.00    +0.012 A 
ATOM     30  C   UNL     1       7.243   1.833  -2.987  0.00  0.00    +0.056 A 
BRANCH  30  31
ATOM     31  C   UNL     1       6.975   0.658  -3.892  0.00  0.00    +0.418 C 
ATOM     32  F   UNL     1       8.099  -0.175  -3.920  0.00  0.00    -0.166 F 
ATOM     33  F   UNL     1       5.875  -0.060  -3.411  0.00  0.00    -0.166 F 
ATOM     34  F   UNL     1       6.703   1.117  -5.185  0.00  0.00    -0.166 F 
ENDBRANCH  30  31
ENDBRANCH  24  25
ENDBRANCH   8  24
TORSDOF 8
