REMARK  Name = ZINC51331661
REMARK  8 active torsions:
REMARK  status: ('A' for Active; 'I' for Inactive)
REMARK    1  A    between atoms: C_1  and  C_2
REMARK    2  A    between atoms: C_6  and  S_8
REMARK    3  A    between atoms: S_8  and  C_9
REMARK    4  A    between atoms: C_9  and  C_10
REMARK    5  A    between atoms: C_10  and  C_11
REMARK    6  A    between atoms: C_11  and  C_12
REMARK    7  A    between atoms: C_12  and  C_13
REMARK    8  A    between atoms: N_14  and  O_15
REMARK                            x       y       z     vdW  Elec       q    Type
REMARK                         _______ _______ _______ _____ _____    ______ ____
ROOT
ATOM      1  C   UNL     1       0.095  -5.485   3.460  0.00  0.00    +0.011 C 
ENDROOT
BRANCH   1   2
ATOM      2  C   UNL     1       0.077  -4.615   2.202  0.00  0.00    +0.077 C 
BRANCH   2   3
ATOM      3  S   UNL     1       0.055  -2.865   2.677  0.00  0.00    -0.086 S 
BRANCH   3   9
ATOM      4  C   UNL     1      -0.018   1.503   0.010  0.00  0.00    +0.066 C 
ATOM      5  C   UNL     1       0.002  -0.004   0.002  0.00  0.00    +0.043 A 
ATOM      6  C   UNL     1       0.006  -0.699  -1.198  0.00  0.00    +0.043 A 
ATOM      7  C   UNL     1       0.025  -2.084  -1.161  0.00  0.00    +0.115 A 
ATOM      8  N   UNL     1       0.040  -2.699   0.010  0.00  0.00    -0.230 NA
ATOM      9  C   UNL     1       0.035  -2.005   1.139  0.00  0.00    +0.188 A 
ATOM     10  N   UNL     1       0.022  -0.679   1.139  0.00  0.00    -0.227 NA
ENDBRANCH   3   9
ENDBRANCH   2   3
ENDBRANCH   1   2
BRANCH   1  11
ATOM     11  C   UNL     1       0.114  -6.961   3.059  0.00  0.00    +0.008 C 
BRANCH  11  12
ATOM     12  C   UNL     1       0.132  -7.832   4.317  0.00  0.00    +0.074 C 
BRANCH  12  13
ATOM     13  C   UNL     1       0.150  -9.286   3.922  0.00  0.00    +0.132 C 
ATOM     14  N   UNL     1       0.149  -9.616   2.673  0.00  0.00    -0.077 NA
ATOM     15  N   UNL     1       0.169 -10.263   4.892  0.00  0.00    -0.344 N 
ATOM     16  H   UNL     1       0.170 -10.015   5.830  0.00  0.00    +0.144 HD
ATOM     17  H   UNL     1       0.180 -11.199   4.638  0.00  0.00    +0.144 HD
BRANCH  14  18
ATOM     18  O   UNL     1       0.166 -10.982   2.301  0.00  0.00    -0.408 OA
ATOM     19  H   UNL     1       0.164 -11.130   1.346  0.00  0.00    +0.328 HD
ENDBRANCH  14  18
ENDBRANCH  12  13
ENDBRANCH  11  12
ENDBRANCH   1  11
TORSDOF 7
