REMARK  Name = ZINC35371946
REMARK  9 active torsions:
REMARK  status: ('A' for Active; 'I' for Inactive)
REMARK    1  A    between atoms: C_1  and  C_2
REMARK    2  A    between atoms: C_2  and  C_3
REMARK    3  A    between atoms: C_3  and  C_5
REMARK    4  A    between atoms: C_3  and  N_6
REMARK    5  A    between atoms: C_7  and  C_9
REMARK    6  A    between atoms: C_9  and  N_10
REMARK    7  A    between atoms: C_14  and  C_32
REMARK    8  A    between atoms: N_21  and  C_24
REMARK    9  A    between atoms: C_24  and  C_25
REMARK                            x       y       z     vdW  Elec       q    Type
REMARK                         _______ _______ _______ _____ _____    ______ ____
ROOT
ATOM      1  N   UNL     1       0.658   0.509  -6.008  0.00  0.00    -0.325 N 
ATOM      2  C   UNL     1       1.334   1.644  -6.400  0.00  0.00    +0.052 A 
ATOM      3  C   UNL     1       1.386   2.937  -5.883  0.00  0.00    +0.027 A 
ATOM      4  C   UNL     1       2.167   3.891  -6.497  0.00  0.00    +0.005 A 
ATOM      5  C   UNL     1       2.905   3.578  -7.630  0.00  0.00    -0.050 A 
ATOM      6  C   UNL     1       2.868   2.316  -8.154  0.00  0.00    +0.015 A 
ATOM      7  C   UNL     1       2.084   1.334  -7.547  0.00  0.00    +0.026 A 
ATOM      8  C   UNL     1       1.826  -0.082  -7.843  0.00  0.00    +0.103 A 
ATOM      9  C   UNL     1       0.948  -0.536  -6.862  0.00  0.00    +0.134 A 
ATOM     10  C   UNL     1       0.535  -1.888  -6.910  0.00  0.00    +0.278 A 
ATOM     11  O   UNL     1      -0.236  -2.334  -6.076  0.00  0.00    -0.265 OA
ATOM     12  N   UNL     1       1.012  -2.673  -7.899  0.00  0.00    -0.293 N 
ATOM     13  C   UNL     1       1.869  -2.169  -8.824  0.00  0.00    +0.203 A 
ATOM     14  N   UNL     1       2.254  -0.925  -8.800  0.00  0.00    -0.235 NA
ATOM     15  C   UNL     1       3.753   4.636  -8.287  0.00  0.00    +0.044 C 
ENDROOT
BRANCH   1  16
ATOM     16  C   UNL     1      -0.234   0.422  -4.849  0.00  0.00    +0.218 C 
BRANCH  16  18
ATOM     17  N   UNL     1      -0.055  -0.114  -2.441  0.00  0.00    -0.311 N 
ATOM     18  C   UNL     1       0.561   0.028  -3.631  0.00  0.00    +0.233 C 
ATOM     19  O   UNL     1       1.755  -0.162  -3.722  0.00  0.00    -0.274 OA
ATOM     20  H   UNL     1      -1.010   0.038  -2.368  0.00  0.00    +0.149 HD
BRANCH  17  21
ATOM     21  C   UNL     1       0.718  -0.497  -1.257  0.00  0.00    +0.070 C 
ATOM     22  C   UNL     1       0.849  -2.021  -1.205  0.00  0.00    +0.028 C 
BRANCH  21  24
ATOM     23  C   UNL     1      -0.019   1.526   0.010  0.00  0.00    +0.005 C 
ATOM     24  C   UNL     1       0.002  -0.004   0.002  0.00  0.00    +0.018 C 
ENDBRANCH  21  24
ENDBRANCH  17  21
ENDBRANCH  16  18
ENDBRANCH   1  16
BRANCH  12  25
ATOM     25  C   UNL     1       0.604  -4.078  -7.976  0.00  0.00    +0.163 C 
BRANCH  25  26
ATOM     26  C   UNL     1      -0.638  -4.194  -8.823  0.00  0.00    -0.009 A 
ATOM     27  C   UNL     1      -1.877  -4.305  -8.221  0.00  0.00    +0.007 A 
ATOM     28  C   UNL     1      -3.015  -4.412  -8.997  0.00  0.00    +0.000 A 
ATOM     29  C   UNL     1      -2.915  -4.408 -10.376  0.00  0.00    +0.001 A 
ATOM     30  C   UNL     1      -1.677  -4.297 -10.979  0.00  0.00    +0.020 A 
ATOM     31  C   UNL     1      -0.537  -4.184 -10.202  0.00  0.00    +0.046 A 
ATOM     32 CL   UNL     1       1.018  -4.038 -10.959  0.00  0.00    -0.083 Cl
ENDBRANCH  25  26
ENDBRANCH  12  25
TORSDOF 6
