REMARK  Name = ZINC02784522
REMARK  11 active torsions:
REMARK  status: ('A' for Active; 'I' for Inactive)
REMARK    1  A    between atoms: C_1  and  C_2
REMARK    2  A    between atoms: C_2  and  C_3
REMARK    3  A    between atoms: C_3  and  C_4
REMARK    4  A    between atoms: C_4  and  C_5
REMARK    5  A    between atoms: C_5  and  C_6
REMARK    6  A    between atoms: C_18  and  C_34
REMARK    7  A    between atoms: C_25  and  C_27
REMARK    8  A    between atoms: C_37  and  O_42
REMARK    9  A    between atoms: C_38  and  O_40
REMARK   10  A    between atoms: O_40  and  C_41
REMARK   11  A    between atoms: O_42  and  C_43
REMARK                            x       y       z     vdW  Elec       q    Type
REMARK                         _______ _______ _______ _____ _____    ______ ____
ROOT
ATOM      1  C   UNL     1      -0.710   1.576   1.248  0.00  0.00    +0.220 C 
ATOM      2  O   UNL     1      -1.712   2.251   1.148  0.00  0.00    -0.275 OA
ATOM      3  N   UNL     1      -0.237   1.248   2.467  0.00  0.00    -0.261 N 
ATOM      4  C   UNL     1       0.850   0.375   2.593  0.00  0.00    +0.058 A 
ATOM      5  C   UNL     1       2.112   0.731   2.154  0.00  0.00    +0.025 A 
ATOM      6  C   UNL     1       3.169  -0.149   2.308  0.00  0.00    +0.002 A 
ATOM      7  C   UNL     1       2.971  -1.383   2.901  0.00  0.00    +0.002 A 
ATOM      8  C   UNL     1       1.711  -1.751   3.339  0.00  0.00    +0.025 A 
ATOM      9  C   UNL     1       0.648  -0.882   3.182  0.00  0.00    +0.053 A 
ATOM     10  N   UNL     1      -0.649  -1.227   3.575  0.00  0.00    -0.316 N 
ATOM     11  C   UNL     1      -1.279  -0.475   4.574  0.00  0.00    +0.017 C 
ATOM     12  C   UNL     1      -1.287  -0.965   5.792  0.00  0.00    +0.001 C 
ATOM     13  C   UNL     1      -1.915  -0.282   6.970  0.00  0.00    +0.050 C 
ATOM     14  C   UNL     1      -3.110   0.556   6.497  0.00  0.00    +0.087 C 
ATOM     15  C   UNL     1      -2.618   1.453   5.383  0.00  0.00    +0.145 C 
ATOM     16  O   UNL     1      -2.790   2.647   5.436  0.00  0.00    -0.297 OA
ATOM     17  C   UNL     1      -1.911   0.834   4.208  0.00  0.00    +0.124 C 
ATOM     18  C   UNL     1      -0.852   1.808   3.675  0.00  0.00    +0.127 C 
ATOM     19  H   UNL     1      -1.105  -1.977   3.162  0.00  0.00    +0.152 HD
ENDROOT
BRANCH  18  20
ATOM     20  C   UNL     1      -1.498   3.128   3.343  0.00  0.00    -0.026 A 
ATOM     21  C   UNL     1      -2.844   3.180   3.031  0.00  0.00    +0.007 A 
ATOM     22  C   UNL     1      -3.438   4.392   2.732  0.00  0.00    +0.020 A 
ATOM     23  C   UNL     1      -2.683   5.551   2.734  0.00  0.00    +0.041 A 
ATOM     24  C   UNL     1      -1.335   5.498   3.041  0.00  0.00    +0.020 A 
ATOM     25  C   UNL     1      -0.743   4.287   3.345  0.00  0.00    +0.007 A 
ATOM     26 CL   UNL     1      -3.427   7.072   2.351  0.00  0.00    -0.084 Cl
ENDBRANCH  18  20
BRANCH  13  27
ATOM     27  C   UNL     1      -2.388  -1.318   7.957  0.00  0.00    -0.036 A 
ATOM     28  C   UNL     1      -3.330  -2.255   7.576  0.00  0.00    +0.008 A 
ATOM     29  C   UNL     1      -3.763  -3.211   8.477  0.00  0.00    +0.050 A 
ATOM     30  C   UNL     1      -3.259  -3.224   9.768  0.00  0.00    +0.162 A 
ATOM     31  C   UNL     1      -2.314  -2.278  10.153  0.00  0.00    +0.162 A 
ATOM     32  C   UNL     1      -1.881  -1.326   9.244  0.00  0.00    +0.053 A 
BRANCH  31  33
ATOM     33  O   UNL     1      -1.817  -2.287  11.418  0.00  0.00    -0.491 OA
ATOM     34  C   UNL     1      -0.850  -1.286  11.743  0.00  0.00    +0.277 C 
ENDBRANCH  31  33
BRANCH  30  35
ATOM     35  O   UNL     1      -3.688  -4.160  10.656  0.00  0.00    -0.491 OA
ATOM     36  C   UNL     1      -4.659  -5.100  10.191  0.00  0.00    +0.277 C 
ENDBRANCH  30  35
ENDBRANCH  13  27
BRANCH   1  37
ATOM     37  C   UNL     1       0.007   1.103   0.010  0.00  0.00    +0.096 C 
BRANCH  37  38
ATOM     38  C   UNL     1      -0.731   1.609  -1.232  0.00  0.00    +0.009 C 
BRANCH  38  39
ATOM     39  C   UNL     1      -0.003   1.128  -2.489  0.00  0.00    +0.000 C 
BRANCH  39  41
ATOM     40  C   UNL     1      -0.013   1.154  -4.987  0.00  0.00    +0.004 C 
ATOM     41  C   UNL     1      -0.741   1.634  -3.730  0.00  0.00    -0.003 C 
ENDBRANCH  39  41
ENDBRANCH  38  39
ENDBRANCH  37  38
ENDBRANCH   1  37
TORSDOF 8
