REMARK  Name = ZINC63375312
REMARK  10 active torsions:
REMARK  status: ('A' for Active; 'I' for Inactive)
REMARK    1  A    between atoms: C_1  and  C_2
REMARK    2  A    between atoms: C_2  and  C_3
REMARK    3  A    between atoms: C_12  and  O_15
REMARK    4  A    between atoms: C_13  and  C_14
REMARK    5  A    between atoms: O_15  and  C_16
REMARK    6  A    between atoms: C_16  and  C_18
REMARK    7  A    between atoms: C_16  and  C_19
REMARK    8  A    between atoms: N_21  and  C_22
REMARK    9  A    between atoms: C_22  and  C_23
REMARK   10  A    between atoms: C_23  and  C_24
REMARK                            x       y       z     vdW  Elec       q    Type
REMARK                         _______ _______ _______ _____ _____    ______ ____
ROOT
ATOM      1  C   UNL     1      -3.408  -0.855  -6.078  0.00  0.00    +0.255 C 
ATOM      2  C   UNL     1      -4.125  -2.140  -5.659  0.00  0.00    +0.062 C 
ENDROOT
BRANCH   1   3
ATOM      3  C   UNL     1      -3.866  -0.451  -7.456  0.00  0.00    +0.254 C 
ATOM      4  O   UNL     1      -3.081  -0.452  -8.380  0.00  0.00    -0.272 OA
ATOM      5  N   UNL     1      -5.147  -0.088  -7.660  0.00  0.00    -0.312 N 
ATOM      6  H   UNL     1      -5.775  -0.088  -6.921  0.00  0.00    +0.149 HD
BRANCH   5   7
ATOM      7  C   UNL     1      -5.593   0.305  -8.999  0.00  0.00    +0.108 C 
BRANCH   7   8
ATOM      8  C   UNL     1      -7.079   0.666  -8.957  0.00  0.00    +0.052 C 
BRANCH   8   9
ATOM      9  C   UNL     1      -7.537   1.071 -10.335  0.00  0.00    -0.040 C 
ATOM     10  C   UNL     1      -8.130   0.281 -11.259  0.00  0.00    -0.001 A 
ATOM     11  C   UNL     1      -8.512  -1.136 -11.258  0.00  0.00    +0.010 A 
ATOM     12  C   UNL     1      -9.105  -1.656 -12.357  0.00  0.00    +0.001 A 
ATOM     13  C   UNL     1      -9.363  -0.878 -13.494  0.00  0.00    +0.002 A 
ATOM     14  C   UNL     1      -9.041   0.431 -13.570  0.00  0.00    +0.026 A 
ATOM     15  C   UNL     1      -8.414   1.082 -12.472  0.00  0.00    +0.043 A 
ATOM     16  N   UNL     1      -8.011   2.318 -12.304  0.00  0.00    -0.380 N 
ATOM     17  C   UNL     1      -7.431   2.443 -10.962  0.00  0.00    +0.144 C 
ATOM     18  H   UNL     1      -8.087   3.031 -12.956  0.00  0.00    +0.160 HD
ENDBRANCH   8   9
ENDBRANCH   7   8
ENDBRANCH   5   7
ENDBRANCH   1   3
BRANCH   1  19
ATOM     19  O   UNL     1      -1.997  -1.081  -6.092  0.00  0.00    -0.480 OA
BRANCH  19  29
ATOM     20  C   UNL     1       0.706  -0.503  -1.235  0.00  0.00    -0.030 A 
ATOM     21  C   UNL     1       2.060  -0.607  -1.252  0.00  0.00    +0.096 A 
ATOM     22  C   UNL     1       2.730  -0.847  -2.469  0.00  0.00    +0.337 A 
ATOM     23  O   UNL     1       3.944  -0.939  -2.470  0.00  0.00    -0.245 OA
ATOM     24  O   UNL     1       2.063  -0.979  -3.627  0.00  0.00    -0.422 OA
ATOM     25  C   UNL     1       0.717  -0.886  -3.680  0.00  0.00    +0.146 A 
ATOM     26  C   UNL     1      -0.016  -0.652  -2.501  0.00  0.00    +0.021 A 
ATOM     27  C   UNL     1      -1.411  -0.561  -2.550  0.00  0.00    +0.015 A 
ATOM     28  C   UNL     1      -2.058  -0.704  -3.744  0.00  0.00    +0.047 A 
ATOM     29  C   UNL     1      -1.338  -0.940  -4.913  0.00  0.00    +0.128 A 
ATOM     30  C   UNL     1       0.044  -1.023  -4.884  0.00  0.00    +0.034 A 
ATOM     31  C   UNL     1       0.813  -1.279  -6.155  0.00  0.00    +0.051 C 
BRANCH  20  33
ATOM     32  C   UNL     1      -0.295   1.254   0.201  0.00  0.00    +0.009 C 
ATOM     33  C   UNL     1      -0.035  -0.247   0.052  0.00  0.00    +0.033 C 
ENDBRANCH  20  33
ENDBRANCH  19  29
ENDBRANCH   1  19
TORSDOF 7
