REMARK  Name = ZINC09311979
REMARK  12 active torsions:
REMARK  status: ('A' for Active; 'I' for Inactive)
REMARK    1  A    between atoms: C_1  and  C_2
REMARK    2  A    between atoms: C_2  and  N_65
REMARK    3  A    between atoms: C_3  and  C_4
REMARK    4  A    between atoms: C_3  and  N_65
REMARK    5  A    between atoms: C_5  and  C_6
REMARK    6  A    between atoms: C_5  and  N_65
REMARK    7  A    between atoms: C_6  and  C_7
REMARK    8  A    between atoms: C_7  and  N_8
REMARK    9  A    between atoms: C_9  and  C_29
REMARK   10  A    between atoms: C_12  and  C_13
REMARK   11  A    between atoms: C_12  and  O_24
REMARK   12  A    between atoms: C_20  and  C_23
REMARK                            x       y       z     vdW  Elec       q    Type
REMARK                         _______ _______ _______ _____ _____    ______ ____
ROOT
ATOM      1  N   UNL     1       7.037   1.029   0.072  0.00  0.00    -0.284 N 
ATOM      2  C   UNL     1       6.066  -0.068   0.029  0.00  0.00    +0.144 C 
ATOM      3  C   UNL     1       4.715   0.538   0.333  0.00  0.00    +0.071 C 
ATOM      4  C   UNL     1       3.504  -0.124   0.397  0.00  0.00    +0.133 C 
ATOM      5  C   UNL     1       4.939   1.906   0.543  0.00  0.00    +0.249 C 
ATOM      6  O   UNL     1       4.090   2.735   0.819  0.00  0.00    -0.282 OA
ATOM      7  C   UNL     1       6.393   2.170   0.372  0.00  0.00    +0.288 C 
ATOM      8  O   UNL     1       6.921   3.257   0.486  0.00  0.00    -0.266 OA
ENDROOT
BRANCH   4   9
ATOM      9  C   UNL     1       2.258   0.637   0.579  0.00  0.00    +0.017 A 
ATOM     10  C   UNL     1       1.322   0.240   1.542  0.00  0.00    +0.015 A 
ATOM     11  C   UNL     1       0.158   0.951   1.707  0.00  0.00    +0.046 A 
ATOM     12  C   UNL     1      -0.104   2.073   0.919  0.00  0.00    +0.124 A 
ATOM     13  C   UNL     1       0.833   2.468  -0.032  0.00  0.00    -0.002 A 
ATOM     14  C   UNL     1       1.998   1.765  -0.210  0.00  0.00    +0.019 A 
ATOM     15  C   UNL     1       0.286   3.714  -0.703  0.00  0.00    +0.083 C 
ATOM     16  C   UNL     1      -0.838   4.135   0.273  0.00  0.00    +0.175 C 
ATOM     17  O   UNL     1      -1.188   2.895   0.910  0.00  0.00    -0.488 OA
ATOM     18  C   UNL     1      -2.033   4.707  -0.492  0.00  0.00    +0.052 C 
ENDBRANCH   4   9
BRANCH   2  19
ATOM     19  C   UNL     1       6.055  -0.690  -1.343  0.00  0.00    -0.022 A 
ATOM     20  C   UNL     1       6.170   0.109  -2.465  0.00  0.00    +0.007 A 
ATOM     21  C   UNL     1       6.166  -0.461  -3.724  0.00  0.00    +0.015 A 
ATOM     22  C   UNL     1       6.035  -1.831  -3.862  0.00  0.00    +0.018 A 
ATOM     23  C   UNL     1       5.915  -2.631  -2.739  0.00  0.00    +0.015 A 
ATOM     24  C   UNL     1       5.925  -2.060  -1.480  0.00  0.00    +0.007 A 
ATOM     25 BR   UNL     1       6.021  -2.612  -5.584  0.00  0.00    -0.050 Br
ENDBRANCH   2  19
BRANCH   4  26
ATOM     26  O   UNL     1       3.464  -1.470   0.292  0.00  0.00    -0.506 OA
ATOM     27  H   UNL     1       2.516  -1.781   0.359  0.00  0.00    +0.292 HD
ENDBRANCH   4  26
BRANCH   1  28
ATOM     28  C   UNL     1       8.476   0.901  -0.166  0.00  0.00    +0.107 C 
BRANCH  28  29
ATOM     29  C   UNL     1       9.188   0.606   1.157  0.00  0.00    +0.000 C 
BRANCH  29  30
ATOM     30  C   UNL     1      10.691   0.473   0.908  0.00  0.00    -0.077 C 
BRANCH  30  31
ATOM     31  N   UNL     1      11.361   0.167   2.190  0.00  0.00    +0.379 N 
ATOM     32  H   UNL     1      10.892  -0.634   2.628  0.00  0.00    -0.082 HD
BRANCH  31  34
ATOM     33  C   UNL     1      12.850  -1.612   1.419  0.00  0.00    -0.017 C 
ATOM     34  C   UNL     1      12.778  -0.178   1.949  0.00  0.00    -0.082 C 
ENDBRANCH  31  34
BRANCH  31  35
ATOM     35  C   UNL     1      11.272   1.331   3.096  0.00  0.00    -0.082 C 
ATOM     36  C   UNL     1      11.623   0.878   4.514  0.00  0.00    -0.017 C 
ENDBRANCH  31  35
ENDBRANCH  30  31
ENDBRANCH  29  30
ENDBRANCH  28  29
ENDBRANCH   1  28
TORSDOF 9
