REMARK  Name = ZINC01047226
REMARK  5 active torsions:
REMARK  status: ('A' for Active; 'I' for Inactive)
REMARK    1  A    between atoms: C_1  and  C_2
REMARK    2  A    between atoms: C_4  and  C_16
REMARK    3  A    between atoms: N_6  and  C_7
REMARK    4  A    between atoms: N_18  and  N_19
REMARK    5  A    between atoms: C_20  and  C_21
REMARK                            x       y       z     vdW  Elec       q    Type
REMARK                         _______ _______ _______ _____ _____    ______ ____
ROOT
ATOM      1  C   UNL     1      -2.616   6.166  -0.163  0.00  0.00    +0.066 C 
ATOM      2  C   UNL     1      -1.199   6.665  -0.050  0.00  0.00    +0.043 A 
ATOM      3  C   UNL     1      -0.804   7.959  -0.005  0.00  0.00    +0.058 A 
ATOM      4  C   UNL     1       0.607   7.922   0.102  0.00  0.00    +0.149 A 
ATOM      5  N   UNL     1       0.962   6.652   0.119  0.00  0.00    -0.161 NA
ATOM      6  N   UNL     1      -0.077   5.902   0.026  0.00  0.00    -0.233 N 
ENDROOT
BRANCH   6   7
ATOM      7  C   UNL     1      -0.058   4.500   0.010  0.00  0.00    +0.102 A 
ATOM      8  C   UNL     1       0.628   3.825  -0.992  0.00  0.00    +0.069 A 
ATOM      9  C   UNL     1       0.645   2.443  -1.004  0.00  0.00    +0.042 A 
ATOM     10  C   UNL     1      -0.020   1.732  -0.020  0.00  0.00    +0.044 A 
ATOM     11  C   UNL     1      -0.708   2.402   0.976  0.00  0.00    +0.042 A 
ATOM     12  C   UNL     1      -0.724   3.784   0.997  0.00  0.00    +0.069 A 
ATOM     13 CL   UNL     1      -1.583   4.624   2.250  0.00  0.00    -0.081 Cl
ATOM     14 CL   UNL     1       0.004  -0.004  -0.040  0.00  0.00    -0.083 Cl
ATOM     15 CL   UNL     1       1.462   4.715  -2.227  0.00  0.00    -0.081 Cl
ENDBRANCH   6   7
BRANCH   4  16
ATOM     16  C   UNL     1       1.512   9.086   0.183  0.00  0.00    +0.283 C 
ATOM     17  O   UNL     1       1.055  10.213   0.162  0.00  0.00    -0.267 OA
ATOM     18  N   UNL     1       2.843   8.899   0.282  0.00  0.00    -0.202 N 
ATOM     19  H   UNL     1       3.206   8.000   0.299  0.00  0.00    +0.178 HD
BRANCH  18  20
ATOM     20  N   UNL     1       3.701  10.004   0.359  0.00  0.00    -0.186 NA
ATOM     21  C   UNL     1       4.983   9.824   0.455  0.00  0.00    +0.158 C 
BRANCH  21  22
ATOM     22  C   UNL     1       5.886  10.986   0.536  0.00  0.00    +0.083 A 
ATOM     23  C   UNL     1       7.264  10.787   0.644  0.00  0.00    +0.029 A 
ATOM     24  C   UNL     1       8.098  11.889   0.714  0.00  0.00    +0.004 A 
ATOM     25  C   UNL     1       7.529  13.155   0.685  0.00  0.00    +0.020 A 
ATOM     26  C   UNL     1       6.156  13.280   0.583  0.00  0.00    +0.111 A 
ATOM     27  N   UNL     1       5.382  12.216   0.512  0.00  0.00    -0.254 NA
ENDBRANCH  21  22
ENDBRANCH  18  20
ENDBRANCH   4  16
TORSDOF 4
