REMARK  Name = ZINC04940197
REMARK  5 active torsions:
REMARK  status: ('A' for Active; 'I' for Inactive)
REMARK    1  A    between atoms: C_6  and  C_7
REMARK    2  A    between atoms: N_9  and  C_10
REMARK    3  A    between atoms: C_20  and  S_21
REMARK    4  A    between atoms: S_21  and  C_22
REMARK    5  A    between atoms: C_22  and  C_23
REMARK                            x       y       z     vdW  Elec       q    Type
REMARK                         _______ _______ _______ _____ _____    ______ ____
ROOT
ATOM      1  C   UNL     1       1.164   3.194   0.008  0.00  0.00    +0.014 A 
ATOM      2  C   UNL     1      -0.012   3.878   0.022  0.00  0.00    +0.012 A 
ATOM      3  C   UNL     1      -1.228   3.182   0.031  0.00  0.00    +0.014 A 
ATOM      4  C   UNL     1      -1.235   1.766   0.018  0.00  0.00    +0.073 A 
ATOM      5  C   UNL     1      -0.013   1.076   0.008  0.00  0.00    +0.041 A 
ATOM      6  C   UNL     1       1.175   1.789   0.001  0.00  0.00    +0.039 A 
ATOM      7  N   UNL     1      -2.397   1.109   0.030  0.00  0.00    -0.251 NA
ATOM      8  C   UNL     1      -3.565   1.727   0.043  0.00  0.00    +0.046 A 
ATOM      9  C   UNL     1      -3.639   3.110   0.055  0.00  0.00    -0.012 A 
ATOM     10  C   UNL     1      -2.467   3.862   0.049  0.00  0.00    +0.022 A 
ATOM     11  C   UNL     1      -4.946   3.856   0.080  0.00  0.00    +0.038 C 
ATOM     12  C   UNL     1      -6.095   2.942  -0.340  0.00  0.00    +0.005 C 
ATOM     13  C   UNL     1      -6.019   1.657   0.493  0.00  0.00    +0.006 C 
ATOM     14  C   UNL     1      -4.799   0.859   0.040  0.00  0.00    +0.056 C 
ENDROOT
BRANCH   6  15
ATOM     15  C   UNL     1       2.465   1.066  -0.016  0.00  0.00    +0.244 C 
ATOM     16  O   UNL     1       2.480  -0.149  -0.023  0.00  0.00    -0.270 OA
ATOM     17  N   UNL     1       3.623   1.755  -0.023  0.00  0.00    -0.308 N 
ATOM     18  H   UNL     1       3.611   2.725  -0.018  0.00  0.00    +0.149 HD
BRANCH  17  19
ATOM     19  C   UNL     1       4.901   1.038  -0.040  0.00  0.00    +0.073 C 
ATOM     20  C   UNL     1       5.271   0.644   1.405  0.00  0.00    +0.022 C 
ATOM     21  C   UNL     1       6.259  -0.490   1.352  0.00  0.00    +0.002 C 
ATOM     22  C   UNL     1       7.719  -0.002   1.417  0.00  0.00    +0.000 C 
ATOM     23  C   UNL     1       7.968   1.253   0.559  0.00  0.00    +0.000 C 
ATOM     24  C   UNL     1       7.277   1.184  -0.776  0.00  0.00    +0.002 C 
ATOM     25  C   UNL     1       5.909   1.887  -0.657  0.00  0.00    +0.022 C 
ENDBRANCH  17  19
ENDBRANCH   6  15
BRANCH  10  26
ATOM     26  S   UNL     1      -2.528   5.623   0.065  0.00  0.00    -0.113 S 
BRANCH  26  27
ATOM     27  C   UNL     1      -2.557   5.952  -1.715  0.00  0.00    +0.199 C 
BRANCH  27  28
ATOM     28  C   UNL     1      -2.610   7.440  -1.950  0.00  0.00    +0.366 C 
ATOM     29  O   UNL     1      -2.628   8.200  -1.011  0.00  0.00    -0.245 OA
ATOM     30  O   UNL     1      -2.639   7.921  -3.203  0.00  0.00    -0.245 OA
ENDBRANCH  27  28
ENDBRANCH  26  27
ENDBRANCH  10  26
TORSDOF 5
