REMARK  Name = ZINC07001518
REMARK  8 active torsions:
REMARK  status: ('A' for Active; 'I' for Inactive)
REMARK    1  A    between atoms: C_1  and  C_2
REMARK    2  A    between atoms: C_6  and  N_9
REMARK    3  A    between atoms: C_7  and  C_8
REMARK    4  A    between atoms: C_10  and  C_12
REMARK    5  A    between atoms: C_12  and  N_13
REMARK    6  A    between atoms: N_13  and  C_14
REMARK    7  A    between atoms: N_13  and  C_15
REMARK    8  A    between atoms: C_15  and  C_16
REMARK                            x       y       z     vdW  Elec       q    Type
REMARK                         _______ _______ _______ _____ _____    ______ ____
ROOT
ATOM      1  N   UNL     1      -0.208  -6.339   3.410  0.00  0.00    +0.388 N 
ATOM      2  C   UNL     1       1.047  -6.789   2.791  0.00  0.00    -0.095 C 
ATOM      3  H   UNL     1      -0.976  -6.519   2.781  0.00  0.00    -0.081 HD
ENDROOT
BRANCH   1   4
ATOM      4  C   UNL     1      -0.129  -4.898   3.686  0.00  0.00    +0.019 C 
BRANCH   4   6
ATOM      5  N   UNL     1       0.052  -2.797   2.393  0.00  0.00    -0.287 N 
ATOM      6  C   UNL     1      -0.031  -4.143   2.385  0.00  0.00    +0.201 C 
ATOM      7  O   UNL     1      -0.028  -4.745   1.333  0.00  0.00    -0.278 OA
ATOM      8  H   UNL     1       0.130  -2.321   3.234  0.00  0.00    +0.155 HD
BRANCH   5  14
ATOM      9  C   UNL     1       1.206   1.236  -0.172  0.00  0.00    +0.044 C 
ATOM     10  C   UNL     1       0.577  -0.131  -0.084  0.00  0.00    -0.046 A 
ATOM     11  C   UNL     1      -0.027  -0.686  -1.198  0.00  0.00    +0.004 A 
ATOM     12  C   UNL     1      -0.605  -1.940  -1.122  0.00  0.00    +0.002 A 
ATOM     13  C   UNL     1      -0.580  -2.642   0.067  0.00  0.00    +0.023 A 
ATOM     14  C   UNL     1       0.026  -2.088   1.187  0.00  0.00    +0.036 A 
ATOM     15  C   UNL     1       0.610  -0.831   1.106  0.00  0.00    -0.026 A 
ATOM     16  C   UNL     1       1.274  -0.228   2.317  0.00  0.00    +0.046 C 
ENDBRANCH   5  14
ENDBRANCH   4   6
ENDBRANCH   1   4
BRANCH   1  17
ATOM     17  C   UNL     1      -0.423  -7.067   4.667  0.00  0.00    -0.003 C 
BRANCH  17  18
ATOM     18  C   UNL     1      -0.626  -8.531   4.371  0.00  0.00    +0.094 A 
ATOM     19  N   UNL     1      -0.849  -9.393   5.397  0.00  0.00    -0.312 N 
ATOM     20  H   UNL     1      -0.874  -9.055   6.305  0.00  0.00    +0.170 HD
ATOM     21  C   UNL     1      -1.035 -10.709   5.177  0.00  0.00    +0.260 A 
ATOM     22  O   UNL     1      -1.234 -11.471   6.107  0.00  0.00    -0.267 OA
ATOM     23  C   UNL     1      -0.996 -11.195   3.830  0.00  0.00    +0.075 A 
ATOM     24  C   UNL     1      -1.172 -12.577   3.360  0.00  0.00    -0.023 A 
ATOM     25  C   UNL     1      -1.089 -12.783   2.034  0.00  0.00    -0.004 A 
ATOM     26  S   UNL     1      -0.781 -11.176   1.338  0.00  0.00    -0.073 S 
ATOM     27  C   UNL     1      -0.761 -10.233   2.840  0.00  0.00    +0.116 A 
ATOM     28  N   UNL     1      -0.591  -8.946   3.133  0.00  0.00    -0.229 NA
ATOM     29  C   UNL     1      -1.280 -14.231   1.671  0.00  0.00    +0.043 C 
ATOM     30  C   UNL     1      -1.069 -14.994   2.997  0.00  0.00    +0.010 C 
ATOM     31  C   UNL     1      -1.445 -13.923   4.039  0.00  0.00    +0.037 C 
ENDBRANCH  17  18
ENDBRANCH   1  17
TORSDOF 5
