REMARK  Name = ZINC06915736
REMARK  7 active torsions:
REMARK  status: ('A' for Active; 'I' for Inactive)
REMARK    1  A    between atoms: C_1  and  C_2
REMARK    2  A    between atoms: C_5  and  C_8
REMARK    3  A    between atoms: C_17  and  S_19
REMARK    4  A    between atoms: S_19  and  C_20
REMARK    5  A    between atoms: C_20  and  C_21
REMARK    6  A    between atoms: C_21  and  O_22
REMARK    7  A    between atoms: O_22  and  C_23
REMARK                            x       y       z     vdW  Elec       q    Type
REMARK                         _______ _______ _______ _____ _____    ______ ____
ROOT
ATOM      1  C   UNL     1      -2.695   2.936   4.631  0.00  0.00    +0.165 A 
ATOM      2  N   UNL     1      -2.427   2.753   5.917  0.00  0.00    -0.208 NA
ATOM      3  C   UNL     1      -1.367   2.024   6.284  0.00  0.00    +0.162 A 
ATOM      4  C   UNL     1      -0.843   1.665   7.518  0.00  0.00    +0.119 A 
ATOM      5  C   UNL     1       0.291   0.885   7.288  0.00  0.00    +0.267 A 
ATOM      6  O   UNL     1       1.006   0.394   8.146  0.00  0.00    -0.266 OA
ATOM      7  N   UNL     1       0.463   0.765   5.957  0.00  0.00    -0.256 N 
ATOM      8  H   UNL     1       1.176   0.274   5.519  0.00  0.00    +0.191 HD
ATOM      9  N   UNL     1      -0.560   1.468   5.313  0.00  0.00    -0.210 N 
ATOM     10  C   UNL     1      -0.864   1.675   3.998  0.00  0.00    +0.192 A 
ATOM     11  N   UNL     1      -1.920   2.407   3.682  0.00  0.00    -0.202 NA
ENDROOT
BRANCH   1  16
ATOM     12  C   UNL     1      -7.274   6.081   3.119  0.00  0.00    +0.044 C 
ATOM     13  C   UNL     1      -6.075   5.258   3.515  0.00  0.00    -0.050 A 
ATOM     14  C   UNL     1      -5.268   4.703   2.538  0.00  0.00    +0.004 A 
ATOM     15  C   UNL     1      -4.169   3.948   2.894  0.00  0.00    +0.012 A 
ATOM     16  C   UNL     1      -3.873   3.746   4.242  0.00  0.00    +0.019 A 
ATOM     17  C   UNL     1      -4.694   4.304   5.223  0.00  0.00    +0.012 A 
ATOM     18  C   UNL     1      -5.787   5.061   4.854  0.00  0.00    +0.004 A 
ENDBRANCH   1  16
BRANCH  10  19
ATOM     19  S   UNL     1       0.147   0.980   2.733  0.00  0.00    -0.083 S 
BRANCH  19  20
ATOM     20  C   UNL     1      -0.729   1.579   1.267  0.00  0.00    +0.118 C 
BRANCH  20  21
ATOM     21  C   UNL     1      -0.013   1.086   0.008  0.00  0.00    +0.240 C 
BRANCH  21  22
ATOM     22  O   UNL     1      -0.704   1.559  -1.150  0.00  0.00    -0.491 OA
BRANCH  22  23
ATOM     23  C   UNL     1      -0.194   1.208  -2.360  0.00  0.00    +0.121 A 
ATOM     24  C   UNL     1       0.951   0.428  -2.430  0.00  0.00    +0.047 A 
ATOM     25  C   UNL     1       1.465   0.067  -3.661  0.00  0.00    +0.023 A 
ATOM     26  C   UNL     1       0.845   0.492  -4.822  0.00  0.00    +0.041 A 
ATOM     27  C   UNL     1      -0.295   1.274  -4.754  0.00  0.00    +0.023 A 
ATOM     28  C   UNL     1      -0.815   1.633  -3.525  0.00  0.00    +0.047 A 
ATOM     29 CL   UNL     1       1.496   0.043  -6.368  0.00  0.00    -0.084 Cl
ENDBRANCH  22  23
ENDBRANCH  21  22
ENDBRANCH  20  21
ENDBRANCH  19  20
ENDBRANCH  10  19
TORSDOF 6
