REMARK  Name = ZINC36492591
REMARK  15 active torsions:
REMARK  status: ('A' for Active; 'I' for Inactive)
REMARK    1  A    between atoms: C_1  and  C_2
REMARK    2  A    between atoms: C_2  and  C_3
REMARK    3  A    between atoms: C_2  and  C_4
REMARK    4  A    between atoms: C_2  and  C_5
REMARK    5  A    between atoms: C_5  and  C_6
REMARK    6  A    between atoms: C_6  and  C_7
REMARK    7  A    between atoms: C_6  and  C_8
REMARK    8  A    between atoms: C_6  and  N_9
REMARK    9  A    between atoms: C_10  and  C_12
REMARK   10  A    between atoms: C_12  and  C_14
REMARK   11  A    between atoms: C_12  and  N_21
REMARK   12  A    between atoms: C_17  and  O_20
REMARK   13  A    between atoms: N_21  and  C_22
REMARK   14  A    between atoms: C_28  and  C_30
REMARK   15  A    between atoms: C_33  and  N_36
REMARK                            x       y       z     vdW  Elec       q    Type
REMARK                         _______ _______ _______ _____ _____    ______ ____
ROOT
ATOM      1  C   UNL     1       5.235  -0.245  -4.405  0.00  0.00    +0.193 C 
ENDROOT
BRANCH   1   2
ATOM      2  C   UNL     1       4.946  -1.699  -4.674  0.00  0.00    -0.018 A 
ATOM      3  C   UNL     1       4.254  -2.450  -3.741  0.00  0.00    +0.009 A 
ATOM      4  C   UNL     1       3.988  -3.783  -3.986  0.00  0.00    +0.046 A 
ATOM      5  C   UNL     1       4.415  -4.369  -5.169  0.00  0.00    +0.117 A 
ATOM      6  C   UNL     1       5.108  -3.613  -6.104  0.00  0.00    +0.046 A 
ATOM      7  C   UNL     1       5.367  -2.279  -5.857  0.00  0.00    +0.009 A 
BRANCH   5   8
ATOM      8  O   UNL     1       4.155  -5.680  -5.411  0.00  0.00    -0.507 OA
ATOM      9  H   UNL     1       3.317  -5.837  -5.867  0.00  0.00    +0.292 HD
ENDBRANCH   5   8
ENDBRANCH   1   2
BRANCH   1  11
ATOM     10  N   UNL     1       3.498  -0.089  -2.651  0.00  0.00    -0.308 N 
ATOM     11  C   UNL     1       4.781   0.108  -3.012  0.00  0.00    +0.239 C 
ATOM     12  O   UNL     1       5.572   0.569  -2.215  0.00  0.00    -0.273 OA
ATOM     13  H   UNL     1       2.866  -0.457  -3.288  0.00  0.00    +0.149 HD
BRANCH  10  14
ATOM     14  C   UNL     1       3.057   0.254  -1.296  0.00  0.00    +0.030 C 
ATOM     15  C   UNL     1       3.647   1.608  -0.895  0.00  0.00    +0.031 C 
ATOM     16  C   UNL     1       3.534  -0.821  -0.317  0.00  0.00    +0.031 C 
BRANCH  14  17
ATOM     17  C   UNL     1       1.530   0.333  -1.262  0.00  0.00    +0.031 C 
BRANCH  17  19
ATOM     18  C   UNL     1       0.971   0.146  -3.690  0.00  0.00    +0.010 C 
ATOM     19  C   UNL     1       1.030   1.095  -2.491  0.00  0.00    -0.036 C 
ATOM     20  C   UNL     1       1.988   2.248  -2.800  0.00  0.00    +0.010 C 
ATOM     21  C   UNL     1      -0.367   1.653  -2.212  0.00  0.00    +0.010 C 
ENDBRANCH  17  19
ENDBRANCH  14  17
ENDBRANCH  10  14
ENDBRANCH   1  11
BRANCH   1  22
ATOM     22  N   UNL     1       6.675  -0.002  -4.526  0.00  0.00    -0.279 N 
ATOM     23  C   UNL     1       7.133   0.909  -5.407  0.00  0.00    +0.248 C 
ATOM     24  O   UNL     1       6.372   1.418  -6.206  0.00  0.00    -0.270 OA
BRANCH  22  25
ATOM     25  C   UNL     1       7.616  -0.751  -3.690  0.00  0.00    +0.077 C 
ATOM     26  C   UNL     1       6.913  -1.976  -3.101  0.00  0.00    +0.022 C 
ATOM     27  C   UNL     1       7.896  -2.758  -2.228  0.00  0.00    +0.002 C 
ATOM     28  C   UNL     1       8.394  -1.861  -1.092  0.00  0.00    +0.000 C 
ATOM     29  C   UNL     1       9.097  -0.636  -1.681  0.00  0.00    +0.002 C 
ATOM     30  C   UNL     1       8.114   0.146  -2.554  0.00  0.00    +0.022 C 
ENDBRANCH  22  25
BRANCH  23  31
ATOM     31  C   UNL     1       8.562   1.289  -5.401  0.00  0.00    +0.037 A 
ATOM     32  C   UNL     1       9.451   0.658  -4.530  0.00  0.00    +0.015 A 
ATOM     33  C   UNL     1      10.783   1.017  -4.530  0.00  0.00    +0.033 A 
ATOM     34  C   UNL     1      11.238   2.001  -5.391  0.00  0.00    +0.126 A 
ATOM     35  C   UNL     1      10.361   2.631  -6.256  0.00  0.00    +0.033 A 
ATOM     36  C   UNL     1       9.028   2.277  -6.270  0.00  0.00    +0.015 A 
BRANCH  34  37
ATOM     37  N   UNL     1      12.668   2.381  -5.385  0.00  0.00    +0.056 N 
ATOM     38  O   UNL     1      13.437   1.833  -4.630  0.00  0.00    -0.126 OA
ATOM     39  O   UNL     1      13.068   3.241  -6.135  0.00  0.00    -0.126 OA
ENDBRANCH  34  37
ENDBRANCH  23  31
ENDBRANCH   1  22
TORSDOF 10
