REMARK  Name = ZINC36698885
REMARK  16 active torsions:
REMARK  status: ('A' for Active; 'I' for Inactive)
REMARK    1  A    between atoms: C_1  and  C_2
REMARK    2  A    between atoms: C_2  and  N_3
REMARK    3  A    between atoms: N_3  and  C_4
REMARK    4  A    between atoms: N_3  and  C_6
REMARK    5  A    between atoms: C_4  and  C_5
REMARK    6  A    between atoms: C_6  and  C_7
REMARK    7  A    between atoms: C_7  and  N_8
REMARK    8  A    between atoms: C_13  and  C_19
REMARK    9  A    between atoms: C_14  and  C_18
REMARK   10  A    between atoms: C_20  and  C_22
REMARK   11  A    between atoms: C_25  and  S_28
REMARK   12  A    between atoms: S_28  and  N_31
REMARK   13  A    between atoms: N_31  and  C_32
REMARK   14  A    between atoms: N_31  and  C_34
REMARK   15  A    between atoms: C_32  and  C_33
REMARK   16  A    between atoms: C_34  and  C_35
REMARK                            x       y       z     vdW  Elec       q    Type
REMARK                         _______ _______ _______ _____ _____    ______ ____
ROOT
ATOM      1  N   UNL     1       0.982  -3.365   0.324  0.00  0.00    -0.248 N 
ATOM      2  C   UNL     1       1.934  -3.305  -0.679  0.00  0.00    +0.168 A 
ATOM      3  N   UNL     1       1.791  -2.925  -1.928  0.00  0.00    -0.224 NA
ATOM      4  C   UNL     1       2.817  -2.917  -2.806  0.00  0.00    +0.081 A 
ATOM      5  C   UNL     1       2.798  -2.535  -4.168  0.00  0.00    +0.032 A 
ATOM      6  C   UNL     1       3.938  -2.588  -4.926  0.00  0.00    -0.045 A 
ATOM      7  C   UNL     1       5.145  -3.015  -4.391  0.00  0.00    -0.046 A 
ATOM      8  C   UNL     1       5.200  -3.397  -3.063  0.00  0.00    +0.021 A 
ATOM      9  C   UNL     1       4.063  -3.347  -2.296  0.00  0.00    +0.041 A 
ATOM     10  S   UNL     1       3.671  -3.719  -0.604  0.00  0.00    -0.052 S 
ATOM     11  C   UNL     1       6.383  -3.063  -5.249  0.00  0.00    +0.044 C 
ATOM     12  C   UNL     1       3.880  -2.172  -6.373  0.00  0.00    +0.044 C 
ATOM     13  C   UNL     1       1.329  -3.781   1.558  0.00  0.00    +0.252 C 
ATOM     14  O   UNL     1       2.499  -3.971   1.829  0.00  0.00    -0.270 OA
ENDROOT
BRANCH  13  15
ATOM     15  C   UNL     1       0.288  -4.008   2.582  0.00  0.00    +0.037 A 
ATOM     16  C   UNL     1      -0.653  -3.014   2.856  0.00  0.00    +0.015 A 
ATOM     17  C   UNL     1      -1.623  -3.232   3.813  0.00  0.00    +0.029 A 
ATOM     18  C   UNL     1      -1.663  -4.432   4.501  0.00  0.00    +0.106 A 
ATOM     19  C   UNL     1      -0.733  -5.421   4.234  0.00  0.00    +0.029 A 
ATOM     20  C   UNL     1       0.238  -5.219   3.275  0.00  0.00    +0.015 A 
BRANCH  18  21
ATOM     21  S   UNL     1      -2.904  -4.702   5.723  0.00  0.00    +0.061 S 
ATOM     22  O   UNL     1      -2.395  -5.690   6.608  0.00  0.00    -0.153 OA
ATOM     23  O   UNL     1      -3.318  -3.418   6.171  0.00  0.00    -0.153 OA
BRANCH  21  24
ATOM     24  N   UNL     1      -4.207  -5.378   4.956  0.00  0.00    -0.177 NA
BRANCH  24  25
ATOM     25  C   UNL     1      -4.312  -6.835   4.840  0.00  0.00    +0.106 C 
ATOM     26  C   UNL     1      -5.168  -7.378   5.987  0.00  0.00    +0.022 C 
ENDBRANCH  24  25
BRANCH  24  27
ATOM     27  C   UNL     1      -5.253  -4.521   4.395  0.00  0.00    +0.106 C 
ATOM     28  C   UNL     1      -4.970  -4.276   2.911  0.00  0.00    +0.022 C 
ENDBRANCH  24  27
ENDBRANCH  21  24
ENDBRANCH  18  21
ENDBRANCH  13  15
BRANCH   1  29
ATOM     29  C   UNL     1      -0.402  -2.975   0.045  0.00  0.00    +0.097 C 
BRANCH  29  30
ATOM     30  C   UNL     1      -0.513  -1.449   0.048  0.00  0.00    -0.059 C 
BRANCH  30  31
ATOM     31  N   UNL     1      -1.890  -1.057  -0.281  0.00  0.00    +0.380 N 
ATOM     32  H   UNL     1      -2.153  -1.464  -1.166  0.00  0.00    -0.082 HD
BRANCH  31  34
ATOM     33  C   UNL     1      -4.247  -1.275   0.348  0.00  0.00    -0.017 C 
ATOM     34  C   UNL     1      -2.799  -1.537   0.768  0.00  0.00    -0.082 C 
ENDBRANCH  31  34
BRANCH  31  35
ATOM     35  C   UNL     1      -1.974   0.406  -0.371  0.00  0.00    -0.082 C 
ATOM     36  C   UNL     1      -1.055   0.903  -1.489  0.00  0.00    -0.017 C 
ENDBRANCH  31  35
ENDBRANCH  30  31
ENDBRANCH  29  30
ENDBRANCH   1  29
TORSDOF 10
