REMARK  Name = ZINC13503198
REMARK  10 active torsions:
REMARK  status: ('A' for Active; 'I' for Inactive)
REMARK    1  A    between atoms: C_6  and  C_7
REMARK    2  A    between atoms: C_7  and  N_8
REMARK    3  A    between atoms: C_9  and  C_11
REMARK    4  A    between atoms: C_11  and  N_12
REMARK    5  A    between atoms: N_12  and  C_13
REMARK    6  A    between atoms: C_13  and  C_14
REMARK    7  A    between atoms: C_20  and  C_22
REMARK    8  A    between atoms: C_22  and  N_23
REMARK    9  A    between atoms: N_23  and  S_24
REMARK   10  A    between atoms: S_24  and  C_27
REMARK                            x       y       z     vdW  Elec       q    Type
REMARK                         _______ _______ _______ _____ _____    ______ ____
ROOT
ATOM      1  N   UNL     1      -4.571  -2.692  -3.017  0.00  0.00    -0.289 N 
ATOM      2  C   UNL     1      -4.553  -4.039  -3.025  0.00  0.00    +0.232 C 
ATOM      3  O   UNL     1      -3.495  -4.632  -3.038  0.00  0.00    -0.274 OA
ENDROOT
BRANCH   1   4
ATOM      4  C   UNL     1      -3.312  -1.942  -3.025  0.00  0.00    +0.203 C 
BRANCH   4   6
ATOM      5  N   UNL     1      -1.726  -1.017  -1.368  0.00  0.00    -0.310 N 
ATOM      6  C   UNL     1      -2.867  -1.693  -1.607  0.00  0.00    +0.231 C 
ATOM      7  O   UNL     1      -3.535  -2.101  -0.681  0.00  0.00    -0.274 OA
ATOM      8  H   UNL     1      -1.191  -0.691  -2.109  0.00  0.00    +0.149 HD
BRANCH   5   9
ATOM      9  C   UNL     1      -1.293  -0.775   0.010  0.00  0.00    +0.139 C 
BRANCH   9  15
ATOM     10  C   UNL     1      -0.017   1.378   0.010  0.00  0.00    +0.008 A 
ATOM     11  C   UNL     1       1.170   2.086   0.002  0.00  0.00    +0.038 A 
ATOM     12  C   UNL     1       2.379   1.410  -0.013  0.00  0.00    +0.123 A 
ATOM     13  C   UNL     1       2.396   0.026  -0.021  0.00  0.00    +0.038 A 
ATOM     14  C   UNL     1       1.208  -0.680  -0.013  0.00  0.00    +0.008 A 
ATOM     15  C   UNL     1       0.002  -0.004   0.002  0.00  0.00    -0.030 A 
ATOM     16  F   UNL     1       3.540   2.101  -0.021  0.00  0.00    -0.205 F 
ENDBRANCH   9  15
ENDBRANCH   5   9
ENDBRANCH   4   6
ENDBRANCH   1   4
BRANCH   1  17
ATOM     17  C   UNL     1      -5.849  -1.976  -3.001  0.00  0.00    +0.140 C 
BRANCH  17  18
ATOM     18  C   UNL     1      -6.308  -1.719  -4.438  0.00  0.00    +0.136 C 
ATOM     19  C   UNL     1      -7.591  -0.861  -4.432  0.00  0.00    +0.035 C 
ATOM     20  C   UNL     1      -8.420  -1.499  -5.580  0.00  0.00    +0.031 C 
ATOM     21  C   UNL     1      -8.009  -2.987  -5.447  0.00  0.00    +0.160 C 
ATOM     22  O   UNL     1      -6.619  -2.962  -5.078  0.00  0.00    -0.375 OA
ENDBRANCH  17  18
ENDBRANCH   1  17
BRANCH   2  23
ATOM     23  C   UNL     1      -5.848  -4.810  -3.016  0.00  0.00    +0.201 C 
BRANCH  23  24
ATOM     24  N   UNL     1      -5.562  -6.247  -3.027  0.00  0.00    -0.181 NA
ATOM     25  H   UNL     1      -4.673  -6.562  -3.254  0.00  0.00    +0.149 HD
BRANCH  24  26
ATOM     26  S   UNL     1      -6.755  -7.332  -2.650  0.00  0.00    +0.059 S 
ATOM     27  O   UNL     1      -6.181  -8.626  -2.774  0.00  0.00    -0.153 OA
ATOM     28  O   UNL     1      -7.353  -6.875  -1.444  0.00  0.00    -0.153 OA
BRANCH  26  29
ATOM     29  C   UNL     1      -7.988  -7.206  -3.902  0.00  0.00    +0.105 A 
ATOM     30  C   UNL     1      -9.032  -6.311  -3.757  0.00  0.00    +0.030 A 
ATOM     31  C   UNL     1      -9.999  -6.212  -4.739  0.00  0.00    +0.022 A 
ATOM     32  C   UNL     1      -9.923  -7.008  -5.867  0.00  0.00    +0.041 A 
ATOM     33  C   UNL     1      -8.878  -7.904  -6.013  0.00  0.00    +0.022 A 
ATOM     34  C   UNL     1      -7.908  -7.998  -5.032  0.00  0.00    +0.030 A 
ATOM     35 CL   UNL     1     -11.138  -6.885  -7.101  0.00  0.00    -0.084 Cl
ENDBRANCH  26  29
ENDBRANCH  24  26
ENDBRANCH  23  24
ENDBRANCH   2  23
TORSDOF 10
