REMARK  Name = ZINC16953245
REMARK  4 active torsions:
REMARK  status: ('A' for Active; 'I' for Inactive)
REMARK    1  A    between atoms: C_1  and  C_2
REMARK    2  A    between atoms: C_4  and  C_21
REMARK    3  A    between atoms: N_6  and  N_19
REMARK    4  A    between atoms: C_7  and  C_13
REMARK                            x       y       z     vdW  Elec       q    Type
REMARK                         _______ _______ _______ _____ _____    ______ ____
ROOT
ATOM      1  C   UNL     1       4.993   4.642   1.540  0.00  0.00    +0.030 C 
ATOM      2  C   UNL     1       4.597   5.663   0.472  0.00  0.00    +0.096 C 
ATOM      3  C   UNL     1       3.239   6.270   0.774  0.00  0.00    +0.146 C 
ATOM      4  N   UNL     1       2.202   5.266   0.954  0.00  0.00    -0.203 N 
ATOM      5  C   UNL     1       2.173   4.004   0.204  0.00  0.00    +0.135 C 
ATOM      6  C   UNL     1       2.357   4.285  -1.288  0.00  0.00    +0.124 C 
ATOM      7  C   UNL     1       3.795   4.541  -1.612  0.00  0.00    +0.215 C 
ATOM      8  O   UNL     1       4.158   4.192  -2.721  0.00  0.00    -0.276 OA
ATOM      9  N   UNL     1       4.719   5.097  -0.852  0.00  0.00    -0.311 N 
ATOM     10  H   UNL     1       5.619   5.134  -1.251  0.00  0.00    +0.149 HD
ENDROOT
BRANCH   5  11
ATOM     11  C   UNL     1       0.835   3.330   0.418  0.00  0.00    -0.025 A 
ATOM     12  C   UNL     1       0.783   1.990   0.754  0.00  0.00    +0.005 A 
ATOM     13  C   UNL     1      -0.439   1.374   0.951  0.00  0.00    +0.000 A 
ATOM     14  C   UNL     1      -1.609   2.096   0.805  0.00  0.00    +0.000 A 
ATOM     15  C   UNL     1      -1.556   3.437   0.473  0.00  0.00    +0.000 A 
ATOM     16  C   UNL     1      -0.334   4.053   0.277  0.00  0.00    +0.005 A 
ENDBRANCH   5  11
BRANCH   3  17
ATOM     17  C   UNL     1       2.850   7.282  -0.273  0.00  0.00    -0.024 A 
ATOM     18  C   UNL     1       3.828   7.989  -0.947  0.00  0.00    +0.005 A 
ATOM     19  C   UNL     1       3.471   8.913  -1.911  0.00  0.00    +0.000 A 
ATOM     20  C   UNL     1       2.137   9.138  -2.194  0.00  0.00    +0.000 A 
ATOM     21  C   UNL     1       1.159   8.434  -1.516  0.00  0.00    +0.000 A 
ATOM     22  C   UNL     1       1.516   7.506  -0.555  0.00  0.00    +0.005 A 
ENDBRANCH   3  17
BRANCH   4  23
ATOM     23  N   UNL     1       1.251   5.495   1.819  0.00  0.00    +0.046 NA
ATOM     24  O   UNL     1       1.219   6.552   2.423  0.00  0.00    -0.126 OA
ENDBRANCH   4  23
TORSDOF 3
