REMARK  Name = ZINC35481595
REMARK  9 active torsions:
REMARK  status: ('A' for Active; 'I' for Inactive)
REMARK    1  A    between atoms: C_1  and  C_2
REMARK    2  A    between atoms: C_5  and  C_9
REMARK    3  A    between atoms: C_7  and  C_8
REMARK    4  A    between atoms: C_9  and  C_11
REMARK    5  A    between atoms: C_11  and  C_13
REMARK    6  A    between atoms: C_11  and  N_14
REMARK    7  A    between atoms: C_20  and  C_30
REMARK    8  A    between atoms: N_26  and  C_29
REMARK    9  A    between atoms: N_32  and  C_33
REMARK                            x       y       z     vdW  Elec       q    Type
REMARK                         _______ _______ _______ _____ _____    ______ ____
ROOT
ATOM      1  N   UNL     1       0.440  -6.388  -1.096  0.00  0.00    -0.200 N 
ATOM      2  C   UNL     1       1.506  -7.025  -1.620  0.00  0.00    +0.353 A 
ATOM      3  O   UNL     1       2.331  -6.545  -2.377  0.00  0.00    -0.244 OA
ATOM      4  N   UNL     1       1.492  -8.292  -1.155  0.00  0.00    -0.229 N 
ATOM      5  C   UNL     1       2.359  -9.361  -1.383  0.00  0.00    +0.067 A 
ATOM      6  C   UNL     1       3.460  -9.218  -2.213  0.00  0.00    +0.040 A 
ATOM      7  C   UNL     1       4.311 -10.300  -2.425  0.00  0.00    +0.039 A 
ATOM      8  C   UNL     1       4.058 -11.527  -1.804  0.00  0.00    +0.014 A 
ATOM      9  C   UNL     1       2.964 -11.674  -0.980  0.00  0.00    +0.016 A 
ATOM     10  C   UNL     1       2.109 -10.594  -0.763  0.00  0.00    +0.064 A 
ATOM     11  C   UNL     1       0.929 -10.721   0.116  0.00  0.00    +0.263 A 
ATOM     12  O   UNL     1       0.683 -11.775   0.670  0.00  0.00    -0.267 OA
ATOM     13  N   UNL     1       0.130  -9.651   0.296  0.00  0.00    -0.280 N 
ATOM     14  C   UNL     1       0.401  -8.441  -0.330  0.00  0.00    +0.240 A 
ATOM     15  N   UNL     1      -0.237  -7.303  -0.281  0.00  0.00    -0.129 NA
ATOM     16  C   UNL     1      -1.043  -9.765   1.166  0.00  0.00    +0.155 C 
ENDROOT
BRANCH   7  17
ATOM     17  C   UNL     1       5.488 -10.151  -3.310  0.00  0.00    +0.244 C 
ATOM     18  O   UNL     1       5.710  -9.085  -3.851  0.00  0.00    -0.270 OA
ATOM     19  N   UNL     1       6.313 -11.196  -3.517  0.00  0.00    -0.308 N 
ATOM     20  H   UNL     1       6.136 -12.047  -3.085  0.00  0.00    +0.149 HD
BRANCH  19  21
ATOM     21  C   UNL     1       7.478 -11.048  -4.393  0.00  0.00    +0.073 C 
ATOM     22  C   UNL     1       7.082 -11.351  -5.853  0.00  0.00    +0.022 C 
ATOM     23  C   UNL     1       8.316 -12.085  -6.436  0.00  0.00    +0.002 C 
ATOM     24  C   UNL     1       8.784 -12.962  -5.249  0.00  0.00    +0.002 C 
ATOM     25  C   UNL     1       8.560 -12.073  -4.009  0.00  0.00    +0.022 C 
ENDBRANCH  19  21
ENDBRANCH   7  17
BRANCH   1  26
ATOM     26  C   UNL     1       0.063  -4.992  -1.331  0.00  0.00    +0.180 C 
ATOM     27  C   UNL     1      -1.335  -4.938  -1.952  0.00  0.00    +0.041 C 
BRANCH  26  28
ATOM     28  C   UNL     1       0.059  -4.245  -0.021  0.00  0.00    +0.187 C 
ATOM     29  O   UNL     1       0.072  -4.857   1.025  0.00  0.00    -0.290 OA
BRANCH  28  34
ATOM     30  C   UNL     1      -0.018   1.503   0.010  0.00  0.00    +0.044 C 
ATOM     31  C   UNL     1       0.002  -0.004   0.002  0.00  0.00    -0.047 A 
ATOM     32  C   UNL     1       0.006  -0.686  -1.203  0.00  0.00    +0.004 A 
ATOM     33  C   UNL     1       0.024  -2.064  -1.219  0.00  0.00    +0.012 A 
ATOM     34  C   UNL     1       0.040  -2.774  -0.013  0.00  0.00    +0.020 A 
ATOM     35  C   UNL     1       0.036  -2.078   1.200  0.00  0.00    +0.015 A 
ATOM     36  C   UNL     1       0.023  -0.699   1.199  0.00  0.00    -0.047 A 
ATOM     37  C   UNL     1       0.025   0.054   2.504  0.00  0.00    +0.044 C 
ENDBRANCH  28  34
ENDBRANCH  26  28
ENDBRANCH   1  26
TORSDOF 5
