REMARK  Name = ZINC08733716
REMARK  4 active torsions:
REMARK  status: ('A' for Active; 'I' for Inactive)
REMARK    1  A    between atoms: C_3  and  N_14
REMARK    2  A    between atoms: C_6  and  C_7
REMARK    3  A    between atoms: N_17  and  C_20
REMARK    4  A    between atoms: C_23  and  C_25
REMARK                            x       y       z     vdW  Elec       q    Type
REMARK                         _______ _______ _______ _____ _____    ______ ____
ROOT
ATOM      1  N   UNL     1       0.394  -4.635  -1.034  0.00  0.00    -0.327 N 
ATOM      2  C   UNL     1      -0.245  -4.102   0.177  0.00  0.00    +0.124 C 
ATOM      3  C   UNL     1      -0.265  -2.573   0.110  0.00  0.00    +0.125 C 
ATOM      4  N   UNL     1       1.111  -2.073  -0.020  0.00  0.00    -0.313 N 
ATOM      5  C   UNL     1       1.749  -2.606  -1.232  0.00  0.00    +0.125 C 
ATOM      6  C   UNL     1       1.769  -4.135  -1.164  0.00  0.00    +0.124 C 
ENDROOT
BRANCH   4   7
ATOM      7  C   UNL     1       1.138  -0.683  -0.013  0.00  0.00    +0.118 A 
ATOM      8  C   UNL     1       1.792  -0.011   1.017  0.00  0.00    +0.079 A 
ATOM      9  C   UNL     1       1.812   1.372   1.012  0.00  0.00    +0.037 A 
ATOM     10  C   UNL     1       1.176   2.040  -0.027  0.00  0.00    +0.072 A 
ATOM     11  C   UNL     1       0.547   1.310  -1.015  0.00  0.00    +0.096 A 
ATOM     12 CL   UNL     1       2.571  -0.898   2.291  0.00  0.00    -0.080 Cl
ATOM     13  N   UNL     1       0.507  -0.049  -1.042  0.00  0.00    -0.348 N 
ATOM     14  H   UNL     1       0.031  -0.566  -1.791  0.00  0.00    +0.167 HD
BRANCH  10  15
ATOM     15  C   UNL     1       1.172   3.546  -0.074  0.00  0.00    +0.419 C 
ATOM     16  F   UNL     1       0.473   3.975  -1.207  0.00  0.00    -0.166 F 
ATOM     17  F   UNL     1       0.551   4.047   1.075  0.00  0.00    -0.166 F 
ATOM     18  F   UNL     1       2.489   4.014  -0.134  0.00  0.00    -0.166 F 
ENDBRANCH  10  15
ENDBRANCH   4   7
BRANCH   1  21
ATOM     19  C   UNL     1       0.896  -8.106  -2.117  0.00  0.00    +0.012 A 
ATOM     20  C   UNL     1       0.922  -6.728  -2.108  0.00  0.00    +0.024 A 
ATOM     21  C   UNL     1       0.366  -6.029  -1.042  0.00  0.00    +0.030 A 
ATOM     22  C   UNL     1      -0.214  -6.717   0.018  0.00  0.00    +0.024 A 
ATOM     23  C   UNL     1      -0.247  -8.095   0.010  0.00  0.00    +0.012 A 
ATOM     24  C   UNL     1       0.311  -8.799  -1.057  0.00  0.00    +0.001 A 
BRANCH  24  25
ATOM     25  C   UNL     1       0.282 -10.280  -1.065  0.00  0.00    +0.076 A 
ATOM     26  C   UNL     1      -0.297 -10.984  -0.004  0.00  0.00    +0.048 A 
ATOM     27  C   UNL     1      -0.305 -12.366  -0.058  0.00  0.00    +0.116 A 
ATOM     28  N   UNL     1       0.240 -12.977  -1.099  0.00  0.00    -0.223 NA
ATOM     29  C   UNL     1       0.787 -12.285  -2.087  0.00  0.00    +0.213 A 
ATOM     30  N   UNL     1       0.812 -10.961  -2.079  0.00  0.00    -0.215 NA
ATOM     31  N   UNL     1       1.347 -12.963  -3.156  0.00  0.00    -0.327 N 
ATOM     32  H   UNL     1       1.751 -12.468  -3.886  0.00  0.00    +0.145 HD
ATOM     33  H   UNL     1       1.336 -13.932  -3.175  0.00  0.00    +0.145 HD
ENDBRANCH  24  25
ENDBRANCH   1  21
TORSDOF 4
