REMARK  Name = ZINC35862415
REMARK  14 active torsions:
REMARK  status: ('A' for Active; 'I' for Inactive)
REMARK    1  A    between atoms: C_1  and  C_2
REMARK    2  A    between atoms: C_5  and  C_8
REMARK    3  A    between atoms: C_12  and  O_24
REMARK    4  A    between atoms: C_19  and  C_21
REMARK    5  A    between atoms: C_21  and  C_22
REMARK    6  A    between atoms: C_21  and  C_23
REMARK    7  A    between atoms: O_24  and  C_25
REMARK    8  A    between atoms: C_25  and  C_26
REMARK    9  A    between atoms: C_29  and  C_31
REMARK   10  A    between atoms: N_33  and  C_34
REMARK   11  A    between atoms: C_34  and  C_35
REMARK   12  A    between atoms: C_35  and  N_36
REMARK   13  A    between atoms: N_36  and  C_37
REMARK   14  A    between atoms: N_36  and  C_38
REMARK                            x       y       z     vdW  Elec       q    Type
REMARK                         _______ _______ _______ _____ _____    ______ ____
ROOT
ATOM      1  C   UNL     1      -0.087  -4.014  -0.020  0.00  0.00    +0.137 C 
ATOM      2  C   UNL     1       1.389  -4.216   0.215  0.00  0.00    -0.016 A 
ATOM      3  C   UNL     1       2.248  -4.005  -0.855  0.00  0.00    +0.051 A 
ATOM      4  C   UNL     1       3.614  -4.165  -0.699  0.00  0.00    +0.121 A 
ATOM      5  C   UNL     1       4.125  -4.535   0.537  0.00  0.00    +0.046 A 
ATOM      6  C   UNL     1       3.269  -4.747   1.595  0.00  0.00    +0.007 A 
ATOM      7  C   UNL     1       1.896  -4.593   1.438  0.00  0.00    -0.040 A 
ATOM      8  C   UNL     1       1.022  -4.869   2.634  0.00  0.00    +0.054 C 
ATOM      9  C   UNL     1      -0.348  -4.215   2.469  0.00  0.00    +0.113 C 
ATOM     10  N   UNL     1      -0.844  -4.538   1.122  0.00  0.00    -0.290 N 
ATOM     11  C   UNL     1      -1.951  -5.287   0.945  0.00  0.00    +0.219 C 
ATOM     12  O   UNL     1      -2.281  -5.626  -0.172  0.00  0.00    -0.275 OA
ENDROOT
BRANCH   1  17
ATOM     13  C   UNL     1      -1.183   1.627  -0.629  0.00  0.00    +0.044 C 
ATOM     14  C   UNL     1      -0.897   0.156  -0.470  0.00  0.00    -0.050 A 
ATOM     15  C   UNL     1      -0.239  -0.303   0.656  0.00  0.00    +0.004 A 
ATOM     16  C   UNL     1       0.023  -1.652   0.801  0.00  0.00    +0.006 A 
ATOM     17  C   UNL     1      -0.374  -2.543  -0.178  0.00  0.00    -0.023 A 
ATOM     18  C   UNL     1      -1.032  -2.084  -1.304  0.00  0.00    +0.006 A 
ATOM     19  C   UNL     1      -1.298  -0.736  -1.448  0.00  0.00    +0.004 A 
ENDBRANCH   1  17
BRANCH  11  20
ATOM     20  C   UNL     1      -2.778  -5.702   2.134  0.00  0.00    +0.069 C 
ATOM     21  C   UNL     1      -4.066  -6.371   1.651  0.00  0.00    +0.017 C 
ATOM     22  C   UNL     1      -1.981  -6.688   2.990  0.00  0.00    +0.017 C 
ENDBRANCH  11  20
BRANCH   4  23
ATOM     23  O   UNL     1       4.450  -3.959  -1.751  0.00  0.00    -0.484 OA
BRANCH  23  24
ATOM     24  C   UNL     1       5.848  -4.142  -1.514  0.00  0.00    +0.303 C 
BRANCH  24  25
ATOM     25  C   UNL     1       6.612  -3.873  -2.784  0.00  0.00    +0.143 A 
ATOM     26  C   UNL     1       7.107  -2.675  -3.166  0.00  0.00    +0.049 A 
ATOM     27  C   UNL     1       7.744  -2.866  -4.402  0.00  0.00    +0.055 A 
ATOM     28  C   UNL     1       7.604  -4.187  -4.716  0.00  0.00    +0.190 A 
ATOM     29  O   UNL     1       6.918  -4.783  -3.719  0.00  0.00    -0.452 OA
BRANCH  28  30
ATOM     30  C   UNL     1       8.113  -4.845  -5.924  0.00  0.00    +0.279 C 
ATOM     31  O   UNL     1       8.725  -4.200  -6.756  0.00  0.00    -0.267 OA
ATOM     32  N   UNL     1       7.904  -6.163  -6.112  0.00  0.00    -0.311 N 
ATOM     33  H   UNL     1       7.417  -6.677  -5.449  0.00  0.00    +0.149 HD
BRANCH  32  34
ATOM     34  C   UNL     1       8.414  -6.820  -7.319  0.00  0.00    +0.086 C 
BRANCH  34  35
ATOM     35  C   UNL     1       8.043  -8.304  -7.286  0.00  0.00    -0.061 C 
BRANCH  35  36
ATOM     36  N   UNL     1       8.554  -8.963  -8.496  0.00  0.00    +0.377 N 
ATOM     37  C   UNL     1       8.304 -10.408  -8.409  0.00  0.00    -0.097 C 
ATOM     38  C   UNL     1       7.870  -8.418  -9.676  0.00  0.00    -0.097 C 
ATOM     39  H   UNL     1       9.546  -8.797  -8.576  0.00  0.00    -0.083 HD
ENDBRANCH  35  36
ENDBRANCH  34  35
ENDBRANCH  32  34
ENDBRANCH  28  30
ENDBRANCH  24  25
ENDBRANCH  23  24
ENDBRANCH   4  23
TORSDOF 9
