REMARK  Name = ZINC67408078
REMARK  6 active torsions:
REMARK  status: ('A' for Active; 'I' for Inactive)
REMARK    1  A    between atoms: C_6  and  C_11
REMARK    2  A    between atoms: C_11  and  C_13
REMARK    3  A    between atoms: C_11  and  O_30
REMARK    4  A    between atoms: C_13  and  N_14
REMARK    5  A    between atoms: N_17  and  C_18
REMARK    6  A    between atoms: C_22  and  N_24
REMARK                            x       y       z     vdW  Elec       q    Type
REMARK                         _______ _______ _______ _____ _____    ______ ____
ROOT
ATOM      1  N   UNL     1       6.688  -3.807   1.340  0.00  0.00    -0.296 N 
ATOM      2  C   UNL     1       7.205  -4.276   2.493  0.00  0.00    +0.304 C 
ATOM      3  O   UNL     1       6.563  -4.199   3.523  0.00  0.00    -0.253 OA
ATOM      4  N   UNL     1       8.434  -4.830   2.504  0.00  0.00    -0.269 N 
ATOM      5  H   UNL     1       7.200  -3.868   0.518  0.00  0.00    +0.150 HD
ATOM      6  H   UNL     1       8.919  -4.950   1.673  0.00  0.00    +0.156 HD
ENDROOT
BRANCH   4   7
ATOM      7  C   UNL     1       9.009  -5.231   3.715  0.00  0.00    +0.037 A 
ATOM      8  C   UNL     1       8.211  -5.760   4.723  0.00  0.00    +0.023 A 
ATOM      9  C   UNL     1       8.778  -6.157   5.918  0.00  0.00    +0.004 A 
ATOM     10  C   UNL     1      10.140  -6.030   6.116  0.00  0.00    +0.024 A 
ATOM     11  C   UNL     1      10.943  -5.502   5.113  0.00  0.00    +0.040 A 
ATOM     12  C   UNL     1      10.377  -5.108   3.909  0.00  0.00    +0.047 A 
BRANCH  11  13
ATOM     13  N   UNL     1      12.322  -5.374   5.315  0.00  0.00    -0.254 N 
ATOM     14  C   UNL     1      13.061  -5.867   6.486  0.00  0.00    +0.134 C 
ATOM     15  C   UNL     1      14.521  -5.466   6.197  0.00  0.00    +0.125 C 
ATOM     16  N   UNL     1      14.448  -4.789   4.894  0.00  0.00    -0.297 N 
ATOM     17  C   UNL     1      13.178  -4.787   4.468  0.00  0.00    +0.307 C 
ATOM     18  O   UNL     1      12.834  -4.294   3.412  0.00  0.00    -0.252 OA
ATOM     19  H   UNL     1      15.202  -4.408   4.416  0.00  0.00    +0.150 HD
ENDBRANCH  11  13
ENDBRANCH   4   7
BRANCH   1  20
ATOM     20  C   UNL     1       5.353  -3.205   1.327  0.00  0.00    +0.141 C 
BRANCH  20  21
ATOM     21  C   UNL     1       5.008  -2.758  -0.095  0.00  0.00    +0.162 C 
BRANCH  21  27
ATOM     22  C   UNL     1      -0.004   1.315  -0.082  0.00  0.00    +0.001 A 
ATOM     23  C   UNL     1       1.183   2.045  -0.107  0.00  0.00    +0.001 A 
ATOM     24  C   UNL     1       2.391   1.418  -0.116  0.00  0.00    +0.008 A 
ATOM     25  C   UNL     1       2.446   0.014  -0.098  0.00  0.00    -0.018 A 
ATOM     26  C   UNL     1       3.675  -0.669  -0.105  0.00  0.00    +0.014 A 
ATOM     27  C   UNL     1       3.689  -2.030  -0.087  0.00  0.00    -0.017 A 
ATOM     28  C   UNL     1       2.502  -2.759  -0.061  0.00  0.00    +0.007 A 
ATOM     29  C   UNL     1       1.294  -2.132  -0.054  0.00  0.00    +0.009 A 
ATOM     30  C   UNL     1       1.239  -0.728  -0.072  0.00  0.00    -0.018 A 
ATOM     31  C   UNL     1       0.011  -0.046  -0.065  0.00  0.00    +0.008 A 
ENDBRANCH  21  27
BRANCH  21  32
ATOM     32  O   UNL     1       4.914  -3.903  -0.944  0.00  0.00    -0.386 OA
ATOM     33  H   UNL     1       4.239  -4.540  -0.673  0.00  0.00    +0.210 HD
ENDBRANCH  21  32
ENDBRANCH  20  21
ENDBRANCH   1  20
TORSDOF 6
