REMARK  Name = ZINC62834237
REMARK  5 active torsions:
REMARK  status: ('A' for Active; 'I' for Inactive)
REMARK    1  A    between atoms: C_1  and  C_2
REMARK    2  A    between atoms: C_2  and  C_3
REMARK    3  A    between atoms: C_7  and  C_24
REMARK    4  A    between atoms: C_11  and  C_13
REMARK    5  A    between atoms: C_17  and  N_23
REMARK                            x       y       z     vdW  Elec       q    Type
REMARK                         _______ _______ _______ _____ _____    ______ ____
ROOT
ATOM      1  C   UNL     1      -0.349   1.084  -4.550  0.00  0.00    +0.103 A 
ATOM      2  C   UNL     1       0.057   1.921  -5.540  0.00  0.00    +0.041 A 
ATOM      3  C   UNL     1      -0.934   1.907  -6.551  0.00  0.00    +0.002 A 
ATOM      4  C   UNL     1      -1.057   2.561  -7.784  0.00  0.00    +0.032 A 
ATOM      5  C   UNL     1      -2.171   2.337  -8.568  0.00  0.00    +0.025 A 
ATOM      6  C   UNL     1      -3.171   1.464  -8.137  0.00  0.00    +0.025 A 
ATOM      7  C   UNL     1      -3.062   0.816  -6.928  0.00  0.00    +0.028 A 
ATOM      8  C   UNL     1      -1.946   1.027  -6.122  0.00  0.00    +0.047 A 
ATOM      9  N   UNL     1      -1.566   0.530  -4.896  0.00  0.00    -0.351 N 
ATOM     10  H   UNL     1      -2.070  -0.104  -4.362  0.00  0.00    +0.166 HD
ENDROOT
BRANCH   1  17
ATOM     11  C   UNL     1       0.982  -0.683  -1.451  0.00  0.00    +0.102 C 
ATOM     12  C   UNL     1       1.677  -2.039  -1.619  0.00  0.00    +0.182 C 
ATOM     13  O   UNL     1       0.716  -3.011  -2.040  0.00  0.00    -0.373 OA
ATOM     14  C   UNL     1       0.121  -2.734  -3.310  0.00  0.00    +0.133 C 
ATOM     15  C   UNL     1      -0.653  -1.414  -3.228  0.00  0.00    +0.139 C 
ATOM     16  N   UNL     1       0.246  -0.380  -2.689  0.00  0.00    -0.289 N 
ATOM     17  C   UNL     1       0.392   0.807  -3.310  0.00  0.00    +0.263 C 
ATOM     18  O   UNL     1       1.137   1.649  -2.845  0.00  0.00    -0.268 OA
ATOM     19  C   UNL     1      -0.836  -3.868  -3.683  0.00  0.00    +0.039 C 
BRANCH  11  21
ATOM     20  C   UNL     1      -0.602   0.638  -0.040  0.00  0.00    +0.006 C 
ATOM     21  C   UNL     1       0.006  -0.746  -0.274  0.00  0.00    +0.021 C 
ENDBRANCH  11  21
ENDBRANCH   1  17
BRANCH   5  22
ATOM     22  N   UNL     1      -2.299   2.988  -9.800  0.00  0.00    -0.358 N 
ATOM     23  H   UNL     1      -1.605   3.596 -10.101  0.00  0.00    +0.142 HD
ATOM     24  H   UNL     1      -3.081   2.832 -10.352  0.00  0.00    +0.142 HD
ENDBRANCH   5  22
TORSDOF 3
