REMARK  Name = ZINC42104052
REMARK  5 active torsions:
REMARK  status: ('A' for Active; 'I' for Inactive)
REMARK    1  A    between atoms: C_1  and  C_2
REMARK    2  A    between atoms: C_2  and  C_3
REMARK    3  A    between atoms: C_9  and  N_14
REMARK    4  A    between atoms: N_14  and  C_15
REMARK    5  A    between atoms: C_15  and  C_16
REMARK                            x       y       z     vdW  Elec       q    Type
REMARK                         _______ _______ _______ _____ _____    ______ ____
ROOT
ATOM      1  C   UNL     1      -1.412  -0.526   0.013  0.00  0.00    -0.047 A 
ATOM      2  C   UNL     1      -2.053  -0.767   1.214  0.00  0.00    +0.005 A 
ATOM      3  C   UNL     1      -3.347  -1.244   1.231  0.00  0.00    +0.024 A 
ATOM      4  C   UNL     1      -4.018  -1.487   0.034  0.00  0.00    +0.035 A 
ATOM      5  C   UNL     1      -3.364  -1.240  -1.166  0.00  0.00    -0.031 A 
ATOM      6  C   UNL     1      -2.074  -0.759  -1.180  0.00  0.00    +0.008 A 
ATOM      7  C   UNL     1      -4.340  -1.596  -2.263  0.00  0.00    +0.049 C 
ATOM      8  C   UNL     1      -5.577  -2.055  -1.521  0.00  0.00    +0.208 C 
ATOM      9  O   UNL     1      -6.616  -2.437  -2.018  0.00  0.00    -0.277 OA
ATOM     10  N   UNL     1      -5.308  -1.962  -0.208  0.00  0.00    -0.286 N 
ATOM     11  H   UNL     1      -5.938  -2.197   0.491  0.00  0.00    +0.155 HD
ENDROOT
BRANCH   7  12
ATOM     12  N   UNL     1      -3.805  -2.680  -3.097  0.00  0.00    +0.392 N 
ATOM     13  H   UNL     1      -2.896  -2.417  -3.449  0.00  0.00    -0.084 HD
ATOM     14  H   UNL     1      -3.720  -3.520  -2.544  0.00  0.00    -0.084 HD
BRANCH  12  15
ATOM     15  C   UNL     1      -4.714  -2.926  -4.225  0.00  0.00    -0.045 C 
BRANCH  15  16
ATOM     16  C   UNL     1      -4.164  -4.038  -5.080  0.00  0.00    -0.064 A 
ATOM     17  C   UNL     1      -3.309  -3.747  -6.127  0.00  0.00    +0.003 A 
ATOM     18  C   UNL     1      -2.805  -4.767  -6.912  0.00  0.00    +0.020 A 
ATOM     19  C   UNL     1      -3.156  -6.079  -6.650  0.00  0.00    +0.041 A 
ATOM     20  C   UNL     1      -4.012  -6.370  -5.602  0.00  0.00    +0.020 A 
ATOM     21  C   UNL     1      -4.511  -5.350  -4.815  0.00  0.00    +0.003 A 
ATOM     22 CL   UNL     1      -2.524  -7.361  -7.636  0.00  0.00    -0.084 Cl
ENDBRANCH  15  16
ENDBRANCH  12  15
ENDBRANCH   7  12
BRANCH   1  24
ATOM     23  C   UNL     1      -0.019   1.526   0.010  0.00  0.00    +0.009 C 
ATOM     24  C   UNL     1       0.002  -0.004   0.002  0.00  0.00    +0.032 C 
ENDBRANCH   1  24
TORSDOF 4
