REMARK  Name = ZINC39914741
REMARK  9 active torsions:
REMARK  status: ('A' for Active; 'I' for Inactive)
REMARK    1  A    between atoms: C_1  and  C_2
REMARK    2  A    between atoms: C_2  and  C_3
REMARK    3  A    between atoms: C_6  and  C_9
REMARK    4  A    between atoms: C_12  and  C_28
REMARK    5  A    between atoms: N_19  and  C_20
REMARK    6  A    between atoms: C_20  and  C_21
REMARK    7  A    between atoms: C_24  and  C_27
REMARK    8  A    between atoms: C_31  and  C_35
REMARK    9  A    between atoms: C_33  and  O_34
REMARK                            x       y       z     vdW  Elec       q    Type
REMARK                         _______ _______ _______ _____ _____    ______ ____
ROOT
ATOM      1  C   UNL     1      -5.106  -1.704  -0.230  0.00  0.00    +0.142 C 
ATOM      2  C   UNL     1      -6.259  -0.737  -0.210  0.00  0.00    +0.035 A 
ATOM      3  C   UNL     1      -6.896   0.326   0.439  0.00  0.00    +0.102 A 
ATOM      4  N   UNL     1      -7.970   0.629  -0.263  0.00  0.00    -0.173 NA
ATOM      5  N   UNL     1      -8.074  -0.136  -1.290  0.00  0.00    -0.272 N 
ATOM      6  H   UNL     1      -8.787  -0.093  -1.947  0.00  0.00    +0.189 HD
ATOM      7  C   UNL     1      -7.032  -1.019  -1.320  0.00  0.00    +0.126 A 
ATOM      8  C   UNL     1      -6.415  -2.133  -2.049  0.00  0.00    +0.266 C 
ATOM      9  O   UNL     1      -6.853  -2.620  -3.073  0.00  0.00    -0.268 OA
ATOM     10  N   UNL     1      -5.294  -2.539  -1.423  0.00  0.00    -0.281 N 
ENDROOT
BRANCH   3  11
ATOM     11  C   UNL     1      -6.446   0.989   1.688  0.00  0.00    +0.045 A 
ATOM     12  C   UNL     1      -5.357   0.484   2.394  0.00  0.00    +0.034 A 
ATOM     13  C   UNL     1      -4.942   1.105   3.556  0.00  0.00    +0.045 A 
ATOM     14  C   UNL     1      -5.605   2.228   4.022  0.00  0.00    -0.029 A 
ATOM     15  C   UNL     1      -6.687   2.735   3.328  0.00  0.00    +0.050 A 
ATOM     16  C   UNL     1      -7.110   2.125   2.157  0.00  0.00    +0.126 A 
ATOM     17  C   UNL     1      -5.146   2.899   5.290  0.00  0.00    +0.045 C 
ATOM     18 CL   UNL     1      -3.584   0.475   4.437  0.00  0.00    -0.083 Cl
BRANCH  16  19
ATOM     19  O   UNL     1      -8.170   2.627   1.471  0.00  0.00    -0.506 OA
ATOM     20  H   UNL     1      -9.023   2.260   1.742  0.00  0.00    +0.292 HD
ENDBRANCH  16  19
ENDBRANCH   3  11
BRANCH   1  24
ATOM     21  C   UNL     1      -1.411   0.424  -0.489  0.00  0.00    -0.048 A 
ATOM     22  C   UNL     1      -2.280   0.414  -1.564  0.00  0.00    +0.004 A 
ATOM     23  C   UNL     1      -3.476  -0.274  -1.480  0.00  0.00    +0.006 A 
ATOM     24  C   UNL     1      -3.802  -0.954  -0.322  0.00  0.00    -0.022 A 
ATOM     25  C   UNL     1      -2.932  -0.945   0.753  0.00  0.00    +0.006 A 
ATOM     26  C   UNL     1      -1.735  -0.260   0.667  0.00  0.00    +0.004 A 
BRANCH  21  28
ATOM     27  C   UNL     1       0.978   0.246  -1.130  0.00  0.00    +0.009 C 
ATOM     28  C   UNL     1      -0.107   1.174  -0.581  0.00  0.00    +0.032 C 
ENDBRANCH  21  28
ENDBRANCH   1  24
BRANCH  10  29
ATOM     29  C   UNL     1      -4.413  -3.626  -1.857  0.00  0.00    +0.144 C 
BRANCH  29  30
ATOM     30  C   UNL     1      -4.872  -4.922  -1.239  0.00  0.00    -0.030 A 
ATOM     31  C   UNL     1      -4.377  -5.315  -0.010  0.00  0.00    +0.005 A 
ATOM     32  C   UNL     1      -4.798  -6.504   0.556  0.00  0.00    +0.003 A 
ATOM     33  C   UNL     1      -5.714  -7.299  -0.106  0.00  0.00    -0.050 A 
ATOM     34  C   UNL     1      -6.209  -6.905  -1.335  0.00  0.00    +0.003 A 
ATOM     35  C   UNL     1      -5.792  -5.715  -1.900  0.00  0.00    +0.005 A 
ATOM     36  C   UNL     1      -6.172  -8.595   0.510  0.00  0.00    +0.044 C 
ENDBRANCH  29  30
ENDBRANCH  10  29
TORSDOF 6
