REMARK  Name = ZINC59269888
REMARK  7 active torsions:
REMARK  status: ('A' for Active; 'I' for Inactive)
REMARK    1  A    between atoms: C_1  and  C_2
REMARK    2  A    between atoms: C_3  and  C_26
REMARK    3  A    between atoms: C_13  and  C_14
REMARK    4  A    between atoms: C_17  and  O_20
REMARK    5  A    between atoms: O_20  and  C_21
REMARK    6  A    between atoms: C_21  and  C_22
REMARK    7  A    between atoms: C_21  and  C_23
REMARK                            x       y       z     vdW  Elec       q    Type
REMARK                         _______ _______ _______ _____ _____    ______ ____
ROOT
ATOM      1  C   UNL     1       1.992   2.610   1.157  0.00  0.00    +0.045 C 
ATOM      2  C   UNL     1       1.618   1.163   0.964  0.00  0.00    -0.026 A 
ATOM      3  C   UNL     1       1.317   0.697  -0.259  0.00  0.00    -0.008 A 
ATOM      4  S   UNL     1       0.953  -1.024   0.032  0.00  0.00    -0.073 S 
ATOM      5  C   UNL     1       1.216  -1.068   1.787  0.00  0.00    +0.116 A 
ATOM      6  C   UNL     1       1.585   0.256   2.096  0.00  0.00    +0.075 A 
ATOM      7  C   UNL     1       1.868   0.515   3.474  0.00  0.00    +0.263 A 
ATOM      8  O   UNL     1       2.191   1.634   3.833  0.00  0.00    -0.267 OA
ATOM      9  N   UNL     1       1.774  -0.488   4.377  0.00  0.00    -0.292 N 
ATOM     10  C   UNL     1       1.413  -1.749   3.988  0.00  0.00    +0.141 A 
ATOM     11  N   UNL     1       1.137  -2.006   2.714  0.00  0.00    -0.222 NA
ATOM     12  C   UNL     1       1.380  -2.664   5.134  0.00  0.00    -0.003 C 
ATOM     13  C   UNL     1       1.064  -3.975   5.102  0.00  0.00    +0.015 C 
ATOM     14  C   UNL     1       1.766  -1.864   6.356  0.00  0.00    +0.060 C 
ATOM     15  C   UNL     1       2.017  -0.446   5.827  0.00  0.00    +0.131 C 
ATOM     16  C   UNL     1       1.292   1.449  -1.565  0.00  0.00    +0.052 C 
ENDROOT
BRANCH  13  17
ATOM     17  C   UNL     1       0.945  -4.734   6.357  0.00  0.00    -0.024 A 
ATOM     18  C   UNL     1       0.345  -4.148   7.477  0.00  0.00    +0.011 A 
ATOM     19  C   UNL     1       0.237  -4.862   8.649  0.00  0.00    +0.046 A 
ATOM     20  C   UNL     1       0.722  -6.162   8.721  0.00  0.00    +0.121 A 
ATOM     21  C   UNL     1       1.319  -6.748   7.612  0.00  0.00    +0.046 A 
ATOM     22  C   UNL     1       1.427  -6.045   6.433  0.00  0.00    +0.011 A 
BRANCH  20  23
ATOM     23  O   UNL     1       0.613  -6.862   9.880  0.00  0.00    -0.489 OA
BRANCH  23  24
ATOM     24  C   UNL     1      -0.114  -6.246  10.944  0.00  0.00    +0.167 C 
ATOM     25  C   UNL     1      -0.595  -7.319  11.922  0.00  0.00    +0.051 C 
ATOM     26  C   UNL     1       0.795  -5.258  11.678  0.00  0.00    +0.051 C 
ENDBRANCH  23  24
ENDBRANCH  20  23
ENDBRANCH  13  17
TORSDOF 3
