REMARK  Name = ZINC13500126
REMARK  14 active torsions:
REMARK  status: ('A' for Active; 'I' for Inactive)
REMARK    1  A    between atoms: C_1  and  C_2
REMARK    2  A    between atoms: C_2  and  C_3
REMARK    3  A    between atoms: C_3  and  C_4
REMARK    4  A    between atoms: C_4  and  C_6
REMARK    5  A    between atoms: C_4  and  N_71
REMARK    6  A    between atoms: N_10  and  C_11
REMARK    7  A    between atoms: C_11  and  C_12
REMARK    8  A    between atoms: C_12  and  O_14
REMARK    9  A    between atoms: O_14  and  C_15
REMARK   10  A    between atoms: C_15  and  C_16
REMARK   11  A    between atoms: C_17  and  C_18
REMARK   12  A    between atoms: C_17  and  N_71
REMARK   13  A    between atoms: C_24  and  C_30
REMARK   14  A    between atoms: C_31  and  N_71
REMARK                            x       y       z     vdW  Elec       q    Type
REMARK                         _______ _______ _______ _____ _____    ______ ____
ROOT
ATOM      1  N   UNL     1       1.559  -3.194   5.339  0.00  0.00    +0.391 N 
ATOM      2  H   UNL     1       1.982  -2.259   5.328  0.00  0.00    -0.080 HD
ENDROOT
BRANCH   1   3
ATOM      3  C   UNL     1       2.354  -4.090   4.472  0.00  0.00    -0.067 C 
ATOM      4  C   UNL     1       1.867  -5.534   4.603  0.00  0.00    -0.015 C 
ATOM      5  C   UNL     1       2.707  -6.439   3.700  0.00  0.00    -0.002 C 
ATOM      6  C   UNL     1       4.176  -6.357   4.119  0.00  0.00    -0.000 C 
ATOM      7  C   UNL     1       4.663  -4.912   3.989  0.00  0.00    -0.002 C 
ATOM      8  C   UNL     1       3.823  -4.007   4.892  0.00  0.00    -0.015 C 
ENDBRANCH   1   3
BRANCH   1   9
ATOM      9  C   UNL     1       1.558  -3.704   6.726  0.00  0.00    +0.003 C 
BRANCH   9  10
ATOM     10  C   UNL     1       0.588  -4.849   6.866  0.00  0.00    +0.139 A 
ATOM     11  N   UNL     1      -0.661  -4.869   6.472  0.00  0.00    -0.115 NA
ATOM     12  N   UNL     1      -1.154  -6.022   6.767  0.00  0.00    -0.023 NA
ATOM     13  N   UNL     1      -0.253  -6.736   7.346  0.00  0.00    -0.043 NA
ATOM     14  N   UNL     1       0.836  -6.048   7.427  0.00  0.00    -0.220 N 
BRANCH  14  15
ATOM     15  C   UNL     1       2.102  -6.488   8.017  0.00  0.00    +0.267 C 
BRANCH  15  16
ATOM     16  C   UNL     1       2.123  -6.134   9.482  0.00  0.00    +0.329 C 
ATOM     17  O   UNL     1       1.178  -5.572   9.981  0.00  0.00    -0.249 OA
BRANCH  16  18
ATOM     18  O   UNL     1       3.193  -6.443  10.232  0.00  0.00    -0.464 OA
BRANCH  18  19
ATOM     19  C   UNL     1       3.144  -6.072  11.634  0.00  0.00    +0.229 C 
ATOM     20  C   UNL     1       4.442  -6.503  12.321  0.00  0.00    +0.048 C 
ENDBRANCH  18  19
ENDBRANCH  16  18
ENDBRANCH  15  16
ENDBRANCH  14  15
ENDBRANCH   9  10
BRANCH   9  21
ATOM     21  C   UNL     1       1.147  -2.569   7.666  0.00  0.00    -0.008 C 
BRANCH  21  23
ATOM     22  C   UNL     1       1.855  -0.386   8.652  0.00  0.00    +0.004 C 
ATOM     23  C   UNL     1       2.204  -1.464   7.624  0.00  0.00    -0.005 C 
ENDBRANCH  21  23
ENDBRANCH   9  21
ENDBRANCH   1   9
BRANCH   1  24
ATOM     24  C   UNL     1       0.173  -3.102   4.834  0.00  0.00    -0.036 C 
BRANCH  24  25
ATOM     25  C   UNL     1       0.167  -2.246   3.594  0.00  0.00    +0.001 A 
ATOM     26  C   UNL     1       0.002  -2.821   2.377  0.00  0.00    +0.017 A 
ATOM     27  C   UNL     1      -0.000  -1.961   1.192  0.00  0.00    -0.001 A 
ATOM     28  C   UNL     1      -0.166  -2.496  -0.090  0.00  0.00    +0.010 A 
ATOM     29  C   UNL     1      -0.162  -1.667  -1.176  0.00  0.00    +0.001 A 
ATOM     30  C   UNL     1      -0.004  -0.297  -1.018  0.00  0.00    +0.005 A 
ATOM     31  C   UNL     1       0.168   0.251   0.235  0.00  0.00    -0.026 A 
ATOM     32  C   UNL     1       0.168  -0.573   1.355  0.00  0.00    +0.052 A 
ATOM     33  N   UNL     1       0.332  -0.051   2.620  0.00  0.00    -0.322 N 
ATOM     34  H   UNL     1       0.447   0.906   2.731  0.00  0.00    +0.169 HD
ATOM     35  C   UNL     1       0.332  -0.848   3.703  0.00  0.00    +0.251 A 
ATOM     36  O   UNL     1       0.478  -0.352   4.806  0.00  0.00    -0.268 OA
ATOM     37  C   UNL     1       0.347   1.740   0.391  0.00  0.00    +0.046 C 
ENDBRANCH  24  25
ENDBRANCH   1  24
TORSDOF 11
