REMARK  Name = ZINC66806012
REMARK  13 active torsions:
REMARK  status: ('A' for Active; 'I' for Inactive)
REMARK    1  A    between atoms: C_1  and  C_2
REMARK    2  A    between atoms: C_2  and  N_3
REMARK    3  A    between atoms: N_3  and  C_4
REMARK    4  A    between atoms: C_4  and  C_6
REMARK    5  A    between atoms: C_4  and  C_7
REMARK    6  A    between atoms: C_7  and  C_8
REMARK    7  A    between atoms: C_11  and  O_14
REMARK    8  A    between atoms: O_14  and  C_15
REMARK    9  A    between atoms: C_16  and  C_18
REMARK   10  A    between atoms: C_18  and  C_19
REMARK   11  A    between atoms: C_19  and  N_20
REMARK   12  A    between atoms: C_22  and  N_26
REMARK   13  A    between atoms: C_24  and  C_25
REMARK                            x       y       z     vdW  Elec       q    Type
REMARK                         _______ _______ _______ _____ _____    ______ ____
ROOT
ATOM      1  N   UNL     1      -1.588  -0.418   0.237  0.00  0.00    -0.299 N 
ATOM      2  C   UNL     1      -2.262  -0.522   1.399  0.00  0.00    +0.217 C 
ATOM      3  O   UNL     1      -3.395  -0.954   1.406  0.00  0.00    -0.276 OA
ENDROOT
BRANCH   1   5
ATOM      4  C   UNL     1      -0.256   1.632   0.155  0.00  0.00    +0.024 C 
ATOM      5  C   UNL     1      -0.219   0.104   0.229  0.00  0.00    +0.104 C 
ENDBRANCH   1   5
BRANCH   1   6
ATOM      6  C   UNL     1      -2.223  -0.826  -1.018  0.00  0.00    +0.077 C 
ATOM      7  C   UNL     1      -1.479  -2.029  -1.599  0.00  0.00    +0.028 C 
BRANCH   6   8
ATOM      8  C   UNL     1      -2.175   0.334  -2.015  0.00  0.00    +0.057 C 
BRANCH   8   9
ATOM      9  C   UNL     1      -2.965  -0.028  -3.246  0.00  0.00    -0.045 A 
ATOM     10  C   UNL     1      -2.346  -0.679  -4.296  0.00  0.00    +0.007 A 
ATOM     11  C   UNL     1      -3.068  -1.012  -5.426  0.00  0.00    +0.046 A 
ATOM     12  C   UNL     1      -4.415  -0.693  -5.506  0.00  0.00    +0.120 A 
ATOM     13  C   UNL     1      -5.035  -0.040  -4.450  0.00  0.00    +0.046 A 
ATOM     14  C   UNL     1      -4.310   0.286  -3.320  0.00  0.00    +0.007 A 
BRANCH  12  15
ATOM     15  O   UNL     1      -5.128  -1.019  -6.616  0.00  0.00    -0.495 OA
ATOM     16  C   UNL     1      -6.511  -0.660  -6.629  0.00  0.00    +0.277 C 
ENDBRANCH  12  15
ENDBRANCH   8   9
ENDBRANCH   6   8
ENDBRANCH   1   6
BRANCH   2  17
ATOM     17  C   UNL     1      -1.608  -0.102   2.691  0.00  0.00    +0.117 C 
BRANCH  17  18
ATOM     18  C   UNL     1      -2.582  -0.322   3.850  0.00  0.00    +0.132 C 
BRANCH  18  19
ATOM     19  N   UNL     1      -1.946   0.086   5.106  0.00  0.00    -0.332 N 
ATOM     20  C   UNL     1      -1.279  -0.728   5.981  0.00  0.00    +0.140 A 
ATOM     21  C   UNL     1      -0.856   0.052   6.994  0.00  0.00    +0.233 A 
ATOM     22  N   UNL     1      -1.254   1.308   6.744  0.00  0.00    -0.210 NA
ATOM     23  C   UNL     1      -1.903   1.337   5.612  0.00  0.00    +0.109 A 
ATOM     24  C   UNL     1      -2.507   2.563   4.978  0.00  0.00    +0.086 C 
BRANCH  21  25
ATOM     25  N   UNL     1      -0.088  -0.399   8.176  0.00  0.00    +0.077 N 
ATOM     26  O   UNL     1       0.215  -1.564   8.292  0.00  0.00    -0.125 OA
ATOM     27  O   UNL     1       0.238   0.398   9.025  0.00  0.00    -0.125 OA
ENDBRANCH  21  25
ENDBRANCH  18  19
ENDBRANCH  17  18
ENDBRANCH   2  17
TORSDOF 9
