REMARK  Name = ZINC39665812
REMARK  11 active torsions:
REMARK  status: ('A' for Active; 'I' for Inactive)
REMARK    1  A    between atoms: C_1  and  C_2
REMARK    2  A    between atoms: C_5  and  C_9
REMARK    3  A    between atoms: C_6  and  C_8
REMARK    4  A    between atoms: C_13  and  C_22
REMARK    5  A    between atoms: N_24  and  C_25
REMARK    6  A    between atoms: C_25  and  C_26
REMARK    7  A    between atoms: C_26  and  C_28
REMARK    8  A    between atoms: C_26  and  O_29
REMARK    9  A    between atoms: O_29  and  C_30
REMARK   10  A    between atoms: C_33  and  O_36
REMARK   11  A    between atoms: O_36  and  C_37
REMARK                            x       y       z     vdW  Elec       q    Type
REMARK                         _______ _______ _______ _____ _____    ______ ____
ROOT
ATOM      1  C   UNL     1       0.237  -4.299   0.372  0.00  0.00    +0.247 C 
ATOM      2  O   UNL     1       0.547  -4.766   1.451  0.00  0.00    -0.270 OA
ATOM      3  N   UNL     1       0.032  -5.115  -0.681  0.00  0.00    -0.296 N 
ATOM      4  C   UNL     1      -0.244  -4.732  -2.085  0.00  0.00    +0.121 C 
ATOM      5  C   UNL     1       0.557  -5.747  -2.931  0.00  0.00    +0.100 C 
ATOM      6  C   UNL     1       0.733  -6.970  -2.014  0.00  0.00    -0.004 C 
ATOM      7  C   UNL     1       0.038  -6.598  -0.697  0.00  0.00    +0.115 C 
ATOM      8  C   UNL     1       0.070  -8.195  -2.635  0.00  0.00    -0.010 C 
ATOM      9  C   UNL     1       0.308  -9.410  -1.734  0.00  0.00    -0.082 C 
ATOM     10  N   UNL     1       1.751  -9.634  -1.582  0.00  0.00    +0.379 N 
ATOM     11  C   UNL     1       2.366  -8.489  -0.900  0.00  0.00    -0.082 C 
ATOM     12  C   UNL     1       2.215  -7.235  -1.766  0.00  0.00    -0.010 C 
ATOM     13  H   UNL     1       1.905 -10.470  -1.038  0.00  0.00    -0.086 HD
ATOM     14  H   UNL     1       2.170  -9.746  -2.493  0.00  0.00    -0.086 HD
ENDROOT
BRANCH   1  19
ATOM     15  C   UNL     1      -0.356   1.392  -0.238  0.00  0.00    +0.044 C 
ATOM     16  C   UNL     1      -0.201  -0.099  -0.078  0.00  0.00    -0.050 A 
ATOM     17  C   UNL     1       0.594  -0.807  -0.962  0.00  0.00    +0.004 A 
ATOM     18  C   UNL     1       0.740  -2.171  -0.821  0.00  0.00    +0.013 A 
ATOM     19  C   UNL     1       0.085  -2.837   0.216  0.00  0.00    +0.040 A 
ATOM     20  C   UNL     1      -0.715  -2.117   1.104  0.00  0.00    -0.038 A 
ATOM     21  C   UNL     1      -0.849  -0.751   0.955  0.00  0.00    +0.007 A 
ATOM     22  C   UNL     1      -1.426  -2.827   2.227  0.00  0.00    +0.044 C 
ENDBRANCH   1  19
BRANCH   5  23
ATOM     23  C   UNL     1      -0.215  -6.124  -4.169  0.00  0.00    +0.218 C 
ATOM     24  O   UNL     1      -1.428  -6.155  -4.142  0.00  0.00    -0.275 OA
ATOM     25  N   UNL     1       0.441  -6.426  -5.307  0.00  0.00    -0.312 N 
ATOM     26  H   UNL     1       1.410  -6.401  -5.329  0.00  0.00    +0.149 HD
BRANCH  25  27
ATOM     27  C   UNL     1      -0.310  -6.792  -6.511  0.00  0.00    +0.148 C 
BRANCH  27  28
ATOM     28  C   UNL     1       0.667  -7.085  -7.652  0.00  0.00    +0.187 C 
ATOM     29  C   UNL     1      -0.117  -7.467  -8.909  0.00  0.00    +0.053 C 
BRANCH  28  30
ATOM     30  O   UNL     1       1.453  -5.921  -7.916  0.00  0.00    -0.488 OA
BRANCH  30  31
ATOM     31  C   UNL     1       2.671  -6.115  -8.488  0.00  0.00    +0.121 A 
ATOM     32  C   UNL     1       3.536  -5.045  -8.659  0.00  0.00    +0.049 A 
ATOM     33  C   UNL     1       4.773  -5.242  -9.240  0.00  0.00    +0.049 A 
ATOM     34  C   UNL     1       5.150  -6.512  -9.653  0.00  0.00    +0.120 A 
ATOM     35  C   UNL     1       4.286  -7.582  -9.482  0.00  0.00    +0.049 A 
ATOM     36  C   UNL     1       3.050  -7.385  -8.897  0.00  0.00    +0.049 A 
BRANCH  34  37
ATOM     37  O   UNL     1       6.368  -6.706 -10.227  0.00  0.00    -0.495 OA
ATOM     38  C   UNL     1       6.691  -8.039 -10.628  0.00  0.00    +0.277 C 
ENDBRANCH  34  37
ENDBRANCH  30  31
ENDBRANCH  28  30
ENDBRANCH  27  28
ENDBRANCH  25  27
ENDBRANCH   5  23
TORSDOF 7
