REMARK  Name = ZINC39685791
REMARK  12 active torsions:
REMARK  status: ('A' for Active; 'I' for Inactive)
REMARK    1  A    between atoms: C_1  and  C_2
REMARK    2  A    between atoms: C_5  and  C_9
REMARK    3  A    between atoms: C_13  and  C_22
REMARK    4  A    between atoms: N_24  and  C_25
REMARK    5  A    between atoms: C_25  and  C_27
REMARK    6  A    between atoms: C_25  and  C_30
REMARK    7  A    between atoms: C_27  and  C_28
REMARK    8  A    between atoms: C_27  and  C_29
REMARK    9  A    between atoms: N_32  and  C_33
REMARK   10  A    between atoms: C_33  and  C_34
REMARK   11  A    between atoms: C_33  and  C_35
REMARK   12  A    between atoms: C_33  and  C_36
REMARK                            x       y       z     vdW  Elec       q    Type
REMARK                         _______ _______ _______ _____ _____    ______ ____
ROOT
ATOM      1  C   UNL     1      -0.083  -5.500   0.434  0.00  0.00    +0.247 C 
ATOM      2  O   UNL     1      -0.304  -5.964  -0.667  0.00  0.00    -0.270 OA
ATOM      3  N   UNL     1      -0.365  -6.220   1.538  0.00  0.00    -0.296 N 
ATOM      4  C   UNL     1      -0.288  -5.783   2.952  0.00  0.00    +0.121 C 
ATOM      5  C   UNL     1      -1.521  -6.426   3.626  0.00  0.00    +0.100 C 
ATOM      6  C   UNL     1      -1.865  -7.637   2.743  0.00  0.00    -0.004 C 
ATOM      7  C   UNL     1      -0.827  -7.627   1.611  0.00  0.00    +0.115 C 
ATOM      8  C   UNL     1      -1.755  -8.927   3.550  0.00  0.00    -0.010 C 
ATOM      9  C   UNL     1      -2.157 -10.112   2.667  0.00  0.00    -0.082 C 
ATOM     10  N   UNL     1      -3.533  -9.925   2.190  0.00  0.00    +0.379 N 
ATOM     11  C   UNL     1      -3.610  -8.732   1.338  0.00  0.00    -0.082 C 
ATOM     12  C   UNL     1      -3.269  -7.489   2.165  0.00  0.00    -0.010 C 
ATOM     13  H   UNL     1      -3.816 -10.735   1.659  0.00  0.00    -0.086 HD
ATOM     14  H   UNL     1      -4.149  -9.812   2.981  0.00  0.00    -0.086 HD
ENDROOT
BRANCH   1  19
ATOM     15  C   UNL     1       2.166  -0.225   0.941  0.00  0.00    +0.047 C 
ATOM     16  C   UNL     1       1.577  -1.606   0.808  0.00  0.00    -0.015 A 
ATOM     17  C   UNL     1       1.693  -2.508   1.850  0.00  0.00    +0.007 A 
ATOM     18  C   UNL     1       1.156  -3.774   1.735  0.00  0.00    +0.013 A 
ATOM     19  C   UNL     1       0.493  -4.144   0.563  0.00  0.00    +0.040 A 
ATOM     20  C   UNL     1       0.378  -3.231  -0.485  0.00  0.00    +0.051 A 
ATOM     21  C   UNL     1       0.915  -1.964  -0.356  0.00  0.00    +0.127 A 
ATOM     22  F   UNL     1       0.800  -1.076  -1.367  0.00  0.00    -0.205 F 
ENDBRANCH   1  19
BRANCH   5  23
ATOM     23  C   UNL     1      -2.671  -5.452   3.654  0.00  0.00    +0.219 C 
ATOM     24  O   UNL     1      -3.285  -5.269   4.684  0.00  0.00    -0.275 OA
ATOM     25  N   UNL     1      -3.016  -4.784   2.536  0.00  0.00    -0.303 N 
ATOM     26  H   UNL     1      -2.525  -4.930   1.712  0.00  0.00    +0.149 HD
BRANCH  25  27
ATOM     27  C   UNL     1      -4.134  -3.837   2.564  0.00  0.00    +0.161 C 
BRANCH  27  28
ATOM     28  C   UNL     1      -4.709  -3.699   1.178  0.00  0.00    +0.234 C 
ATOM     29  O   UNL     1      -4.074  -4.077   0.216  0.00  0.00    -0.274 OA
ATOM     30  N   UNL     1      -5.931  -3.155   1.006  0.00  0.00    -0.309 N 
ATOM     31  H   UNL     1      -6.412  -2.794   1.767  0.00  0.00    +0.149 HD
BRANCH  30  32
ATOM     32  C   UNL     1      -6.531  -3.108  -0.329  0.00  0.00    +0.026 C 
ATOM     33  C   UNL     1      -6.681  -4.531  -0.871  0.00  0.00    +0.031 C 
ATOM     34  C   UNL     1      -7.908  -2.446  -0.247  0.00  0.00    +0.031 C 
ATOM     35  C   UNL     1      -5.631  -2.298  -1.265  0.00  0.00    +0.031 C 
ENDBRANCH  30  32
ENDBRANCH  27  28
BRANCH  27  36
ATOM     36  C   UNL     1      -3.636  -2.474   3.047  0.00  0.00    +0.012 C 
ATOM     37  C   UNL     1      -3.173  -2.587   4.501  0.00  0.00    +0.009 C 
ATOM     38  C   UNL     1      -2.465  -2.019   2.174  0.00  0.00    +0.009 C 
ENDBRANCH  27  36
ENDBRANCH  25  27
ENDBRANCH   5  23
TORSDOF 6
