REMARK  Name = ZINC43252976
REMARK  7 active torsions:
REMARK  status: ('A' for Active; 'I' for Inactive)
REMARK    1  A    between atoms: C_6  and  C_7
REMARK    2  A    between atoms: C_7  and  C_8
REMARK    3  A    between atoms: C_8  and  N_9
REMARK    4  A    between atoms: C_10  and  C_12
REMARK    5  A    between atoms: C_12  and  N_13
REMARK    6  A    between atoms: C_14  and  C_32
REMARK    7  A    between atoms: N_23  and  C_26
REMARK                            x       y       z     vdW  Elec       q    Type
REMARK                         _______ _______ _______ _____ _____    ______ ____
ROOT
ATOM      1  N   UNL     1      -5.298  -3.195  -4.043  0.00  0.00    -0.170 NA
ATOM      2  C   UNL     1      -6.707  -3.697  -3.994  0.00  0.00    +0.130 C 
ATOM      3  C   UNL     1      -6.594  -5.127  -4.502  0.00  0.00    +0.139 C 
ATOM      4  C   UNL     1      -5.385  -4.916  -5.491  0.00  0.00    +0.241 C 
ATOM      5  O   UNL     1      -4.475  -4.250  -4.713  0.00  0.00    -0.282 OA
ATOM      6  C   UNL     1      -5.483  -6.107  -6.315  0.00  0.00    +0.254 C 
ATOM      7  O   UNL     1      -4.573  -6.729  -6.820  0.00  0.00    -0.272 OA
ATOM      8  N   UNL     1      -6.824  -6.378  -6.402  0.00  0.00    -0.236 N 
ATOM      9  C   UNL     1      -7.576  -5.673  -5.490  0.00  0.00    +0.230 C 
ATOM     10  O   UNL     1      -8.778  -5.518  -5.486  0.00  0.00    -0.275 OA
ENDROOT
BRANCH   2  11
ATOM     11  C   UNL     1      -7.594  -2.879  -4.897  0.00  0.00    -0.027 A 
ATOM     12  C   UNL     1      -8.928  -2.701  -4.580  0.00  0.00    +0.007 A 
ATOM     13  C   UNL     1      -9.741  -1.950  -5.408  0.00  0.00    +0.020 A 
ATOM     14  C   UNL     1      -9.220  -1.377  -6.555  0.00  0.00    +0.041 A 
ATOM     15  C   UNL     1      -7.885  -1.556  -6.872  0.00  0.00    +0.020 A 
ATOM     16  C   UNL     1      -7.072  -2.302  -6.040  0.00  0.00    +0.007 A 
ATOM     17 CL   UNL     1     -10.241  -0.435  -7.596  0.00  0.00    -0.084 Cl
ENDBRANCH   2  11
BRANCH   8  18
ATOM     18  C   UNL     1      -7.399  -7.328  -7.357  0.00  0.00    +0.084 C 
ATOM     19  C   UNL     1      -6.809  -8.719  -7.112  0.00  0.00    +0.023 C 
ATOM     20  C   UNL     1      -7.410  -9.711  -8.110  0.00  0.00    +0.002 C 
ATOM     21  C   UNL     1      -7.082  -9.262  -9.536  0.00  0.00    +0.000 C 
ATOM     22  C   UNL     1      -7.672  -7.872  -9.781  0.00  0.00    +0.002 C 
ATOM     23  C   UNL     1      -7.072  -6.879  -8.783  0.00  0.00    +0.023 C 
ENDBRANCH   8  18
BRANCH   1  24
ATOM     24  C   UNL     1      -4.794  -2.911  -2.693  0.00  0.00    +0.211 C 
BRANCH  24  26
ATOM     25  N   UNL     1      -2.811  -1.843  -1.671  0.00  0.00    -0.314 N 
ATOM     26  C   UNL     1      -3.466  -2.204  -2.791  0.00  0.00    +0.229 C 
ATOM     27  O   UNL     1      -2.988  -1.962  -3.879  0.00  0.00    -0.274 OA
ATOM     28  H   UNL     1      -3.193  -2.037  -0.801  0.00  0.00    +0.149 HD
BRANCH  25  29
ATOM     29  C   UNL     1      -1.520  -1.156  -1.766  0.00  0.00    +0.109 C 
BRANCH  29  30
ATOM     30  C   UNL     1      -0.994  -0.860  -0.360  0.00  0.00    +0.054 C 
BRANCH  30  36
ATOM     31  C   UNL     1       0.379   1.227  -0.515  0.00  0.00    +0.006 A 
ATOM     32  C   UNL     1       1.595   1.875  -0.606  0.00  0.00    +0.038 A 
ATOM     33  C   UNL     1       2.769   1.142  -0.639  0.00  0.00    +0.123 A 
ATOM     34  C   UNL     1       2.723  -0.240  -0.582  0.00  0.00    +0.038 A 
ATOM     35  C   UNL     1       1.505  -0.887  -0.492  0.00  0.00    +0.006 A 
ATOM     36  C   UNL     1       0.333  -0.154  -0.459  0.00  0.00    -0.046 A 
ATOM     37  F   UNL     1       3.960   1.776  -0.728  0.00  0.00    -0.205 F 
ENDBRANCH  30  36
ENDBRANCH  29  30
ENDBRANCH  25  29
ENDBRANCH  24  26
ENDBRANCH   1  24
TORSDOF 7
