REMARK  Name = ZINC01374457
REMARK  14 active torsions:
REMARK  status: ('A' for Active; 'I' for Inactive)
REMARK    1  A    between atoms: C_1  and  C_2
REMARK    2  A    between atoms: C_2  and  C_3
REMARK    3  A    between atoms: C_3  and  C_5
REMARK    4  A    between atoms: C_3  and  N_19
REMARK    5  A    between atoms: N_9  and  C_10
REMARK    6  A    between atoms: C_10  and  C_11
REMARK    7  A    between atoms: C_14  and  O_17
REMARK    8  A    between atoms: O_17  and  C_18
REMARK    9  A    between atoms: N_19  and  C_20
REMARK   10  A    between atoms: N_19  and  C_30
REMARK   11  A    between atoms: C_20  and  C_21
REMARK   12  A    between atoms: C_30  and  C_31
REMARK   13  A    between atoms: C_35  and  O_43
REMARK   14  A    between atoms: O_43  and  C_44
REMARK                            x       y       z     vdW  Elec       q    Type
REMARK                         _______ _______ _______ _____ _____    ______ ____
ROOT
ATOM      1  N   UNL     1       2.545  -0.342   1.122  0.00  0.00    -0.284 NA
ENDROOT
BRANCH   1   2
ATOM      2  C   UNL     1       1.424  -1.276   1.293  0.00  0.00    +0.127 C 
BRANCH   2   3
ATOM      3  C   UNL     1       1.948  -2.688   1.328  0.00  0.00    +0.169 A 
ATOM      4  N   UNL     1       2.843  -3.211   0.525  0.00  0.00    -0.112 NA
ATOM      5  N   UNL     1       3.023  -4.437   0.876  0.00  0.00    -0.023 NA
ATOM      6  N   UNL     1       2.267  -4.711   1.880  0.00  0.00    -0.044 NA
ATOM      7  N   UNL     1       1.592  -3.656   2.192  0.00  0.00    -0.223 N 
BRANCH   7   8
ATOM      8  C   UNL     1       0.618  -3.536   3.280  0.00  0.00    +0.182 C 
BRANCH   8   9
ATOM      9  C   UNL     1      -0.752  -3.902   2.771  0.00  0.00    -0.026 A 
ATOM     10  C   UNL     1      -1.571  -2.926   2.233  0.00  0.00    +0.009 A 
ATOM     11  C   UNL     1      -2.828  -3.259   1.766  0.00  0.00    +0.046 A 
ATOM     12  C   UNL     1      -3.268  -4.573   1.837  0.00  0.00    +0.120 A 
ATOM     13  C   UNL     1      -2.444  -5.550   2.376  0.00  0.00    +0.046 A 
ATOM     14  C   UNL     1      -1.186  -5.213   2.837  0.00  0.00    +0.009 A 
BRANCH  12  15
ATOM     15  O   UNL     1      -4.504  -4.902   1.378  0.00  0.00    -0.495 OA
ATOM     16  C   UNL     1      -4.890  -6.274   1.482  0.00  0.00    +0.277 C 
ENDBRANCH  12  15
ENDBRANCH   8   9
ENDBRANCH   7   8
ENDBRANCH   2   3
BRANCH   2  18
ATOM     17  C   UNL     1      -0.128   0.295   0.124  0.00  0.00    +0.006 C 
ATOM     18  C   UNL     1       0.450  -1.122   0.123  0.00  0.00    +0.023 C 
ENDBRANCH   2  18
ENDBRANCH   1   2
BRANCH   1  19
ATOM     19  C   UNL     1       2.967  -0.276  -0.283  0.00  0.00    +0.120 C 
BRANCH  19  20
ATOM     20  C   UNL     1       4.339   0.341  -0.368  0.00  0.00    -0.030 A 
ATOM     21  C   UNL     1       4.473   1.692  -0.631  0.00  0.00    +0.009 A 
ATOM     22  C   UNL     1       5.729   2.262  -0.709  0.00  0.00    +0.050 A 
ATOM     23  C   UNL     1       6.859   1.481  -0.524  0.00  0.00    +0.166 A 
ATOM     24  C   UNL     1       6.724   0.120  -0.260  0.00  0.00    +0.167 A 
ATOM     25  C   UNL     1       5.461  -0.444  -0.177  0.00  0.00    +0.054 A 
ATOM     26  O   UNL     1       7.968  -0.422  -0.119  0.00  0.00    -0.453 OA
ATOM     27  C   UNL     1       8.873   0.533  -0.703  0.00  0.00    +0.466 C 
ATOM     28  O   UNL     1       8.188   1.791  -0.549  0.00  0.00    -0.453 OA
ENDBRANCH  19  20
ENDBRANCH   1  19
BRANCH   1  29
ATOM     29  C   UNL     1       2.200   0.993   1.631  0.00  0.00    +0.126 C 
BRANCH  29  30
ATOM     30  C   UNL     1       2.280   0.993   3.136  0.00  0.00    +0.031 A 
ATOM     31  C   UNL     1       3.431   1.361   3.752  0.00  0.00    +0.020 A 
ATOM     32  C   UNL     1       3.476   1.350   5.215  0.00  0.00    +0.002 A 
ATOM     33  C   UNL     1       4.636   1.721   5.904  0.00  0.00    +0.055 A 
ATOM     34  C   UNL     1       4.644   1.700   7.284  0.00  0.00    +0.121 A 
ATOM     35  C   UNL     1       3.506   1.312   7.989  0.00  0.00    +0.047 A 
ATOM     36  C   UNL     1       2.359   0.945   7.321  0.00  0.00    +0.030 A 
ATOM     37  C   UNL     1       2.329   0.959   5.931  0.00  0.00    +0.049 A 
ATOM     38  N   UNL     1       1.189   0.595   5.244  0.00  0.00    -0.322 N 
ATOM     39  H   UNL     1       0.399   0.326   5.738  0.00  0.00    +0.169 HD
ATOM     40  C   UNL     1       1.155   0.614   3.900  0.00  0.00    +0.254 A 
ATOM     41  O   UNL     1       0.129   0.291   3.326  0.00  0.00    -0.268 OA
BRANCH  34  42
ATOM     42  O   UNL     1       5.768   2.058   7.960  0.00  0.00    -0.495 OA
ATOM     43  C   UNL     1       5.709   2.014   9.387  0.00  0.00    +0.277 C 
ENDBRANCH  34  42
ENDBRANCH  29  30
ENDBRANCH   1  29
TORSDOF 11
