REMARK  Name = ZINC64953178
REMARK  13 active torsions:
REMARK  status: ('A' for Active; 'I' for Inactive)
REMARK    1  A    between atoms: C_1  and  C_2
REMARK    2  A    between atoms: C_2  and  C_3
REMARK    3  A    between atoms: C_3  and  N_4
REMARK    4  A    between atoms: C_8  and  C_26
REMARK    5  A    between atoms: C_13  and  C_14
REMARK    6  A    between atoms: C_13  and  C_15
REMARK    7  A    between atoms: N_17  and  C_18
REMARK    8  A    between atoms: C_18  and  C_19
REMARK    9  A    between atoms: C_22  and  C_25
REMARK   10  A    between atoms: N_28  and  C_29
REMARK   11  A    between atoms: C_29  and  C_30
REMARK   12  A    between atoms: C_33  and  C_36
REMARK   13  A    between atoms: C_36  and  C_37
REMARK                            x       y       z     vdW  Elec       q    Type
REMARK                         _______ _______ _______ _____ _____    ______ ____
ROOT
ATOM      1  N   UNL     1       0.921  -2.119  -1.610  0.00  0.00    -0.281 N 
ATOM      2  C   UNL     1       1.967  -2.879  -1.205  0.00  0.00    +0.266 C 
ATOM      3  O   UNL     1       3.020  -2.385  -0.850  0.00  0.00    -0.268 OA
ATOM      4  C   UNL     1       1.758  -4.336  -1.220  0.00  0.00    +0.137 A 
ATOM      5  C   UNL     1       2.504  -5.376  -0.731  0.00  0.00    +0.155 A 
ATOM      6  N   UNL     1       1.825  -6.509  -1.009  0.00  0.00    -0.230 NA
ATOM      7  C   UNL     1       0.716  -6.212  -1.641  0.00  0.00    +0.200 A 
ATOM      8  N   UNL     1       0.635  -4.890  -1.803  0.00  0.00    -0.323 N 
ATOM      9  C   UNL     1      -0.376  -4.062  -2.462  0.00  0.00    +0.158 C 
ATOM     10  C   UNL     1      -0.411  -2.683  -1.795  0.00  0.00    +0.128 C 
ATOM     11  C   UNL     1      -1.090  -2.807  -0.430  0.00  0.00    +0.043 C 
ENDROOT
BRANCH  10  12
ATOM     12  C   UNL     1      -1.221  -1.748  -2.655  0.00  0.00    +0.238 C 
ATOM     13  O   UNL     1      -2.348  -1.443  -2.325  0.00  0.00    -0.273 OA
ATOM     14  N   UNL     1      -0.693  -1.249  -3.791  0.00  0.00    -0.309 N 
ATOM     15  H   UNL     1       0.178  -1.549  -4.093  0.00  0.00    +0.149 HD
BRANCH  14  16
ATOM     16  C   UNL     1      -1.436  -0.254  -4.568  0.00  0.00    +0.139 C 
BRANCH  16  17
ATOM     17  C   UNL     1      -0.632   0.137  -5.782  0.00  0.00    -0.030 A 
ATOM     18  C   UNL     1       0.260   1.190  -5.710  0.00  0.00    +0.005 A 
ATOM     19  C   UNL     1       0.997   1.548  -6.823  0.00  0.00    +0.003 A 
ATOM     20  C   UNL     1       0.842   0.853  -8.008  0.00  0.00    -0.050 A 
ATOM     21  C   UNL     1      -0.050  -0.201  -8.080  0.00  0.00    +0.003 A 
ATOM     22  C   UNL     1      -0.783  -0.562  -6.965  0.00  0.00    +0.005 A 
ATOM     23  C   UNL     1       1.645   1.244  -9.222  0.00  0.00    +0.044 C 
ENDBRANCH  16  17
ENDBRANCH  14  16
ENDBRANCH  10  12
BRANCH   5  24
ATOM     24  C   UNL     1       3.804  -5.277  -0.034  0.00  0.00    +0.265 C 
ATOM     25  O   UNL     1       4.311  -4.189   0.154  0.00  0.00    -0.268 OA
ATOM     26  N   UNL     1       4.426  -6.394   0.393  0.00  0.00    -0.306 N 
ATOM     27  H   UNL     1       4.021  -7.262   0.243  0.00  0.00    +0.149 HD
BRANCH  26  28
ATOM     28  C   UNL     1       5.714  -6.296   1.085  0.00  0.00    +0.140 C 
BRANCH  28  29
ATOM     29  C   UNL     1       6.192  -7.676   1.455  0.00  0.00    -0.030 A 
ATOM     30  C   UNL     1       5.837  -8.227   2.672  0.00  0.00    +0.005 A 
ATOM     31  C   UNL     1       6.275  -9.493   3.011  0.00  0.00    +0.004 A 
ATOM     32  C   UNL     1       7.068 -10.209   2.134  0.00  0.00    -0.048 A 
ATOM     33  C   UNL     1       7.423  -9.658   0.916  0.00  0.00    +0.004 A 
ATOM     34  C   UNL     1       6.981  -8.394   0.575  0.00  0.00    +0.005 A 
BRANCH  32  35
ATOM     35  C   UNL     1       7.547 -11.589   2.504  0.00  0.00    +0.032 C 
ATOM     36  C   UNL     1       6.529 -12.627   2.029  0.00  0.00    +0.009 C 
ENDBRANCH  32  35
ENDBRANCH  28  29
ENDBRANCH  26  28
ENDBRANCH   5  24
BRANCH   1  37
ATOM     37  C   UNL     1       1.131  -0.691  -1.862  0.00  0.00    +0.109 C 
BRANCH  37  39
ATOM     38  C   UNL     1       0.975   1.599  -0.876  0.00  0.00    +0.005 C 
ATOM     39  C   UNL     1       0.755   0.108  -0.612  0.00  0.00    +0.016 C 
ENDBRANCH  37  39
ENDBRANCH   1  37
TORSDOF 9
