REMARK  Name = ZINC20080695
REMARK  11 active torsions:
REMARK  status: ('A' for Active; 'I' for Inactive)
REMARK    1  A    between atoms: C_1  and  C_2
REMARK    2  A    between atoms: C_2  and  N_3
REMARK    3  A    between atoms: N_6  and  C_9
REMARK    4  A    between atoms: C_9  and  C_11
REMARK    5  A    between atoms: C_9  and  C_27
REMARK    6  A    between atoms: C_15  and  O_25
REMARK    7  A    between atoms: C_16  and  O_23
REMARK    8  A    between atoms: O_23  and  C_24
REMARK    9  A    between atoms: O_25  and  C_26
REMARK   10  A    between atoms: N_31  and  C_32
REMARK   11  A    between atoms: C_32  and  C_33
REMARK                            x       y       z     vdW  Elec       q    Type
REMARK                         _______ _______ _______ _____ _____    ______ ____
ROOT
ATOM      1  C   UNL     1       7.319   1.168  -0.062  0.00  0.00    +0.162 C 
ENDROOT
BRANCH   1   2
ATOM      2  C   UNL     1       6.010   1.914  -0.045  0.00  0.00    +0.042 A 
ATOM      3  C   UNL     1       4.840   1.226  -0.038  0.00  0.00    +0.021 A 
ATOM      4  C   UNL     1       3.586   1.979  -0.021  0.00  0.00    +0.003 A 
ATOM      5  C   UNL     1       2.349   1.322  -0.007  0.00  0.00    +0.059 A 
ATOM      6  C   UNL     1       1.186   2.059   0.002  0.00  0.00    +0.162 A 
ATOM      7  C   UNL     1       1.237   3.457   0.009  0.00  0.00    +0.163 A 
ATOM      8  C   UNL     1       2.452   4.115   0.001  0.00  0.00    +0.075 A 
ATOM      9  C   UNL     1       3.635   3.387  -0.014  0.00  0.00    +0.053 A 
ATOM     10  N   UNL     1       4.859   4.026  -0.023  0.00  0.00    -0.322 N 
ATOM     11  H   UNL     1       4.906   5.125  -0.017  0.00  0.00    +0.169 HD
ATOM     12  C   UNL     1       6.006   3.324  -0.037  0.00  0.00    +0.254 A 
ATOM     13  O   UNL     1       7.068   3.921  -0.045  0.00  0.00    -0.268 OA
BRANCH   7  14
ATOM     14  O   UNL     1       0.083   4.173   0.023  0.00  0.00    -0.491 OA
ATOM     15  C   UNL     1       0.203   5.597   0.030  0.00  0.00    +0.277 C 
ENDBRANCH   7  14
BRANCH   6  16
ATOM     16  O   UNL     1      -0.017   1.425   0.010  0.00  0.00    -0.491 OA
ATOM     17  C   UNL     1       0.002  -0.004   0.002  0.00  0.00    +0.277 C 
ENDBRANCH   6  16
ENDBRANCH   1   2
BRANCH   1  21
ATOM     18  N   UNL     1       9.521   1.309  -3.665  0.00  0.00    +0.381 N 
ATOM     19  C   UNL     1      10.255   1.470  -2.402  0.00  0.00    -0.063 C 
ATOM     20  C   UNL     1       9.414   0.914  -1.251  0.00  0.00    +0.067 C 
ATOM     21  N   UNL     1       8.127   1.622  -1.202  0.00  0.00    -0.292 NA
ATOM     22  C   UNL     1       7.392   1.461  -2.465  0.00  0.00    +0.067 C 
ATOM     23  C   UNL     1       8.234   2.017  -3.616  0.00  0.00    -0.063 C 
ATOM     24  H   UNL     1       9.315   0.238  -3.804  0.00  0.00    -0.082 HD
BRANCH  18  26
ATOM     25  C   UNL     1       9.643   1.355  -6.110  0.00  0.00    -0.017 C 
ATOM     26  C   UNL     1      10.329   1.763  -4.805  0.00  0.00    -0.082 C 
ENDBRANCH  18  26
ENDBRANCH   1  21
BRANCH   1  27
ATOM     27  C   UNL     1       8.066   1.434   1.220  0.00  0.00    +0.173 A 
ATOM     28  N   UNL     1       8.707   2.532   1.539  0.00  0.00    -0.111 NA
ATOM     29  N   UNL     1       9.210   2.371   2.714  0.00  0.00    -0.023 NA
ATOM     30  N   UNL     1       8.914   1.197   3.149  0.00  0.00    -0.044 NA
ATOM     31  N   UNL     1       8.209   0.588   2.257  0.00  0.00    -0.225 N 
BRANCH  31  32
ATOM     32  C   UNL     1       7.665  -0.769   2.354  0.00  0.00    +0.179 C 
BRANCH  32  33
ATOM     33  C   UNL     1       8.681  -1.767   1.794  0.00  0.00    +0.140 C 
ATOM     34  C   UNL     1       8.073  -3.185   1.786  0.00  0.00    +0.035 C 
ATOM     35  C   UNL     1       9.280  -4.064   2.211  0.00  0.00    +0.031 C 
ATOM     36  C   UNL     1      10.008  -3.111   3.192  0.00  0.00    +0.160 C 
ATOM     37  O   UNL     1       9.843  -1.799   2.631  0.00  0.00    -0.375 OA
ENDBRANCH  32  33
ENDBRANCH  31  32
ENDBRANCH   1  27
TORSDOF 8
