REMARK  Name = ZINC05345171
REMARK  2 active torsions:
REMARK  status: ('A' for Active; 'I' for Inactive)
REMARK    1  A    between atoms: C_3  and  N_23
REMARK    2  A    between atoms: C_6  and  C_7
REMARK                            x       y       z     vdW  Elec       q    Type
REMARK                         _______ _______ _______ _____ _____    ______ ____
ROOT
ATOM      1  C   UNL     1      -6.329  -0.107  -2.813  0.00  0.00    +0.182 A 
ATOM      2  N   UNL     1      -5.133   0.191  -2.296  0.00  0.00    -0.206 NA
ATOM      3  C   UNL     1      -5.256   0.410  -1.003  0.00  0.00    +0.168 A 
ATOM      4  C   UNL     1      -4.296   0.768   0.060  0.00  0.00    +0.055 A 
ATOM      5  C   UNL     1      -2.856   0.991  -0.039  0.00  0.00    -0.024 A 
ATOM      6  C   UNL     1      -2.205   1.310   1.101  0.00  0.00    -0.004 A 
ATOM      7  S   UNL     1      -3.459   1.333   2.353  0.00  0.00    -0.073 S 
ATOM      8  C   UNL     1      -4.854   0.912   1.341  0.00  0.00    +0.114 A 
ATOM      9  N   UNL     1      -6.151   0.737   1.568  0.00  0.00    -0.228 NA
ATOM     10  C   UNL     1      -6.985   0.419   0.617  0.00  0.00    +0.226 A 
ATOM     11  N   UNL     1      -6.570   0.251  -0.667  0.00  0.00    -0.201 N 
ATOM     12  N   UNL     1      -7.236  -0.082  -1.856  0.00  0.00    -0.143 NA
ATOM     13  C   UNL     1      -0.738   1.584   1.266  0.00  0.00    +0.043 C 
ATOM     14  C   UNL     1      -0.013   1.086   0.008  0.00  0.00    +0.005 C 
ATOM     15  C   UNL     1      -0.760   1.596  -1.228  0.00  0.00    +0.005 C 
ATOM     16  C   UNL     1      -2.101   0.874  -1.360  0.00  0.00    +0.037 C 
ENDROOT
BRANCH   1  22
ATOM     17  C   UNL     1      -5.550  -0.404  -5.163  0.00  0.00    +0.013 A 
ATOM     18  C   UNL     1      -5.798  -0.696  -6.487  0.00  0.00    +0.023 A 
ATOM     19  C   UNL     1      -7.090  -0.991  -6.904  0.00  0.00    +0.025 A 
ATOM     20  C   UNL     1      -8.135  -0.997  -5.987  0.00  0.00    +0.023 A 
ATOM     21  C   UNL     1      -7.890  -0.711  -4.661  0.00  0.00    +0.013 A 
ATOM     22  C   UNL     1      -6.595  -0.415  -4.240  0.00  0.00    +0.021 A 
BRANCH  19  23
ATOM     23  N   UNL     1      -7.340  -1.281  -8.246  0.00  0.00    -0.358 N 
ATOM     24  H   UNL     1      -8.242  -1.487  -8.538  0.00  0.00    +0.142 HD
ATOM     25  H   UNL     1      -6.612  -1.277  -8.887  0.00  0.00    +0.142 HD
ENDBRANCH  19  23
ENDBRANCH   1  22
TORSDOF 2
