REMARK  Name = ZINC20557922
REMARK  9 active torsions:
REMARK  status: ('A' for Active; 'I' for Inactive)
REMARK    1  A    between atoms: C_1  and  C_2
REMARK    2  A    between atoms: C_2  and  O_3
REMARK    3  A    between atoms: O_3  and  C_4
REMARK    4  A    between atoms: C_4  and  C_6
REMARK    5  A    between atoms: C_7  and  C_21
REMARK    6  A    between atoms: C_12  and  C_14
REMARK    7  A    between atoms: C_21  and  N_22
REMARK    8  A    between atoms: N_25  and  C_28
REMARK    9  A    between atoms: C_28  and  C_29
REMARK                            x       y       z     vdW  Elec       q    Type
REMARK                         _______ _______ _______ _____ _____    ______ ____
ROOT
ATOM      1  C   UNL     1       0.359   3.991   4.163  0.00  0.00    +0.079 C 
ATOM      2  C   UNL     1      -0.715   3.243   3.829  0.00  0.00    +0.038 C 
ATOM      3  N   UNL     1      -0.924   2.018   4.396  0.00  0.00    -0.271 N 
ATOM      4  C   UNL     1      -0.100   1.466   5.296  0.00  0.00    +0.304 C 
ATOM      5  O   UNL     1      -0.368   0.367   5.741  0.00  0.00    -0.252 OA
ATOM      6  N   UNL     1       1.012   2.092   5.729  0.00  0.00    -0.288 N 
ATOM      7  C   UNL     1       1.325   3.423   5.182  0.00  0.00    +0.144 C 
ATOM      8  H   UNL     1      -1.809   1.427   4.118  0.00  0.00    +0.156 HD
ATOM      9  H   UNL     1       1.680   1.631   6.472  0.00  0.00    +0.151 HD
ENDROOT
BRANCH   7  10
ATOM     10  C   UNL     1       2.688   3.353   4.542  0.00  0.00    -0.022 A 
ATOM     11  C   UNL     1       3.000   2.307   3.693  0.00  0.00    +0.008 A 
ATOM     12  C   UNL     1       4.247   2.245   3.101  0.00  0.00    +0.038 A 
ATOM     13  C   UNL     1       5.188   3.225   3.367  0.00  0.00    +0.123 A 
ATOM     14  C   UNL     1       4.877   4.269   4.222  0.00  0.00    +0.038 A 
ATOM     15  C   UNL     1       3.627   4.332   4.808  0.00  0.00    +0.008 A 
ATOM     16  F   UNL     1       6.410   3.162   2.794  0.00  0.00    -0.205 F 
ENDBRANCH   7  10
BRANCH   1  17
ATOM     17  C   UNL     1       0.574   5.262   3.580  0.00  0.00    +0.339 C 
ATOM     18  O   UNL     1      -0.146   5.648   2.678  0.00  0.00    -0.245 OA
BRANCH  17  19
ATOM     19  O   UNL     1       1.578   6.047   4.025  0.00  0.00    -0.462 OA
BRANCH  19  21
ATOM     20  C   UNL     1       2.917   8.059   4.024  0.00  0.00    +0.048 C 
ATOM     21  C   UNL     1       1.737   7.317   3.391  0.00  0.00    +0.229 C 
ENDBRANCH  19  21
ENDBRANCH  17  19
ENDBRANCH   1  17
BRANCH   2  22
ATOM     22  C   UNL     1      -1.701   3.771   2.820  0.00  0.00    +0.135 C 
BRANCH  22  23
ATOM     23  N   UNL     1      -1.217   3.481   1.464  0.00  0.00    -0.300 NA
ATOM     24  C   UNL     1      -1.334   2.048   1.158  0.00  0.00    +0.066 C 
ATOM     25  C   UNL     1      -0.747   1.776  -0.230  0.00  0.00    -0.063 C 
ATOM     26  N   UNL     1      -1.460   2.586  -1.228  0.00  0.00    +0.384 N 
ATOM     27  C   UNL     1      -1.343   4.018  -0.921  0.00  0.00    -0.063 C 
ATOM     28  C   UNL     1      -1.930   4.290   0.466  0.00  0.00    +0.066 C 
ATOM     29  H   UNL     1      -2.526   2.315  -1.186  0.00  0.00    -0.081 HD
BRANCH  26  30
ATOM     30  C   UNL     1      -0.976   2.296  -2.584  0.00  0.00    -0.043 C 
BRANCH  30  31
ATOM     31  C   UNL     1      -1.885   2.950  -3.592  0.00  0.00    -0.060 A 
ATOM     32  C   UNL     1      -1.623   4.238  -4.023  0.00  0.00    +0.005 A 
ATOM     33  C   UNL     1      -2.453   4.842  -4.949  0.00  0.00    +0.050 A 
ATOM     34  C   UNL     1      -3.551   4.158  -5.447  0.00  0.00    +0.166 A 
ATOM     35  C   UNL     1      -3.814   2.861  -5.013  0.00  0.00    +0.166 A 
ATOM     36  C   UNL     1      -2.974   2.260  -4.089  0.00  0.00    +0.051 A 
ATOM     37  O   UNL     1      -4.937   2.410  -5.644  0.00  0.00    -0.453 OA
ATOM     38  C   UNL     1      -5.124   3.287  -6.770  0.00  0.00    +0.466 C 
ATOM     39  O   UNL     1      -4.509   4.519  -6.350  0.00  0.00    -0.453 OA
ENDBRANCH  30  31
ENDBRANCH  26  30
ENDBRANCH  22  23
ENDBRANCH   2  22
TORSDOF 8
