REMARK  Name = ZINC42955829
REMARK  5 active torsions:
REMARK  status: ('A' for Active; 'I' for Inactive)
REMARK    1  A    between atoms: C_5  and  N_7
REMARK    2  A    between atoms: C_10  and  C_12
REMARK    3  A    between atoms: N_14  and  C_15
REMARK    4  A    between atoms: C_15  and  C_16
REMARK    5  A    between atoms: C_15  and  C_19
REMARK                            x       y       z     vdW  Elec       q    Type
REMARK                         _______ _______ _______ _____ _____    ______ ____
ROOT
ATOM      1  N   UNL     1       0.894  -3.821   2.736  0.00  0.00    -0.233 N 
ATOM      2  C   UNL     1       0.068  -4.902   2.788  0.00  0.00    +0.049 A 
ATOM      3  C   UNL     1       0.699  -5.912   2.151  0.00  0.00    +0.006 A 
ATOM      4  C   UNL     1       1.936  -5.381   1.718  0.00  0.00    +0.151 A 
ATOM      5  N   UNL     1       1.972  -4.121   2.104  0.00  0.00    -0.161 NA
ATOM      6  C   UNL     1      -0.153  -7.158   2.163  0.00  0.00    +0.040 C 
ATOM      7  C   UNL     1      -1.211  -6.908   3.261  0.00  0.00    +0.011 C 
ATOM      8  C   UNL     1      -1.279  -5.365   3.295  0.00  0.00    +0.056 C 
ENDROOT
BRANCH   1  13
ATOM      9  C   UNL     1      -0.874  -1.112   4.488  0.00  0.00    +0.002 A 
ATOM     10  C   UNL     1       0.040  -0.081   4.369  0.00  0.00    +0.003 A 
ATOM     11  C   UNL     1       1.238  -0.287   3.710  0.00  0.00    +0.040 A 
ATOM     12  C   UNL     1       1.525  -1.527   3.167  0.00  0.00    +0.149 A 
ATOM     13  C   UNL     1       0.607  -2.564   3.285  0.00  0.00    +0.101 A 
ATOM     14  C   UNL     1      -0.594  -2.352   3.948  0.00  0.00    +0.031 A 
ATOM     15  F   UNL     1       2.695  -1.728   2.523  0.00  0.00    -0.203 F 
ENDBRANCH   1  13
BRANCH   4  16
ATOM     16  C   UNL     1       2.987  -6.101   0.971  0.00  0.00    +0.265 C 
ATOM     17  O   UNL     1       2.827  -7.268   0.670  0.00  0.00    -0.268 OA
ATOM     18  N   UNL     1       4.122  -5.464   0.623  0.00  0.00    -0.291 N 
ATOM     19  H   UNL     1       4.249  -4.533   0.863  0.00  0.00    +0.150 HD
BRANCH  18  20
ATOM     20  C   UNL     1       5.165  -6.178  -0.119  0.00  0.00    +0.245 C 
BRANCH  20  21
ATOM     21  C   UNL     1       4.856  -6.129  -1.593  0.00  0.00    +0.240 C 
ATOM     22  O   UNL     1       4.189  -5.221  -2.043  0.00  0.00    -0.273 OA
ATOM     23  N   UNL     1       5.320  -7.094  -2.412  0.00  0.00    -0.327 N 
ATOM     24  H   UNL     1       5.791  -7.857  -2.043  0.00  0.00    +0.145 HD
ATOM     25  H   UNL     1       5.183  -7.025  -3.370  0.00  0.00    +0.145 HD
ENDBRANCH  20  21
BRANCH  20  26
ATOM     26  C   UNL     1       6.499  -5.526   0.136  0.00  0.00    +0.240 C 
ATOM     27  O   UNL     1       6.551  -4.363   0.477  0.00  0.00    -0.273 OA
ATOM     28  N   UNL     1       7.635  -6.236  -0.013  0.00  0.00    -0.327 N 
ATOM     29  H   UNL     1       7.592  -7.183  -0.216  0.00  0.00    +0.145 HD
ATOM     30  H   UNL     1       8.496  -5.799   0.082  0.00  0.00    +0.145 HD
ENDBRANCH  20  26
ENDBRANCH  18  20
ENDBRANCH   4  16
TORSDOF 5
