REMARK  Name = ZINC12150497
REMARK  11 active torsions:
REMARK  status: ('A' for Active; 'I' for Inactive)
REMARK    1  A    between atoms: C_1  and  C_2
REMARK    2  A    between atoms: C_2  and  C_3
REMARK    3  A    between atoms: C_3  and  C_4
REMARK    4  A    between atoms: C_4  and  C_19
REMARK    5  A    between atoms: N_7  and  C_11
REMARK    6  A    between atoms: C_11  and  C_12
REMARK    7  A    between atoms: C_12  and  C_13
REMARK    8  A    between atoms: C_18  and  N_71
REMARK    9  A    between atoms: C_24  and  C_25
REMARK   10  A    between atoms: C_24  and  N_73
REMARK   11  A    between atoms: C_29  and  C_31
REMARK                            x       y       z     vdW  Elec       q    Type
REMARK                         _______ _______ _______ _____ _____    ______ ____
ROOT
ATOM      1  C   UNL     1       3.954  -2.262  -0.438  0.00  0.00    +0.115 C 
ATOM      2  C   UNL     1       2.847  -1.226  -0.479  0.00  0.00    +0.247 C 
ATOM      3  O   UNL     1       2.701  -0.343  -1.297  0.00  0.00    -0.273 OA
ATOM      4  N   UNL     1       2.061  -1.491   0.583  0.00  0.00    -0.224 N 
ATOM      5  C   UNL     1       2.508  -2.543   1.278  0.00  0.00    +0.309 C 
ATOM      6  O   UNL     1       1.963  -2.974   2.275  0.00  0.00    -0.252 OA
ATOM      7  N   UNL     1       3.627  -3.069   0.750  0.00  0.00    -0.285 N 
ATOM      8  H   UNL     1       4.123  -3.833   1.086  0.00  0.00    +0.151 HD
ENDROOT
BRANCH   1   9
ATOM      9  C   UNL     1       3.925  -3.125  -1.701  0.00  0.00    +0.018 C 
ATOM     10  C   UNL     1       4.363  -2.287  -2.904  0.00  0.00    -0.013 C 
ATOM     11  C   UNL     1       4.274  -3.138  -4.173  0.00  0.00    -0.078 C 
ATOM     12  C   UNL     1       2.466  -4.451  -3.233  0.00  0.00    -0.078 C 
ATOM     13  C   UNL     1       2.501  -3.639  -1.937  0.00  0.00    -0.013 C 
ATOM     14  N   UNL     1       2.875  -3.580  -4.356  0.00  0.00    +0.382 N 
ATOM     15  H   UNL     1       2.264  -2.755  -4.377  0.00  0.00    -0.081 HD
BRANCH  14  16
ATOM     16  C   UNL     1       2.740  -4.309  -5.635  0.00  0.00    -0.043 C 
BRANCH  16  17
ATOM     17  C   UNL     1       2.949  -3.340  -6.770  0.00  0.00    -0.063 A 
ATOM     18  C   UNL     1       1.875  -2.646  -7.294  0.00  0.00    +0.002 A 
ATOM     19  C   UNL     1       2.068  -1.754  -8.332  0.00  0.00    +0.001 A 
ATOM     20  C   UNL     1       3.334  -1.563  -8.852  0.00  0.00    +0.012 A 
ATOM     21  C   UNL     1       4.408  -2.261  -8.332  0.00  0.00    +0.055 A 
ATOM     22  C   UNL     1       4.215  -3.150  -7.291  0.00  0.00    +0.014 A 
BRANCH  21  23
ATOM     23  C   UNL     1       5.788  -2.054  -8.900  0.00  0.00    +0.417 C 
ATOM     24  F   UNL     1       6.004  -2.961  -9.944  0.00  0.00    -0.166 F 
ATOM     25  F   UNL     1       5.900  -0.747  -9.388  0.00  0.00    -0.166 F 
ATOM     26  F   UNL     1       6.741  -2.260  -7.897  0.00  0.00    -0.166 F 
ENDBRANCH  21  23
ENDBRANCH  16  17
ENDBRANCH  14  16
ENDBRANCH   1   9
BRANCH   1  27
ATOM     27  C   UNL     1       5.319  -1.591  -0.274  0.00  0.00    +0.035 C 
BRANCH  27  29
ATOM     28  C   UNL     1       6.706  -0.120   1.194  0.00  0.00    +0.004 C 
ATOM     29  C   UNL     1       5.341  -0.791   1.030  0.00  0.00    -0.001 C 
ENDBRANCH  27  29
ENDBRANCH   1  27
BRANCH   4  30
ATOM     30  C   UNL     1       0.861  -0.724   0.929  0.00  0.00    +0.116 C 
BRANCH  30  31
ATOM     31  C   UNL     1       1.242   0.422   1.867  0.00  0.00    +0.004 C 
BRANCH  31  32
ATOM     32  C   UNL     1       0.015   1.298   2.128  0.00  0.00    -0.068 C 
ATOM     33  C   UNL     1      -1.050   0.492   2.903  0.00  0.00    -0.017 C 
ATOM     34  C   UNL     1      -1.632   1.540   3.888  0.00  0.00    -0.020 C 
ATOM     35  C   UNL     1      -0.376   2.378   4.232  0.00  0.00    -0.079 C 
ATOM     36  C   UNL     1       1.835   2.464   3.228  0.00  0.00    -0.096 C 
ATOM     37  N   UNL     1       0.372   2.458   2.964  0.00  0.00    +0.380 N 
ATOM     38  H   UNL     1       0.116   3.322   2.474  0.00  0.00    -0.082 HD
ENDBRANCH  31  32
ENDBRANCH  30  31
ENDBRANCH   4  30
TORSDOF 9
