REMARK  Name = ZINC07420133
REMARK  2 active torsions:
REMARK  status: ('A' for Active; 'I' for Inactive)
REMARK    1  A    between atoms: N_14  and  S_15
REMARK    2  A    between atoms: S_15  and  C_18
REMARK                            x       y       z     vdW  Elec       q    Type
REMARK                         _______ _______ _______ _____ _____    ______ ____
ROOT
ATOM      1  C   UNL     1       1.152   3.170   0.008  0.00  0.00    +0.001 A 
ATOM      2  C   UNL     1       1.156   1.778   0.001  0.00  0.00    +0.001 A 
ATOM      3  C   UNL     1      -0.013   1.076   0.008  0.00  0.00    +0.010 A 
ATOM      4  C   UNL     1      -1.232   1.764   0.018  0.00  0.00    +0.009 A 
ATOM      5  C   UNL     1      -1.242   3.175   0.031  0.00  0.00    -0.016 A 
ATOM      6  C   UNL     1      -0.018   3.868   0.022  0.00  0.00    +0.008 A 
ATOM      7  C   UNL     1      -2.463   3.879   0.046  0.00  0.00    +0.010 A 
ATOM      8  C   UNL     1      -3.639   3.197   0.054  0.00  0.00    +0.018 A 
ATOM      9  C   UNL     1      -3.670   1.815   0.048  0.00  0.00    +0.041 A 
ATOM     10  C   UNL     1      -2.508   1.022   0.033  0.00  0.00    +0.088 A 
ATOM     11  N   UNL     1      -2.703  -0.310   0.028  0.00  0.00    -0.223 NA
ATOM     12  C   UNL     1      -3.903  -0.848   0.037  0.00  0.00    +0.179 A 
ATOM     13  S   UNL     1      -4.960   0.593   0.054  0.00  0.00    -0.051 S 
ATOM     14  N   UNL     1      -4.255  -2.183   0.034  0.00  0.00    -0.194 N 
ATOM     15  H   UNL     1      -3.567  -2.867   0.024  0.00  0.00    +0.176 HD
ENDROOT
BRANCH  14  16
ATOM     16  S   UNL     1      -5.853  -2.618   0.046  0.00  0.00    +0.074 S 
ATOM     17  O   UNL     1      -5.888  -4.038   0.013  0.00  0.00    -0.150 OA
ATOM     18  O   UNL     1      -6.471  -1.865   1.081  0.00  0.00    -0.150 OA
BRANCH  16  19
ATOM     19  C   UNL     1      -6.557  -2.061  -1.470  0.00  0.00    +0.109 A 
ATOM     20  C   UNL     1      -6.552  -2.889  -2.578  0.00  0.00    +0.030 A 
ATOM     21  C   UNL     1      -7.102  -2.456  -3.768  0.00  0.00    +0.025 A 
ATOM     22  C   UNL     1      -7.661  -1.188  -3.851  0.00  0.00    +0.037 A 
ATOM     23  C   UNL     1      -7.665  -0.359  -2.737  0.00  0.00    -0.024 A 
ATOM     24  C   UNL     1      -7.118  -0.800  -1.548  0.00  0.00    +0.034 A 
ATOM     25  C   UNL     1      -8.271   1.017  -2.828  0.00  0.00    +0.046 C 
ATOM     26  C   UNL     1      -8.037   1.587  -4.227  0.00  0.00    +0.101 C 
ATOM     27  C   UNL     1      -8.423   0.570  -5.266  0.00  0.00    +0.218 C 
ATOM     28  O   UNL     1      -8.923   0.938  -6.308  0.00  0.00    -0.275 OA
ATOM     29  N   UNL     1      -8.221  -0.743  -5.053  0.00  0.00    -0.285 N 
ATOM     30  H   UNL     1      -8.464  -1.386  -5.738  0.00  0.00    +0.155 HD
ENDBRANCH  16  19
ENDBRANCH  14  16
TORSDOF 2
