REMARK  Name = ZINC40364825
REMARK  6 active torsions:
REMARK  status: ('A' for Active; 'I' for Inactive)
REMARK    1  A    between atoms: C_1  and  C_2
REMARK    2  A    between atoms: C_2  and  C_3
REMARK    3  A    between atoms: C_6  and  C_9
REMARK    4  A    between atoms: C_6  and  N_11
REMARK    5  A    between atoms: N_11  and  S_12
REMARK    6  A    between atoms: S_12  and  C_15
REMARK                            x       y       z     vdW  Elec       q    Type
REMARK                         _______ _______ _______ _____ _____    ______ ____
ROOT
ATOM      1  C   UNL     1      -1.433  -0.534   0.013  0.00  0.00    -0.011 C 
ATOM      2  C   UNL     1      -2.110  -0.145   1.329  0.00  0.00    +0.006 C 
ATOM      3  C   UNL     1      -3.546  -0.675   1.340  0.00  0.00    +0.039 C 
ATOM      4  C   UNL     1      -3.528  -2.199   1.206  0.00  0.00    +0.125 C 
ATOM      5  C   UNL     1      -2.851  -2.587  -0.110  0.00  0.00    +0.039 C 
ATOM      6  C   UNL     1      -1.416  -2.058  -0.121  0.00  0.00    +0.006 C 
ENDROOT
BRANCH   1   8
ATOM      7  C   UNL     1      -0.019   1.526   0.010  0.00  0.00    +0.004 C 
ATOM      8  C   UNL     1       0.002  -0.004   0.002  0.00  0.00    -0.000 C 
ENDBRANCH   1   8
BRANCH   4   9
ATOM      9  C   UNL     1      -2.781  -2.782   2.332  0.00  0.00    +0.086 C 
ATOM     10  N   UNL     1      -2.205  -3.232   3.202  0.00  0.00    -0.195 NA
ENDBRANCH   4   9
BRANCH   4  11
ATOM     11  N   UNL     1      -4.902  -2.706   1.216  0.00  0.00    -0.175 NA
ATOM     12  H   UNL     1      -5.646  -2.089   1.300  0.00  0.00    +0.149 HD
BRANCH  11  13
ATOM     13  S   UNL     1      -5.186  -4.332   1.085  0.00  0.00    +0.028 S 
ATOM     14  O   UNL     1      -6.601  -4.456   1.106  0.00  0.00    -0.158 OA
ATOM     15  O   UNL     1      -4.440  -4.740  -0.053  0.00  0.00    -0.158 OA
ATOM     16  C   UNL     1      -4.473  -5.052   2.590  0.00  0.00    +0.214 C 
ENDBRANCH  11  13
ENDBRANCH   4  11
TORSDOF 4
