REMARK  Name = ZINC06659059
REMARK  2 active torsions:
REMARK  status: ('A' for Active; 'I' for Inactive)
REMARK    1  A    between atoms: N_10  and  N_11
REMARK    2  A    between atoms: N_11  and  C_12
REMARK                            x       y       z     vdW  Elec       q    Type
REMARK                         _______ _______ _______ _____ _____    ______ ____
ROOT
ATOM      1  C   UNL     1      -0.017   1.374   0.010  0.00  0.00    +0.001 A 
ATOM      2  C   UNL     1       1.173   2.085   0.002  0.00  0.00    +0.004 A 
ATOM      3  C   UNL     1       2.385   1.427  -0.020  0.00  0.00    +0.047 A 
ATOM      4  C   UNL     1       2.427   0.036  -0.032  0.00  0.00    +0.143 A 
ATOM      5  C   UNL     1       1.223  -0.679  -0.012  0.00  0.00    +0.066 A 
ATOM      6  C   UNL     1       0.002  -0.004   0.002  0.00  0.00    +0.015 A 
ATOM      7  C   UNL     1       1.252  -2.162   0.013  0.00  0.00    +0.223 C 
ATOM      8  O   UNL     1       0.257  -2.836   0.204  0.00  0.00    -0.285 OA
ATOM      9  C   UNL     1       2.598  -2.761  -0.214  0.00  0.00    +0.213 C 
ATOM     10  N   UNL     1       2.780  -3.943  -0.774  0.00  0.00    -0.171 NA
ATOM     11  C   UNL     1       3.715  -1.896   0.250  0.00  0.00    +0.368 C 
ATOM     12  O   UNL     1       4.651  -2.342   0.884  0.00  0.00    -0.243 OA
ATOM     13  O   UNL     1       3.630  -0.585  -0.073  0.00  0.00    -0.420 OA
ENDROOT
BRANCH  10  14
ATOM     14  N   UNL     1       3.974  -4.401  -0.941  0.00  0.00    -0.237 N 
ATOM     15  H   UNL     1       4.739  -3.876  -0.655  0.00  0.00    +0.174 HD
BRANCH  14  16
ATOM     16  C   UNL     1       4.167  -5.649  -1.532  0.00  0.00    +0.048 A 
ATOM     17  C   UNL     1       3.073  -6.400  -1.947  0.00  0.00    +0.026 A 
ATOM     18  C   UNL     1       3.267  -7.635  -2.532  0.00  0.00    +0.017 A 
ATOM     19  C   UNL     1       4.549  -8.127  -2.704  0.00  0.00    +0.018 A 
ATOM     20  C   UNL     1       5.641  -7.383  -2.292  0.00  0.00    +0.017 A 
ATOM     21  C   UNL     1       5.454  -6.144  -1.712  0.00  0.00    +0.026 A 
ATOM     22 BR   UNL     1       4.810  -9.821  -3.504  0.00  0.00    -0.050 Br
ENDBRANCH  14  16
ENDBRANCH  10  14
TORSDOF 2
