REMARK  Name = ZINC43742811
REMARK  8 active torsions:
REMARK  status: ('A' for Active; 'I' for Inactive)
REMARK    1  A    between atoms: C_1  and  C_2
REMARK    2  A    between atoms: C_5  and  O_35
REMARK    3  A    between atoms: C_6  and  C_8
REMARK    4  A    between atoms: N_9  and  C_10
REMARK    5  A    between atoms: C_10  and  C_11
REMARK    6  A    between atoms: C_11  and  O_34
REMARK    7  A    between atoms: C_16  and  C_33
REMARK    8  A    between atoms: C_27  and  C_32
REMARK                            x       y       z     vdW  Elec       q    Type
REMARK                         _______ _______ _______ _____ _____    ______ ____
ROOT
ATOM      1  C   UNL     1      -1.480  -5.568   3.795  0.00  0.00    +0.089 C 
ATOM      2  C   UNL     1      -2.616  -4.534   3.681  0.00  0.00    +0.037 C 
ATOM      3  C   UNL     1      -3.401  -4.593   5.012  0.00  0.00    +0.007 C 
ATOM      4  C   UNL     1      -2.380  -5.176   6.006  0.00  0.00    +0.001 C 
ATOM      5  C   UNL     1      -1.646  -6.248   5.181  0.00  0.00    +0.001 C 
ATOM      6  C   UNL     1      -2.542  -7.470   4.965  0.00  0.00    +0.010 C 
ATOM      7  C   UNL     1      -3.057  -8.005   6.299  0.00  0.00    +0.005 C 
ATOM      8  C   UNL     1      -3.916  -6.922   6.960  0.00  0.00    -0.001 C 
ATOM      9  C   UNL     1      -3.031  -5.730   7.249  0.00  0.00    -0.004 C 
ATOM     10  C   UNL     1      -3.873  -4.653   7.938  0.00  0.00    +0.004 C 
ATOM     11  C   UNL     1      -4.453  -5.212   9.238  0.00  0.00    +0.004 C 
ATOM     12  C   UNL     1      -5.331  -6.426   8.926  0.00  0.00    -0.005 C 
ATOM     13  C   UNL     1      -4.508  -7.472   8.260  0.00  0.00    -0.026 C 
ATOM     14  C   UNL     1      -5.400  -8.675   7.945  0.00  0.00    +0.007 C 
ATOM     15  C   UNL     1      -6.532  -8.240   7.013  0.00  0.00    +0.001 C 
ATOM     16  C   UNL     1      -7.365  -7.152   7.694  0.00  0.00    +0.000 C 
ATOM     17  C   UNL     1      -6.473  -6.005   7.998  0.00  0.00    +0.004 C 
ATOM     18  C   UNL     1      -3.376  -7.907   9.193  0.00  0.00    +0.012 C 
ATOM     19  C   UNL     1      -0.298  -6.621   5.801  0.00  0.00    +0.014 C 
ENDROOT
BRANCH   1  20
ATOM     20  O   UNL     1      -1.594  -6.541   2.755  0.00  0.00    -0.386 OA
ATOM     21  H   UNL     1      -1.511  -6.175   1.863  0.00  0.00    +0.210 HD
ENDBRANCH   1  20
BRANCH   1  22
ATOM     22  C   UNL     1      -0.122  -4.868   3.713  0.00  0.00    +0.147 C 
BRANCH  22  24
ATOM     23  C   UNL     1       0.053  -2.840   2.458  0.00  0.00    +0.090 C 
ATOM     24  N   UNL     1      -0.028  -4.132   2.450  0.00  0.00    -0.387 N 
ATOM     25  H   UNL     1      -0.025  -4.613   1.607  0.00  0.00    +0.159 HD
BRANCH  23  31
ATOM     26  C   UNL     1      -0.053   1.502   0.010  0.00  0.00    +0.044 C 
ATOM     27  C   UNL     1      -0.014  -0.004   0.002  0.00  0.00    -0.050 A 
ATOM     28  C   UNL     1       0.007  -0.687  -1.203  0.00  0.00    +0.007 A 
ATOM     29  C   UNL     1       0.042  -2.067  -1.224  0.00  0.00    +0.046 A 
ATOM     30  C   UNL     1       0.058  -2.780  -0.035  0.00  0.00    +0.125 A 
ATOM     31  C   UNL     1       0.037  -2.094   1.187  0.00  0.00    +0.032 A 
ATOM     32  C   UNL     1       0.006  -0.697   1.194  0.00  0.00    +0.016 A 
BRANCH  30  33
ATOM     33  O   UNL     1       0.092  -4.137  -0.053  0.00  0.00    -0.506 OA
ATOM     34  H   UNL     1       0.985  -4.508  -0.057  0.00  0.00    +0.292 HD
ENDBRANCH  30  33
ENDBRANCH  23  31
ENDBRANCH  22  24
ENDBRANCH   1  22
TORSDOF 5
