REMARK  Name = ZINC11592306
REMARK  5 active torsions:
REMARK  status: ('A' for Active; 'I' for Inactive)
REMARK    1  A    between atoms: C_15  and  C_17
REMARK    2  A    between atoms: C_17  and  S_18
REMARK    3  A    between atoms: S_18  and  C_19
REMARK    4  A    between atoms: C_22  and  C_25
REMARK    5  A    between atoms: N_23  and  N_24
REMARK                            x       y       z     vdW  Elec       q    Type
REMARK                         _______ _______ _______ _____ _____    ______ ____
ROOT
ATOM      1  C   UNL     1       6.609  13.705  -0.397  0.00  0.00    +0.002 A 
ATOM      2  C   UNL     1       6.286  14.966   0.069  0.00  0.00    +0.001 A 
ATOM      3  C   UNL     1       4.998  15.238   0.495  0.00  0.00    +0.017 A 
ATOM      4  C   UNL     1       4.037  14.245   0.451  0.00  0.00    +0.035 A 
ATOM      5  C   UNL     1       4.358  12.969  -0.019  0.00  0.00    +0.055 A 
ATOM      6  C   UNL     1       5.652  12.707  -0.442  0.00  0.00    +0.025 A 
ATOM      7  N   UNL     1       3.383  11.964  -0.063  0.00  0.00    -0.237 N 
ATOM      8  C   UNL     1       2.055  12.239  -0.413  0.00  0.00    +0.055 A 
ATOM      9  C   UNL     1       1.328  11.339  -1.171  0.00  0.00    +0.025 A 
ATOM     10  C   UNL     1       0.016  11.619  -1.509  0.00  0.00    +0.002 A 
ATOM     11  C   UNL     1      -0.580  12.794  -1.091  0.00  0.00    +0.001 A 
ATOM     12  C   UNL     1       0.135  13.700  -0.327  0.00  0.00    +0.017 A 
ATOM     13  C   UNL     1       1.447  13.425   0.014  0.00  0.00    +0.035 A 
ATOM     14  S   UNL     1       2.385  14.562   0.987  0.00  0.00    -0.086 S 
ATOM     15  C   UNL     1       3.734  10.697   0.235  0.00  0.00    +0.234 C 
ATOM     16  O   UNL     1       4.862  10.452   0.609  0.00  0.00    -0.274 OA
ENDROOT
BRANCH  15  17
ATOM     17  C   UNL     1       2.726   9.585   0.102  0.00  0.00    +0.174 C 
BRANCH  17  18
ATOM     18  S   UNL     1       3.290   8.144   1.040  0.00  0.00    -0.075 S 
BRANCH  18  19
ATOM     19  C   UNL     1       1.962   7.031   0.719  0.00  0.00    +0.209 A 
ATOM     20  N   UNL     1       0.901   7.276  -0.015  0.00  0.00    -0.121 NA
ATOM     21  N   UNL     1       0.135   6.245  -0.044  0.00  0.00    -0.126 NA
ATOM     22  C   UNL     1       0.657   5.277   0.678  0.00  0.00    +0.188 A 
ATOM     23  N   UNL     1       1.846   5.751   1.186  0.00  0.00    -0.223 N 
BRANCH  22  24
ATOM     24  C   UNL     1       0.083   3.940   0.896  0.00  0.00    +0.058 A 
ATOM     25  C   UNL     1      -1.195   3.499   0.662  0.00  0.00    +0.019 A 
ATOM     26  C   UNL     1      -1.503   2.187   0.943  0.00  0.00    +0.008 A 
ATOM     27  C   UNL     1      -0.539   1.374   1.448  0.00  0.00    +0.046 A 
ATOM     28  S   UNL     1       0.868   2.468   1.533  0.00  0.00    -0.093 S 
ENDBRANCH  22  24
BRANCH  23  29
ATOM     29  N   UNL     1       2.727   5.082   1.988  0.00  0.00    -0.295 N 
ATOM     30  H   UNL     1       3.412   4.586   1.438  0.00  0.00    +0.163 HD
ATOM     31  H   UNL     1       3.172   5.710   2.640  0.00  0.00    +0.163 HD
ENDBRANCH  23  29
ENDBRANCH  18  19
ENDBRANCH  17  18
ENDBRANCH  15  17
TORSDOF 5
