REMARK  Name = ZINC44164812
REMARK  15 active torsions:
REMARK  status: ('A' for Active; 'I' for Inactive)
REMARK    1  A    between atoms: C_1  and  C_2
REMARK    2  A    between atoms: C_2  and  C_3
REMARK    3  A    between atoms: C_8  and  C_9
REMARK    4  A    between atoms: C_14  and  C_17
REMARK    5  A    between atoms: N_19  and  C_20
REMARK    6  A    between atoms: C_20  and  C_21
REMARK    7  A    between atoms: C_21  and  C_22
REMARK    8  A    between atoms: C_22  and  O_23
REMARK    9  A    between atoms: O_23  and  C_24
REMARK   10  A    between atoms: C_24  and  C_25
REMARK   11  A    between atoms: C_24  and  C_26
REMARK   12  A    between atoms: C_27  and  C_33
REMARK   13  A    between atoms: C_27  and  C_34
REMARK   14  A    between atoms: C_30  and  C_31
REMARK   15  A    between atoms: C_30  and  C_32
REMARK                            x       y       z     vdW  Elec       q    Type
REMARK                         _______ _______ _______ _____ _____    ______ ____
ROOT
ATOM      1  C   UNL     1       2.875  -0.311   0.219  0.00  0.00    -0.030 C 
ATOM      2  C   UNL     1       2.924   1.209   0.413  0.00  0.00    +0.058 C 
ATOM      3  S   UNL     1       3.689   1.552   2.029  0.00  0.00    -0.163 S 
ATOM      4  C   UNL     1       5.199   0.537   1.978  0.00  0.00    +0.062 C 
ATOM      5  C   UNL     1       4.810  -0.882   1.549  0.00  0.00    +0.027 C 
ATOM      6  N   UNL     1       4.235  -0.854   0.202  0.00  0.00    +0.392 N 
ATOM      7  H   UNL     1       4.212  -1.792  -0.167  0.00  0.00    -0.084 HD
ATOM      8  H   UNL     1       4.812  -0.279  -0.393  0.00  0.00    -0.084 HD
ENDROOT
BRANCH   1  14
ATOM      9  C   UNL     1       0.815  -0.706  -1.151  0.00  0.00    -0.046 A 
ATOM     10  C   UNL     1       0.199  -0.993  -2.351  0.00  0.00    +0.008 A 
ATOM     11  C   UNL     1       0.953  -1.207  -3.498  0.00  0.00    -0.038 A 
ATOM     12  C   UNL     1       2.326  -1.129  -3.435  0.00  0.00    -0.038 A 
ATOM     13  C   UNL     1       2.945  -0.843  -2.225  0.00  0.00    +0.006 A 
ATOM     14  C   UNL     1       2.194  -0.627  -1.088  0.00  0.00    -0.057 A 
ATOM     15  C   UNL     1       3.205  -1.333  -4.641  0.00  0.00    -0.010 C 
ATOM     16  C   UNL     1       2.436  -2.045  -5.752  0.00  0.00    +0.012 C 
ATOM     17  C   UNL     1       1.118  -1.297  -5.984  0.00  0.00    +0.012 C 
ATOM     18  C   UNL     1       0.216  -1.523  -4.773  0.00  0.00    -0.010 C 
ATOM     19  C   UNL     1      -0.235  -2.985  -4.745  0.00  0.00    +0.016 C 
ATOM     20  C   UNL     1      -1.013  -0.619  -4.883  0.00  0.00    +0.016 C 
ATOM     21  C   UNL     1       3.686   0.027  -5.152  0.00  0.00    +0.016 C 
ATOM     22  C   UNL     1       4.417  -2.179  -4.245  0.00  0.00    +0.016 C 
BRANCH   9  24
ATOM     23  C   UNL     1      -0.164  -1.788   0.854  0.00  0.00    +0.009 C 
ATOM     24  C   UNL     1      -0.012  -0.473   0.087  0.00  0.00    +0.032 C 
ENDBRANCH   9  24
ENDBRANCH   1  14
BRANCH   5  25
ATOM     25  C   UNL     1       3.794  -1.436   2.515  0.00  0.00    +0.200 C 
ATOM     26  O   UNL     1       2.907  -2.159   2.114  0.00  0.00    -0.278 OA
ATOM     27  N   UNL     1       3.872  -1.128   3.825  0.00  0.00    -0.317 N 
ATOM     28  H   UNL     1       4.582  -0.550   4.146  0.00  0.00    +0.149 HD
BRANCH  27  29
ATOM     29  C   UNL     1       2.885  -1.667   4.764  0.00  0.00    +0.106 C 
BRANCH  29  30
ATOM     30  C   UNL     1       3.199  -1.167   6.176  0.00  0.00    +0.047 C 
BRANCH  30  31
ATOM     31  C   UNL     1       2.168  -1.730   7.157  0.00  0.00    +0.161 C 
BRANCH  31  32
ATOM     32  O   UNL     1       2.461  -1.263   8.475  0.00  0.00    -0.377 OA
BRANCH  32  33
ATOM     33  C   UNL     1       1.553  -1.733   9.473  0.00  0.00    +0.112 C 
ATOM     34  C   UNL     1       2.282  -1.848  10.813  0.00  0.00    +0.037 C 
ATOM     35  C   UNL     1       0.390  -0.748   9.608  0.00  0.00    +0.037 C 
ENDBRANCH  32  33
ENDBRANCH  31  32
ENDBRANCH  30  31
ENDBRANCH  29  30
ENDBRANCH  27  29
ENDBRANCH   5  25
TORSDOF 8
