REMARK  Name = ZINC43741158
REMARK  9 active torsions:
REMARK  status: ('A' for Active; 'I' for Inactive)
REMARK    1  A    between atoms: C_1  and  O_2
REMARK    2  A    between atoms: O_2  and  C_3
REMARK    3  A    between atoms: C_5  and  C_13
REMARK    4  A    between atoms: C_7  and  O_11
REMARK    5  A    between atoms: C_8  and  O_9
REMARK    6  A    between atoms: O_9  and  C_10
REMARK    7  A    between atoms: O_11  and  C_12
REMARK    8  A    between atoms: N_32  and  C_35
REMARK    9  A    between atoms: C_35  and  C_36
REMARK                            x       y       z     vdW  Elec       q    Type
REMARK                         _______ _______ _______ _____ _____    ______ ____
ROOT
ATOM      1  C   UNL     1       2.462   0.340   4.203  0.00  0.00    +0.154 C 
ATOM      2  C   UNL     1       1.500   0.472   5.362  0.00  0.00    +0.046 A 
ATOM      3  C   UNL     1       1.847   0.251   6.648  0.00  0.00    -0.015 A 
ATOM      4  C   UNL     1       0.663   0.481   7.452  0.00  0.00    +0.003 A 
ATOM      5  C   UNL     1       0.423   0.409   8.827  0.00  0.00    +0.010 A 
ATOM      6  C   UNL     1      -0.851   0.697   9.250  0.00  0.00    +0.001 A 
ATOM      7  C   UNL     1      -1.860   1.043   8.366  0.00  0.00    +0.002 A 
ATOM      8  C   UNL     1      -1.649   1.123   7.000  0.00  0.00    +0.026 A 
ATOM      9  C   UNL     1      -0.365   0.837   6.542  0.00  0.00    +0.047 A 
ATOM     10  N   UNL     1       0.177   0.822   5.289  0.00  0.00    -0.356 N 
ATOM     11  H   UNL     1      -0.301   1.029   4.471  0.00  0.00    +0.166 HD
ATOM     12  C   UNL     1       3.221  -0.164   7.107  0.00  0.00    +0.069 C 
ATOM     13  C   UNL     1       4.229   0.125   5.985  0.00  0.00    +0.167 C 
ATOM     14  N   UNL     1       3.676  -0.334   4.711  0.00  0.00    -0.276 N 
ATOM     15  C   UNL     1       4.212  -1.326   3.997  0.00  0.00    +0.234 C 
ATOM     16  O   UNL     1       3.634  -1.673   2.989  0.00  0.00    -0.274 OA
ATOM     17  C   UNL     1       5.476  -2.037   4.356  0.00  0.00    +0.203 C 
ATOM     18  N   UNL     1       6.080  -1.501   5.564  0.00  0.00    -0.289 N 
ATOM     19  C   UNL     1       5.527  -0.549   6.292  0.00  0.00    +0.237 C 
ATOM     20  O   UNL     1       6.133  -0.192   7.280  0.00  0.00    -0.274 OA
ENDROOT
BRANCH   1  23
ATOM     21  C   UNL     1       0.689  -2.471   2.405  0.00  0.00    +0.165 A 
ATOM     22  C   UNL     1       1.266  -1.708   3.409  0.00  0.00    +0.055 A 
ATOM     23  C   UNL     1       1.837  -0.486   3.109  0.00  0.00    -0.014 A 
ATOM     24  C   UNL     1       1.836  -0.019   1.808  0.00  0.00    +0.055 A 
ATOM     25  C   UNL     1       1.262  -0.776   0.798  0.00  0.00    +0.165 A 
ATOM     26  C   UNL     1       0.691  -2.008   1.095  0.00  0.00    +0.204 A 
BRANCH  21  28
ATOM     27  C   UNL     1       0.161  -4.086   4.069  0.00  0.00    +0.277 C 
ATOM     28  O   UNL     1       0.127  -3.674   2.702  0.00  0.00    -0.491 OA
ENDBRANCH  21  28
BRANCH  26  29
ATOM     29  O   UNL     1       0.131  -2.757   0.106  0.00  0.00    -0.488 OA
ATOM     30  C   UNL     1      -1.255  -2.541  -0.165  0.00  0.00    +0.277 C 
ENDBRANCH  26  29
BRANCH  25  31
ATOM     31  O   UNL     1       1.261  -0.316  -0.481  0.00  0.00    -0.491 OA
ATOM     32  C   UNL     1       1.870   0.956  -0.714  0.00  0.00    +0.277 C 
ENDBRANCH  25  31
ENDBRANCH   1  23
BRANCH  18  33
ATOM     33  C   UNL     1       7.363  -2.058   5.999  0.00  0.00    +0.140 C 
BRANCH  33  34
ATOM     34  C   UNL     1       8.506  -1.263   5.364  0.00  0.00    +0.136 C 
ATOM     35  C   UNL     1       9.874  -1.858   5.784  0.00  0.00    +0.035 C 
ATOM     36  C   UNL     1      10.772  -1.392   4.606  0.00  0.00    +0.031 C 
ATOM     37  C   UNL     1       9.798  -1.446   3.410  0.00  0.00    +0.160 C 
ATOM     38  O   UNL     1       8.464  -1.387   3.933  0.00  0.00    -0.375 OA
ENDBRANCH  33  34
ENDBRANCH  18  33
TORSDOF 6
