REMARK  Name = ZINC39916221
REMARK  12 active torsions:
REMARK  status: ('A' for Active; 'I' for Inactive)
REMARK    1  A    between atoms: C_1  and  C_2
REMARK    2  A    between atoms: C_2  and  C_4
REMARK    3  A    between atoms: C_2  and  C_34
REMARK    4  A    between atoms: C_4  and  O_5
REMARK    5  A    between atoms: O_5  and  C_6
REMARK    6  A    between atoms: C_6  and  C_7
REMARK    7  A    between atoms: C_7  and  C_9
REMARK    8  A    between atoms: C_7  and  O_33
REMARK    9  A    between atoms: C_9  and  N_10
REMARK   10  A    between atoms: N_13  and  C_16
REMARK   11  A    between atoms: C_16  and  C_17
REMARK   12  A    between atoms: C_17  and  N_18
REMARK                            x       y       z     vdW  Elec       q    Type
REMARK                         _______ _______ _______ _____ _____    ______ ____
ROOT
ATOM      1  N   UNL     1      -0.446   0.119  -7.247  0.00  0.00    -0.303 NA
ATOM      2  C   UNL     1      -0.454   1.589  -7.224  0.00  0.00    +0.066 C 
ATOM      3  C   UNL     1      -1.338   2.109  -8.359  0.00  0.00    -0.063 C 
ATOM      4  N   UNL     1      -0.819   1.625  -9.645  0.00  0.00    +0.382 N 
ATOM      5  C   UNL     1      -0.840   0.157  -9.662  0.00  0.00    -0.063 C 
ATOM      6  C   UNL     1       0.048  -0.380  -8.538  0.00  0.00    +0.066 C 
ATOM      7  H   UNL     1       0.129   1.949  -9.768  0.00  0.00    -0.082 HD
ENDROOT
BRANCH   1   8
ATOM      8  C   UNL     1       0.348  -0.420  -6.135  0.00  0.00    +0.117 C 
BRANCH   8   9
ATOM      9  C   UNL     1      -0.338  -0.087  -4.809  0.00  0.00    +0.154 C 
BRANCH   9  10
ATOM     10  O   UNL     1      -1.595  -0.763  -4.739  0.00  0.00    -0.388 OA
ATOM     11  H   UNL     1      -1.527  -1.726  -4.790  0.00  0.00    +0.210 HD
ENDBRANCH   9  10
BRANCH   9  12
ATOM     12  C   UNL     1       0.549  -0.538  -3.647  0.00  0.00    +0.192 C 
BRANCH  12  13
ATOM     13  O   UNL     1      -0.036  -0.123  -2.412  0.00  0.00    -0.377 OA
BRANCH  13  14
ATOM     14  C   UNL     1       0.718  -0.497  -1.257  0.00  0.00    +0.167 C 
BRANCH  14  16
ATOM     15  C   UNL     1      -0.019   1.526   0.010  0.00  0.00    +0.015 C 
ATOM     16  C   UNL     1       0.002  -0.004   0.002  0.00  0.00    +0.042 C 
BRANCH  16  17
ATOM     17  C   UNL     1       0.731  -0.503   1.223  0.00  0.00    -0.042 A 
ATOM     18  C   UNL     1       2.050  -0.148   1.434  0.00  0.00    +0.004 A 
ATOM     19  C   UNL     1       2.719  -0.606   2.554  0.00  0.00    +0.000 A 
ATOM     20  C   UNL     1       2.068  -1.419   3.463  0.00  0.00    +0.000 A 
ATOM     21  C   UNL     1       0.749  -1.773   3.252  0.00  0.00    +0.000 A 
ATOM     22  C   UNL     1       0.079  -1.312   2.135  0.00  0.00    +0.004 A 
ENDBRANCH  16  17
ENDBRANCH  14  16
ENDBRANCH  13  14
ENDBRANCH  12  13
ENDBRANCH   9  12
ENDBRANCH   8   9
ENDBRANCH   1   8
BRANCH   4  23
ATOM     23  C   UNL     1      -1.657   2.140 -10.736  0.00  0.00    -0.059 C 
BRANCH  23  24
ATOM     24  C   UNL     1      -1.046   1.740 -12.081  0.00  0.00    +0.098 C 
BRANCH  24  25
ATOM     25  N   UNL     1      -1.883   2.254 -13.169  0.00  0.00    -0.236 N 
ATOM     26  C   UNL     1      -2.884   1.484 -13.635  0.00  0.00    +0.254 C 
ATOM     27  O   UNL     1      -3.078   0.385 -13.151  0.00  0.00    -0.270 OA
ATOM     28  C   UNL     1      -3.745   1.965 -14.725  0.00  0.00    +0.046 A 
ATOM     29  C   UNL     1      -4.788   1.205 -15.236  0.00  0.00    +0.014 A 
ATOM     30  C   UNL     1      -5.574   1.704 -16.268  0.00  0.00    +0.001 A 
ATOM     31  C   UNL     1      -5.351   2.938 -16.806  0.00  0.00    +0.008 A 
ATOM     32  C   UNL     1      -4.304   3.740 -16.317  0.00  0.00    -0.016 A 
ATOM     33  C   UNL     1      -3.499   3.246 -15.270  0.00  0.00    +0.006 A 
ATOM     34  C   UNL     1      -2.439   4.027 -14.757  0.00  0.00    +0.046 A 
ATOM     35  C   UNL     1      -2.205   5.283 -15.298  0.00  0.00    +0.014 A 
ATOM     36  C   UNL     1      -3.006   5.759 -16.329  0.00  0.00    +0.001 A 
ATOM     37  C   UNL     1      -4.034   5.018 -16.837  0.00  0.00    +0.008 A 
ATOM     38  C   UNL     1      -1.625   3.480 -13.662  0.00  0.00    +0.254 C 
ATOM     39  O   UNL     1      -0.710   4.136 -13.201  0.00  0.00    -0.270 OA
ENDBRANCH  24  25
ENDBRANCH  23  24
ENDBRANCH   4  23
TORSDOF 11
