REMARK  Name = ZINC35377724
REMARK  10 active torsions:
REMARK  status: ('A' for Active; 'I' for Inactive)
REMARK    1  A    between atoms: C_1  and  C_2
REMARK    2  A    between atoms: C_2  and  C_3
REMARK    3  A    between atoms: C_2  and  N_4
REMARK    4  A    between atoms: C_5  and  C_7
REMARK    5  A    between atoms: C_7  and  C_8
REMARK    6  A    between atoms: C_11  and  N_14
REMARK    7  A    between atoms: N_23  and  C_26
REMARK    8  A    between atoms: C_26  and  C_27
REMARK    9  A    between atoms: N_29  and  C_30
REMARK   10  A    between atoms: C_30  and  C_31
REMARK                            x       y       z     vdW  Elec       q    Type
REMARK                         _______ _______ _______ _____ _____    ______ ____
ROOT
ATOM      1  N   UNL     1      -5.452  -1.353  -6.446  0.00  0.00    -0.228 N 
ATOM      2  C   UNL     1      -6.168  -0.311  -6.923  0.00  0.00    +0.269 A 
ATOM      3  O   UNL     1      -6.390   0.662  -6.229  0.00  0.00    -0.266 OA
ATOM      4  C   UNL     1      -6.672  -0.386  -8.306  0.00  0.00    +0.064 A 
ATOM      5  C   UNL     1      -7.417   0.647  -8.870  0.00  0.00    +0.015 A 
ATOM      6  C   UNL     1      -7.866   0.530 -10.169  0.00  0.00    +0.001 A 
ATOM      7  C   UNL     1      -7.580  -0.607 -10.910  0.00  0.00    +0.002 A 
ATOM      8  C   UNL     1      -6.843  -1.637 -10.363  0.00  0.00    +0.027 A 
ATOM      9  C   UNL     1      -6.382  -1.537  -9.059  0.00  0.00    +0.059 A 
ATOM     10  N   UNL     1      -5.638  -2.549  -8.471  0.00  0.00    -0.284 N 
ATOM     11  C   UNL     1      -5.197  -2.429  -7.207  0.00  0.00    +0.337 A 
ATOM     12  O   UNL     1      -4.543  -3.337  -6.730  0.00  0.00    -0.246 OA
ENDROOT
BRANCH   1  16
ATOM     13  C   UNL     1      -3.992  -1.213  -2.545  0.00  0.00    -0.038 A 
ATOM     14  C   UNL     1      -3.226  -0.722  -3.586  0.00  0.00    +0.006 A 
ATOM     15  C   UNL     1      -3.707  -0.767  -4.880  0.00  0.00    +0.027 A 
ATOM     16  C   UNL     1      -4.961  -1.306  -5.135  0.00  0.00    +0.054 A 
ATOM     17  C   UNL     1      -5.727  -1.799  -4.087  0.00  0.00    +0.027 A 
ATOM     18  C   UNL     1      -5.238  -1.756  -2.796  0.00  0.00    +0.006 A 
BRANCH  13  19
ATOM     19  C   UNL     1      -3.464  -1.162  -1.134  0.00  0.00    +0.130 C 
BRANCH  19  21
ATOM     20  N   UNL     1      -2.129  -2.602   0.370  0.00  0.00    -0.313 N 
ATOM     21  C   UNL     1      -2.695  -2.425  -0.840  0.00  0.00    +0.218 C 
ATOM     22  O   UNL     1      -2.587  -3.281  -1.692  0.00  0.00    -0.275 OA
ATOM     23  H   UNL     1      -2.215  -1.917   1.051  0.00  0.00    +0.149 HD
BRANCH  20  25
ATOM     24  C   UNL     1       0.060  -3.675   0.167  0.00  0.00    +0.027 C 
ATOM     25  C   UNL     1      -1.382  -3.829   0.656  0.00  0.00    +0.067 C 
ATOM     26  C   UNL     1      -1.383  -4.087   2.164  0.00  0.00    +0.027 C 
ENDBRANCH  20  25
ENDBRANCH  19  21
ENDBRANCH  13  19
ENDBRANCH   1  16
BRANCH  10  27
ATOM     27  C   UNL     1      -5.325  -3.758  -9.237  0.00  0.00    +0.222 C 
BRANCH  27  28
ATOM     28  C   UNL     1      -4.021  -3.565  -9.969  0.00  0.00    +0.233 C 
ATOM     29  O   UNL     1      -3.414  -2.521  -9.861  0.00  0.00    -0.274 OA
ATOM     30  N   UNL     1      -3.531  -4.554 -10.743  0.00  0.00    -0.310 N 
ATOM     31  H   UNL     1      -4.017  -5.389 -10.829  0.00  0.00    +0.149 HD
BRANCH  30  32
ATOM     32  C   UNL     1      -2.264  -4.366 -11.455  0.00  0.00    +0.141 C 
BRANCH  32  33
ATOM     33  C   UNL     1      -1.942  -5.610 -12.243  0.00  0.00    -0.012 A 
ATOM     34  C   UNL     1      -1.039  -6.530 -11.744  0.00  0.00    +0.006 A 
ATOM     35  C   UNL     1      -0.744  -7.670 -12.466  0.00  0.00    +0.000 A 
ATOM     36  C   UNL     1      -1.351  -7.892 -13.689  0.00  0.00    +0.001 A 
ATOM     37  C   UNL     1      -2.254  -6.973 -14.188  0.00  0.00    +0.020 A 
ATOM     38  C   UNL     1      -2.554  -5.834 -13.463  0.00  0.00    +0.046 A 
ATOM     39 CL   UNL     1      -3.694  -4.682 -14.087  0.00  0.00    -0.083 Cl
ENDBRANCH  32  33
ENDBRANCH  30  32
ENDBRANCH  27  28
ENDBRANCH  10  27
TORSDOF 8
