REMARK  Name = ZINC51100229
REMARK  8 active torsions:
REMARK  status: ('A' for Active; 'I' for Inactive)
REMARK    1  A    between atoms: C_1  and  C_2
REMARK    2  A    between atoms: C_3  and  C_7
REMARK    3  A    between atoms: N_9  and  C_10
REMARK    4  A    between atoms: N_13  and  C_16
REMARK    5  A    between atoms: C_16  and  C_17
REMARK    6  A    between atoms: N_19  and  C_20
REMARK    7  A    between atoms: C_25  and  C_30
REMARK    8  A    between atoms: C_27  and  C_29
REMARK                            x       y       z     vdW  Elec       q    Type
REMARK                         _______ _______ _______ _____ _____    ______ ____
ROOT
ATOM      1  C   UNL     1      -0.014  -0.661  -4.963  0.00  0.00    +0.070 C 
ATOM      2  C   UNL     1       1.418  -0.366  -5.418  0.00  0.00    +0.004 C 
ATOM      3  C   UNL     1       1.404   0.052  -6.890  0.00  0.00    -0.076 C 
ATOM      4  N   UNL     1       0.845  -1.033  -7.705  0.00  0.00    +0.385 N 
ATOM      5  C   UNL     1      -0.552  -1.273  -7.323  0.00  0.00    -0.076 C 
ATOM      6  C   UNL     1      -0.614  -1.741  -5.867  0.00  0.00    +0.004 C 
ATOM      7  H   UNL     1       1.381  -1.874  -7.558  0.00  0.00    -0.081 HD
ENDROOT
BRANCH   1  10
ATOM      8  C   UNL     1      -0.008  -0.248  -2.562  0.00  0.00    +0.253 C 
ATOM      9  O   UNL     1      -0.025   0.946  -2.797  0.00  0.00    -0.270 OA
ATOM     10  N   UNL     1      -0.001  -1.134  -3.577  0.00  0.00    -0.308 N 
ATOM     11  H   UNL     1       0.013  -2.086  -3.389  0.00  0.00    +0.149 HD
BRANCH   8  14
ATOM     12  C   UNL     1      -0.018   1.503   0.010  0.00  0.00    +0.067 C 
ATOM     13  C   UNL     1       0.002  -0.004   0.002  0.00  0.00    +0.058 A 
ATOM     14  C   UNL     1       0.006  -0.722  -1.174  0.00  0.00    +0.096 A 
ATOM     15  S   UNL     1       0.032  -2.390  -0.537  0.00  0.00    -0.071 S 
ATOM     16  C   UNL     1       0.035  -2.012   1.103  0.00  0.00    +0.156 A 
ATOM     17  N   UNL     1       0.022  -0.699   1.113  0.00  0.00    -0.252 NA
ENDBRANCH   8  14
ENDBRANCH   1  10
BRANCH   4  18
ATOM     18  C   UNL     1       0.905  -0.658  -9.124  0.00  0.00    +0.019 C 
BRANCH  18  19
ATOM     19  C   UNL     1       0.445  -1.818  -9.969  0.00  0.00    +0.197 C 
ATOM     20  O   UNL     1       0.101  -2.854  -9.442  0.00  0.00    -0.278 OA
ATOM     21  N   UNL     1       0.417  -1.704 -11.312  0.00  0.00    -0.314 N 
ATOM     22  H   UNL     1       0.692  -0.875 -11.734  0.00  0.00    +0.149 HD
BRANCH  21  23
ATOM     23  C   UNL     1      -0.030  -2.831 -12.134  0.00  0.00    +0.076 C 
ATOM     24  C   UNL     1      -1.556  -2.807 -12.246  0.00  0.00    +0.022 C 
ATOM     25  C   UNL     1      -2.023  -3.984 -13.104  0.00  0.00    +0.002 C 
ATOM     26  C   UNL     1      -1.407  -3.873 -14.501  0.00  0.00    +0.003 C 
ATOM     27  C   UNL     1       0.119  -3.897 -14.388  0.00  0.00    -0.009 C 
ATOM     28  C   UNL     1       0.586  -2.720 -13.530  0.00  0.00    +0.009 C 
ATOM     29  C   UNL     1       2.111  -2.744 -13.418  0.00  0.00    +0.009 C 
ATOM     30  C   UNL     1       0.561  -5.210 -13.738  0.00  0.00    +0.008 C 
ENDBRANCH  21  23
ENDBRANCH  18  19
ENDBRANCH   4  18
TORSDOF 5
