REMARK  Name = ZINC44714618
REMARK  11 active torsions:
REMARK  status: ('A' for Active; 'I' for Inactive)
REMARK    1  A    between atoms: C_1  and  C_2
REMARK    2  A    between atoms: C_3  and  C_14
REMARK    3  A    between atoms: C_6  and  C_12
REMARK    4  A    between atoms: C_14  and  C_15
REMARK    5  A    between atoms: C_15  and  N_16
REMARK    6  A    between atoms: C_17  and  C_19
REMARK    7  A    between atoms: C_30  and  C_32
REMARK    8  A    between atoms: C_34  and  O_40
REMARK    9  A    between atoms: C_37  and  O_38
REMARK   10  A    between atoms: O_38  and  C_39
REMARK   11  A    between atoms: O_40  and  C_41
REMARK                            x       y       z     vdW  Elec       q    Type
REMARK                         _______ _______ _______ _____ _____    ______ ____
ROOT
ATOM      1  C   UNL     1       2.558   1.083  -6.475  0.00  0.00    +0.100 C 
ATOM      2  C   UNL     1       2.031  -0.024  -7.415  0.00  0.00    +0.121 C 
ATOM      3  N   UNL     1       2.846   0.111  -8.646  0.00  0.00    -0.296 N 
ATOM      4  C   UNL     1       4.211   0.415  -8.153  0.00  0.00    +0.115 C 
ATOM      5  C   UNL     1       3.989   1.368  -6.962  0.00  0.00    -0.004 C 
ATOM      6  C   UNL     1       4.994   1.069  -5.854  0.00  0.00    -0.010 C 
ATOM      7  C   UNL     1       6.403   1.415  -6.342  0.00  0.00    -0.082 C 
ATOM      8  N   UNL     1       6.460   2.834  -6.712  0.00  0.00    +0.379 N 
ATOM      9  C   UNL     1       5.558   3.094  -7.841  0.00  0.00    -0.082 C 
ATOM     10  C   UNL     1       4.113   2.819  -7.416  0.00  0.00    -0.010 C 
ATOM     11  C   UNL     1       2.437  -0.013  -9.924  0.00  0.00    +0.250 C 
ATOM     12  O   UNL     1       1.257  -0.168 -10.173  0.00  0.00    -0.270 OA
ATOM     13  H   UNL     1       6.180   3.398  -5.923  0.00  0.00    -0.086 HD
ATOM     14  H   UNL     1       7.404   3.074  -6.975  0.00  0.00    -0.086 HD
ENDROOT
BRANCH  11  15
ATOM     15  C   UNL     1       3.422   0.040 -11.021  0.00  0.00    +0.082 A 
ATOM     16  C   UNL     1       4.700  -0.496 -10.844  0.00  0.00    +0.062 A 
ATOM     17  C   UNL     1       5.618  -0.444 -11.877  0.00  0.00    +0.121 A 
ATOM     18  C   UNL     1       5.272   0.141 -13.089  0.00  0.00    +0.049 A 
ATOM     19  C   UNL     1       4.012   0.673 -13.273  0.00  0.00    +0.050 A 
ATOM     20  C   UNL     1       3.079   0.623 -12.248  0.00  0.00    +0.132 A 
BRANCH  20  21
ATOM     21  O   UNL     1       1.838   1.141 -12.432  0.00  0.00    -0.494 OA
ATOM     22  C   UNL     1       1.559   1.720 -13.708  0.00  0.00    +0.277 C 
ENDBRANCH  20  21
BRANCH  17  23
ATOM     23  O   UNL     1       6.862  -0.965 -11.706  0.00  0.00    -0.495 OA
ATOM     24  C   UNL     1       7.760  -0.877 -12.814  0.00  0.00    +0.277 C 
ENDBRANCH  17  23
ENDBRANCH  11  15
BRANCH   1  26
ATOM     25  N   UNL     1       2.593   1.482  -4.034  0.00  0.00    -0.315 N 
ATOM     26  C   UNL     1       2.576   0.596  -5.049  0.00  0.00    +0.218 C 
ATOM     27  O   UNL     1       2.576  -0.594  -4.815  0.00  0.00    -0.275 OA
ATOM     28  H   UNL     1       2.593   2.434  -4.221  0.00  0.00    +0.149 HD
BRANCH  25  29
ATOM     29  C   UNL     1       2.611   1.009  -2.648  0.00  0.00    +0.109 C 
BRANCH  29  30
ATOM     30  C   UNL     1       2.627   2.209  -1.699  0.00  0.00    +0.056 C 
BRANCH  30  33
ATOM     31  C   UNL     1       5.157   1.610  -0.003  0.00  0.00    +0.063 C 
ATOM     32  C   UNL     1       3.734   1.460   0.468  0.00  0.00    +0.017 A 
ATOM     33  C   UNL     1       2.646   1.721  -0.273  0.00  0.00    -0.018 A 
ATOM     34  C   UNL     1       1.479   1.443   0.569  0.00  0.00    +0.004 A 
ATOM     35  C   UNL     1       0.102   1.521   0.370  0.00  0.00    +0.029 A 
ATOM     36  C   UNL     1      -0.758   1.174   1.407  0.00  0.00    +0.052 A 
ATOM     37  C   UNL     1      -0.239   0.750   2.639  0.00  0.00    +0.021 A 
ATOM     38  C   UNL     1       1.108   0.673   2.836  0.00  0.00    +0.027 A 
ATOM     39  C   UNL     1       1.988   1.016   1.811  0.00  0.00    +0.047 A 
ATOM     40  N   UNL     1       3.359   1.033   1.713  0.00  0.00    -0.358 N 
ATOM     41  H   UNL     1       3.971   0.781   2.422  0.00  0.00    +0.166 HD
BRANCH  36  42
ATOM     42  C   UNL     1      -2.176   1.250   1.217  0.00  0.00    +0.099 C 
ATOM     43  N   UNL     1      -3.300   1.310   1.066  0.00  0.00    -0.191 NA
ENDBRANCH  36  42
ENDBRANCH  30  33
ENDBRANCH  29  30
ENDBRANCH  25  29
ENDBRANCH   1  26
TORSDOF 8
