REMARK  Name = ZINC23498377
REMARK  9 active torsions:
REMARK  status: ('A' for Active; 'I' for Inactive)
REMARK    1  A    between atoms: C_1  and  C_2
REMARK    2  A    between atoms: C_7  and  N_8
REMARK    3  A    between atoms: C_18  and  S_19
REMARK    4  A    between atoms: S_19  and  C_20
REMARK    5  A    between atoms: C_20  and  C_21
REMARK    6  A    between atoms: N_26  and  C_27
REMARK    7  A    between atoms: C_27  and  C_28
REMARK    8  A    between atoms: C_28  and  C_29
REMARK    9  A    between atoms: C_28  and  C_30
REMARK                            x       y       z     vdW  Elec       q    Type
REMARK                         _______ _______ _______ _____ _____    ______ ____
ROOT
ATOM      1  N   UNL     1       2.357   3.889   0.000  0.00  0.00    -0.255 N 
ATOM      2  C   UNL     1       2.922   4.240  -1.178  0.00  0.00    +0.267 A 
ATOM      3  O   UNL     1       2.405   3.942  -2.239  0.00  0.00    -0.267 OA
ATOM      4  C   UNL     1       4.182   4.993  -1.130  0.00  0.00    +0.065 A 
ATOM      5  C   UNL     1       4.840   5.399  -2.291  0.00  0.00    +0.017 A 
ATOM      6  C   UNL     1       6.011   6.098  -2.196  0.00  0.00    +0.021 A 
ATOM      7  C   UNL     1       6.553   6.410  -0.954  0.00  0.00    +0.043 A 
ATOM      8  C   UNL     1       5.924   6.021   0.209  0.00  0.00    +0.048 A 
ATOM      9  C   UNL     1       4.725   5.306   0.137  0.00  0.00    +0.080 A 
ATOM     10  N   UNL     1       4.072   4.903   1.253  0.00  0.00    -0.223 NA
ATOM     11  C   UNL     1       2.947   4.237   1.185  0.00  0.00    +0.177 A 
ATOM     12 CL   UNL     1       8.042   7.298  -0.867  0.00  0.00    -0.083 Cl
ENDROOT
BRANCH   1  19
ATOM     13  C   UNL     1      -0.085   5.351   0.031  0.00  0.00    +0.046 C 
ATOM     14  C   UNL     1      -0.059   3.845   0.022  0.00  0.00    -0.026 A 
ATOM     15  C   UNL     1      -1.243   3.133   0.030  0.00  0.00    +0.005 A 
ATOM     16  C   UNL     1      -1.220   1.750   0.017  0.00  0.00    +0.000 A 
ATOM     17  C   UNL     1      -0.013   1.076   0.008  0.00  0.00    +0.002 A 
ATOM     18  C   UNL     1       1.174   1.782   0.000  0.00  0.00    +0.026 A 
ATOM     19  C   UNL     1       1.155   3.170   0.008  0.00  0.00    +0.055 A 
ENDBRANCH   1  19
BRANCH  11  20
ATOM     20  S   UNL     1       2.161   3.759   2.687  0.00  0.00    -0.078 S 
BRANCH  20  21
ATOM     21  C   UNL     1       3.327   4.450   3.886  0.00  0.00    +0.173 C 
BRANCH  21  22
ATOM     22  C   UNL     1       2.845   4.155   5.283  0.00  0.00    +0.231 C 
ATOM     23  O   UNL     1       1.816   3.538   5.452  0.00  0.00    -0.274 OA
ATOM     24  N   UNL     1       3.560   4.577   6.345  0.00  0.00    -0.240 N 
ATOM     25  C   UNL     1       3.129   4.313   7.595  0.00  0.00    +0.306 C 
ATOM     26  O   UNL     1       2.097   3.695   7.764  0.00  0.00    -0.252 OA
ATOM     27  N   UNL     1       3.844   4.736   8.657  0.00  0.00    -0.299 N 
ATOM     28  H   UNL     1       4.494   5.137   6.192  0.00  0.00    +0.159 HD
ATOM     29  H   UNL     1       4.778   5.295   8.504  0.00  0.00    +0.150 HD
BRANCH  27  30
ATOM     30  C   UNL     1       3.376   4.449  10.015  0.00  0.00    +0.108 C 
BRANCH  30  31
ATOM     31  C   UNL     1       4.361   5.034  11.029  0.00  0.00    -0.000 C 
ATOM     32  C   UNL     1       3.811   4.844  12.444  0.00  0.00    +0.009 C 
ATOM     33  C   UNL     1       5.707   4.316  10.904  0.00  0.00    +0.009 C 
ENDBRANCH  30  31
ENDBRANCH  27  30
ENDBRANCH  21  22
ENDBRANCH  20  21
ENDBRANCH  11  20
TORSDOF 6
