REMARK  Name = ZINC16841536
REMARK  6 active torsions:
REMARK  status: ('A' for Active; 'I' for Inactive)
REMARK    1  A    between atoms: C_1  and  C_2
REMARK    2  A    between atoms: C_6  and  N_8
REMARK    3  A    between atoms: C_13  and  C_17
REMARK    4  A    between atoms: C_24  and  S_25
REMARK    5  A    between atoms: S_25  and  C_26
REMARK    6  A    between atoms: C_26  and  C_27
REMARK                            x       y       z     vdW  Elec       q    Type
REMARK                         _______ _______ _______ _____ _____    ______ ____
ROOT
ATOM      1  N   UNL     1      -0.863   5.549   0.039  0.00  0.00    -0.254 N 
ATOM      2  C   UNL     1      -1.433   4.428   0.532  0.00  0.00    +0.283 A 
ATOM      3  O   UNL     1      -2.563   4.453   0.990  0.00  0.00    -0.265 OA
ATOM      4  C   UNL     1      -0.694   3.230   0.505  0.00  0.00    +0.131 A 
ATOM      5  C   UNL     1       0.599   3.254  -0.029  0.00  0.00    +0.104 A 
ATOM      6  C   UNL     1       1.105   1.884   0.080  0.00  0.00    +0.026 A 
ATOM      7  C   UNL     1       0.117   1.145   0.655  0.00  0.00    +0.093 A 
ATOM      8  N   UNL     1      -0.957   1.937   0.906  0.00  0.00    -0.355 N 
ATOM      9  H   UNL     1      -1.787   1.638   1.309  0.00  0.00    +0.166 HD
ATOM     10  N   UNL     1       1.107   4.404  -0.503  0.00  0.00    -0.221 NA
ATOM     11  C   UNL     1       0.405   5.515  -0.472  0.00  0.00    +0.178 A 
ENDROOT
BRANCH   1  17
ATOM     12  C   UNL     1      -2.082   9.720   2.341  0.00  0.00    +0.044 C 
ATOM     13  C   UNL     1      -2.184   8.796   1.155  0.00  0.00    -0.048 A 
ATOM     14  C   UNL     1      -2.981   9.138   0.078  0.00  0.00    +0.003 A 
ATOM     15  C   UNL     1      -3.077   8.292  -1.012  0.00  0.00    +0.002 A 
ATOM     16  C   UNL     1      -2.372   7.105  -1.030  0.00  0.00    +0.026 A 
ATOM     17  C   UNL     1      -1.575   6.755   0.052  0.00  0.00    +0.052 A 
ATOM     18  C   UNL     1      -1.481   7.607   1.145  0.00  0.00    +0.029 A 
ENDBRANCH   1  17
BRANCH   6  19
ATOM     19  C   UNL     1       2.437   1.397  -0.353  0.00  0.00    -0.014 A 
ATOM     20  C   UNL     1       2.904   1.682  -1.635  0.00  0.00    +0.008 A 
ATOM     21  C   UNL     1       4.146   1.230  -2.030  0.00  0.00    +0.001 A 
ATOM     22  C   UNL     1       4.923   0.485  -1.161  0.00  0.00    +0.000 A 
ATOM     23  C   UNL     1       4.463   0.194   0.111  0.00  0.00    +0.001 A 
ATOM     24  C   UNL     1       3.224   0.646   0.519  0.00  0.00    +0.008 A 
ENDBRANCH   6  19
BRANCH  11  25
ATOM     25  S   UNL     1       1.116   6.997  -1.106  0.00  0.00    -0.072 S 
BRANCH  25  26
ATOM     26  C   UNL     1       2.734   6.373  -1.624  0.00  0.00    +0.195 C 
BRANCH  26  27
ATOM     27  C   UNL     1       3.523   7.474  -2.201  0.00  0.00    +0.074 C 
ATOM     28  N   UNL     1       4.131   8.324  -2.646  0.00  0.00    -0.196 NA
ENDBRANCH  26  27
ENDBRANCH  25  26
ENDBRANCH  11  25
TORSDOF 5
