REMARK  Name = ZINC36155156
REMARK  14 active torsions:
REMARK  status: ('A' for Active; 'I' for Inactive)
REMARK    1  A    between atoms: C_1  and  C_2
REMARK    2  A    between atoms: C_2  and  C_3
REMARK    3  A    between atoms: C_3  and  C_5
REMARK    4  A    between atoms: C_3  and  C_6
REMARK    5  A    between atoms: C_6  and  C_8
REMARK    6  A    between atoms: C_6  and  N_22
REMARK    7  A    between atoms: C_10  and  C_13
REMARK    8  A    between atoms: N_22  and  C_23
REMARK    9  A    between atoms: C_23  and  C_24
REMARK   10  A    between atoms: C_24  and  C_26
REMARK   11  A    between atoms: C_24  and  O_35
REMARK   12  A    between atoms: C_26  and  O_27
REMARK   13  A    between atoms: O_27  and  C_28
REMARK   14  A    between atoms: C_33  and  C_34
REMARK                            x       y       z     vdW  Elec       q    Type
REMARK                         _______ _______ _______ _____ _____    ______ ____
ROOT
ATOM      1  C   UNL     1      -1.438  -2.059   0.134  0.00  0.00    +0.022 C 
ENDROOT
BRANCH   1   2
ATOM      2  C   UNL     1      -1.052  -2.544   1.507  0.00  0.00    +0.214 A 
ATOM      3  N   UNL     1      -1.872  -2.987   2.417  0.00  0.00    -0.193 NA
ATOM      4  C   UNL     1      -1.189  -3.335   3.522  0.00  0.00    +0.202 A 
ATOM      5  N   UNL     1       0.086  -3.111   3.315  0.00  0.00    -0.056 NA
ATOM      6  O   UNL     1       0.194  -2.597   1.996  0.00  0.00    -0.339 OA
BRANCH   4   7
ATOM      7  C   UNL     1      -1.780  -3.881   4.768  0.00  0.00    +0.026 A 
ATOM      8  C   UNL     1      -3.157  -4.078   4.860  0.00  0.00    +0.015 A 
ATOM      9  C   UNL     1      -3.706  -4.586   6.019  0.00  0.00    +0.050 A 
ATOM     10  C   UNL     1      -2.892  -4.902   7.096  0.00  0.00    +0.166 A 
ATOM     11  C   UNL     1      -1.514  -4.707   7.010  0.00  0.00    +0.167 A 
ATOM     12  C   UNL     1      -0.959  -4.204   5.847  0.00  0.00    +0.061 A 
ATOM     13  O   UNL     1      -0.945  -5.091   8.190  0.00  0.00    -0.453 OA
ATOM     14  C   UNL     1      -2.025  -5.137   9.141  0.00  0.00    +0.466 C 
ATOM     15  O   UNL     1      -3.184  -5.408   8.330  0.00  0.00    -0.453 OA
ENDBRANCH   4   7
ENDBRANCH   1   2
BRANCH   1  16
ATOM     16  N   UNL     1      -0.524  -2.632  -0.864  0.00  0.00    +0.389 N 
ATOM     17  H   UNL     1      -0.725  -2.237  -1.770  0.00  0.00    -0.085 HD
ATOM     18  H   UNL     1       0.428  -2.420  -0.608  0.00  0.00    -0.085 HD
BRANCH  16  19
ATOM     19  C   UNL     1      -0.705  -4.089  -0.913  0.00  0.00    -0.046 C 
BRANCH  19  20
ATOM     20  C   UNL     1       0.155  -4.672  -2.036  0.00  0.00    +0.135 C 
BRANCH  20  21
ATOM     21  O   UNL     1      -0.240  -4.100  -3.285  0.00  0.00    -0.390 OA
ATOM     22  H   UNL     1      -1.164  -4.265  -3.518  0.00  0.00    +0.210 HD
ENDBRANCH  20  21
BRANCH  20  23
ATOM     23  C   UNL     1      -0.033  -6.189  -2.088  0.00  0.00    +0.258 C 
BRANCH  23  24
ATOM     24  O   UNL     1       0.857  -6.747  -3.058  0.00  0.00    -0.489 OA
BRANCH  24  25
ATOM     25  C   UNL     1       0.816  -8.094  -3.229  0.00  0.00    +0.124 A 
ATOM     26  C   UNL     1      -0.065  -8.864  -2.483  0.00  0.00    +0.046 A 
ATOM     27  C   UNL     1      -0.105 -10.233  -2.659  0.00  0.00    +0.004 A 
ATOM     28  C   UNL     1       0.734 -10.837  -3.579  0.00  0.00    +0.000 A 
ATOM     29  C   UNL     1       1.613 -10.073  -4.322  0.00  0.00    +0.007 A 
ATOM     30  C   UNL     1       1.652  -8.702  -4.154  0.00  0.00    -0.009 A 
ATOM     31  C   UNL     1       2.607  -7.869  -4.970  0.00  0.00    +0.047 C 
ENDBRANCH  24  25
ENDBRANCH  23  24
ENDBRANCH  20  23
ENDBRANCH  19  20
ENDBRANCH  16  19
ENDBRANCH   1  16
BRANCH   1  32
ATOM     32  C   UNL     1      -1.350  -0.532   0.088  0.00  0.00    -0.020 C 
ATOM     33  C   UNL     1      -2.229   0.062   1.190  0.00  0.00    +0.006 C 
BRANCH  32  35
ATOM     34  C   UNL     1      -1.629   1.480  -1.367  0.00  0.00    +0.004 C 
ATOM     35  C   UNL     1      -1.834  -0.034  -1.275  0.00  0.00    -0.001 C 
ENDBRANCH  32  35
ENDBRANCH   1  32
TORSDOF 11
