REMARK  Name = ZINC64605642
REMARK  8 active torsions:
REMARK  status: ('A' for Active; 'I' for Inactive)
REMARK    1  A    between atoms: C_1  and  C_2
REMARK    2  A    between atoms: C_2  and  N_3
REMARK    3  A    between atoms: C_11  and  C_13
REMARK    4  A    between atoms: C_13  and  C_14
REMARK    5  A    between atoms: C_14  and  C_15
REMARK    6  A    between atoms: C_20  and  N_21
REMARK    7  A    between atoms: N_21  and  S_22
REMARK    8  A    between atoms: S_22  and  C_25
REMARK                            x       y       z     vdW  Elec       q    Type
REMARK                         _______ _______ _______ _____ _____    ______ ____
ROOT
ATOM      1  C   UNL     1      -3.477   1.386  -4.032  0.00  0.00    -0.023 A 
ATOM      2  C   UNL     1      -4.607   2.158  -3.844  0.00  0.00    +0.005 A 
ATOM      3  C   UNL     1      -4.796   3.304  -4.594  0.00  0.00    +0.000 A 
ATOM      4  C   UNL     1      -3.856   3.682  -5.534  0.00  0.00    +0.002 A 
ATOM      5  C   UNL     1      -2.723   2.915  -5.727  0.00  0.00    +0.027 A 
ATOM      6  C   UNL     1      -2.527   1.766  -4.972  0.00  0.00    +0.078 A 
ENDROOT
BRANCH   1   7
ATOM      7  C   UNL     1      -3.271   0.137  -3.214  0.00  0.00    +0.040 C 
BRANCH   7   8
ATOM      8  C   UNL     1      -2.408   0.462  -1.994  0.00  0.00    +0.047 C 
BRANCH   8  17
ATOM      9  N   UNL     1      -1.372  -0.511   0.012  0.00  0.00    -0.310 N 
ATOM     10  C   UNL     1      -2.143  -0.799   1.147  0.00  0.00    +0.052 A 
ATOM     11  C   UNL     1      -1.835  -0.690   2.498  0.00  0.00    +0.025 A 
ATOM     12  C   UNL     1      -2.771  -1.039   3.453  0.00  0.00    +0.002 A 
ATOM     13  C   UNL     1      -4.017  -1.498   3.069  0.00  0.00    +0.002 A 
ATOM     14  C   UNL     1      -4.332  -1.610   1.728  0.00  0.00    +0.025 A 
ATOM     15  C   UNL     1      -3.397  -1.261   0.761  0.00  0.00    +0.050 A 
ATOM     16  N   UNL     1      -3.483  -1.288  -0.638  0.00  0.00    -0.324 N 
ATOM     17  C   UNL     1      -2.200  -0.806  -1.164  0.00  0.00    +0.159 C 
ATOM     18  H   UNL     1      -4.249  -1.569  -1.162  0.00  0.00    +0.148 HD
BRANCH   9  20
ATOM     19  C   UNL     1      -0.019   1.526   0.010  0.00  0.00    +0.024 C 
ATOM     20  C   UNL     1       0.002  -0.004   0.002  0.00  0.00    +0.103 C 
ENDBRANCH   9  20
ENDBRANCH   8  17
ENDBRANCH   7   8
ENDBRANCH   1   7
BRANCH   6  21
ATOM     21  N   UNL     1      -1.381   0.991  -5.161  0.00  0.00    -0.096 NA
BRANCH  21  22
ATOM     22  S   UNL     1      -0.250   1.446  -6.282  0.00  0.00    +0.108 S 
ATOM     23  O   UNL     1      -0.871   1.331  -7.554  0.00  0.00    -0.147 OA
ATOM     24  O   UNL     1       0.316   2.663  -5.817  0.00  0.00    -0.147 OA
BRANCH  22  25
ATOM     25  C   UNL     1       1.038   0.244  -6.239  0.00  0.00    +0.194 A 
ATOM     26  H   UNL     1       0.457  -1.209  -7.633  0.00  0.00    +0.168 HD
ATOM     27  C   UNL     1       2.140   0.275  -5.466  0.00  0.00    +0.131 A 
ATOM     28  N   UNL     1       2.865  -0.822  -5.733  0.00  0.00    -0.351 N 
ATOM     29  C   UNL     1       2.255  -1.531  -6.642  0.00  0.00    +0.172 A 
ATOM     30  N   UNL     1       1.108  -0.904  -6.982  0.00  0.00    -0.330 N 
ATOM     31  H   UNL     1       3.710  -1.051  -5.315  0.00  0.00    +0.166 HD
ENDBRANCH  22  25
ENDBRANCH  21  22
ENDBRANCH   6  21
TORSDOF 7
