REMARK  Name = ZINC23118791
REMARK  7 active torsions:
REMARK  status: ('A' for Active; 'I' for Inactive)
REMARK    1  A    between atoms: C_1  and  C_2
REMARK    2  A    between atoms: C_2  and  C_3
REMARK    3  A    between atoms: C_8  and  N_9
REMARK    4  A    between atoms: N_9  and  S_10
REMARK    5  A    between atoms: S_10  and  C_13
REMARK    6  A    between atoms: C_16  and  C_19
REMARK    7  A    between atoms: C_19  and  N_20
REMARK                            x       y       z     vdW  Elec       q    Type
REMARK                         _______ _______ _______ _____ _____    ______ ____
ROOT
ATOM      1  C   UNL     1       0.167  -2.864  -0.138  0.00  0.00    +0.109 A 
ATOM      2  C   UNL     1       0.237  -2.135   1.034  0.00  0.00    +0.029 A 
ATOM      3  C   UNL     1       0.297  -0.755   0.986  0.00  0.00    +0.007 A 
ATOM      4  C   UNL     1       0.288  -0.104  -0.233  0.00  0.00    -0.029 A 
ATOM      5  C   UNL     1       0.213  -0.834  -1.405  0.00  0.00    +0.007 A 
ATOM      6  C   UNL     1       0.156  -2.214  -1.358  0.00  0.00    +0.029 A 
ENDROOT
BRANCH   1   7
ATOM      7  S   UNL     1       0.090  -4.624  -0.077  0.00  0.00    +0.072 S 
ATOM      8  O   UNL     1       0.581  -5.095  -1.325  0.00  0.00    -0.150 OA
ATOM      9  O   UNL     1       0.665  -5.013   1.163  0.00  0.00    -0.150 OA
BRANCH   7  10
ATOM     10  N   UNL     1      -1.510  -5.043  -0.009  0.00  0.00    -0.216 N 
ATOM     11  H   UNL     1      -1.895  -5.608   0.852  0.00  0.00    +0.174 HD
BRANCH  10  17
ATOM     12  C   UNL     1      -3.686  -4.324  -0.767  0.00  0.00    -0.025 A 
ATOM     13  C   UNL     1      -4.536  -3.963  -1.795  0.00  0.00    +0.005 A 
ATOM     14  C   UNL     1      -4.079  -3.954  -3.100  0.00  0.00    +0.000 A 
ATOM     15  C   UNL     1      -2.772  -4.306  -3.381  0.00  0.00    +0.002 A 
ATOM     16  C   UNL     1      -1.916  -4.662  -2.358  0.00  0.00    +0.025 A 
ATOM     17  C   UNL     1      -2.372  -4.678  -1.046  0.00  0.00    +0.051 A 
BRANCH  12  19
ATOM     18  C   UNL     1      -3.838  -3.002   1.325  0.00  0.00    +0.009 C 
ATOM     19  C   UNL     1      -4.184  -4.333   0.655  0.00  0.00    +0.033 C 
ENDBRANCH  12  19
ENDBRANCH  10  17
ENDBRANCH   7  10
ENDBRANCH   1   7
BRANCH   4  20
ATOM     20  C   UNL     1       0.354   1.401  -0.285  0.00  0.00    +0.152 C 
BRANCH  20  21
ATOM     21  N   UNL     1       1.755   1.826  -0.346  0.00  0.00    -0.230 N 
ATOM     22  C   UNL     1       2.518   2.089   0.731  0.00  0.00    +0.254 C 
ATOM     23  O   UNL     1       2.160   2.013   1.889  0.00  0.00    -0.270 OA
ATOM     24  C   UNL     1       3.865   2.485   0.268  0.00  0.00    +0.049 A 
ATOM     25  C   UNL     1       5.037   2.858   0.907  0.00  0.00    +0.014 A 
ATOM     26  C   UNL     1       6.156   3.181   0.156  0.00  0.00    +0.001 A 
ATOM     27  C   UNL     1       6.110   3.135  -1.225  0.00  0.00    +0.001 A 
ATOM     28  C   UNL     1       4.945   2.764  -1.878  0.00  0.00    +0.014 A 
ATOM     29  C   UNL     1       3.818   2.437  -1.140  0.00  0.00    +0.049 A 
ATOM     30  C   UNL     1       2.446   2.010  -1.485  0.00  0.00    +0.254 C 
ATOM     31  O   UNL     1       2.015   1.852  -2.609  0.00  0.00    -0.270 OA
ENDBRANCH  20  21
ENDBRANCH   4  20
TORSDOF 6
