REMARK  Name = ZINC10059707
REMARK  5 active torsions:
REMARK  status: ('A' for Active; 'I' for Inactive)
REMARK    1  A    between atoms: C_1  and  C_2
REMARK    2  A    between atoms: C_5  and  C_8
REMARK    3  A    between atoms: C_8  and  O_10
REMARK    4  A    between atoms: O_10  and  C_11
REMARK    5  A    between atoms: C_14  and  C_17
REMARK                            x       y       z     vdW  Elec       q    Type
REMARK                         _______ _______ _______ _____ _____    ______ ____
ROOT
ATOM      1  C   UNL     1      -1.322   4.971   0.140  0.00  0.00    +0.117 C 
ATOM      2  C   UNL     1      -0.687   3.596   0.080  0.00  0.00    +0.039 C 
ATOM      3  C   UNL     1      -1.242   2.359   0.042  0.00  0.00    +0.048 C 
ATOM      4  C   UNL     1      -0.166   1.342   0.120  0.00  0.00    +0.007 A 
ATOM      5  C   UNL     1      -0.222  -0.042   0.148  0.00  0.00    +0.010 A 
ATOM      6  C   UNL     1       1.001  -0.717   0.207  0.00  0.00    +0.001 A 
ATOM      7  C   UNL     1       2.201  -0.046   0.238  0.00  0.00    +0.001 A 
ATOM      8  C   UNL     1       2.268   1.351   0.212  0.00  0.00    +0.012 A 
ATOM      9  C   UNL     1       1.065   2.031   0.154  0.00  0.00    +0.031 A 
ATOM     10  C   UNL     1       0.738   3.466   0.116  0.00  0.00    +0.193 C 
ATOM     11  O   UNL     1       1.539   4.382   0.116  0.00  0.00    -0.287 OA
ATOM     12  N   UNL     1      -2.558   2.034  -0.108  0.00  0.00    -0.313 N 
ATOM     13  C   UNL     1      -3.408   2.637  -1.025  0.00  0.00    +0.045 A 
ATOM     14  C   UNL     1      -3.892   1.922  -2.115  0.00  0.00    +0.024 A 
ATOM     15  C   UNL     1      -4.762   2.537  -2.997  0.00  0.00    +0.002 A 
ATOM     16  C   UNL     1      -5.148   3.849  -2.793  0.00  0.00    +0.001 A 
ATOM     17  C   UNL     1      -4.659   4.563  -1.715  0.00  0.00    +0.016 A 
ATOM     18  C   UNL     1      -3.771   3.951  -0.835  0.00  0.00    +0.030 A 
ATOM     19  S   UNL     1      -3.089   4.874   0.499  0.00  0.00    -0.110 S 
ATOM     20  H   UNL     1      -2.922   1.339   0.462  0.00  0.00    +0.152 HD
ENDROOT
BRANCH   1  24
ATOM     21  C   UNL     1       0.599   7.263   3.193  0.00  0.00    +0.132 A 
ATOM     22  C   UNL     1       0.617   7.704   1.877  0.00  0.00    +0.047 A 
ATOM     23  C   UNL     1      -0.004   6.961   0.892  0.00  0.00    +0.008 A 
ATOM     24  C   UNL     1      -0.644   5.779   1.216  0.00  0.00    -0.029 A 
ATOM     25  C   UNL     1      -0.669   5.340   2.527  0.00  0.00    +0.008 A 
ATOM     26  C   UNL     1      -0.044   6.077   3.515  0.00  0.00    +0.047 A 
BRANCH  21  27
ATOM     27  O   UNL     1       1.209   7.992   4.164  0.00  0.00    -0.422 OA
BRANCH  27  28
ATOM     28  C   UNL     1       0.649   9.175   4.484  0.00  0.00    +0.344 C 
ATOM     29  O   UNL     1      -0.412   9.498   3.988  0.00  0.00    -0.245 OA
BRANCH  28  34
ATOM     30  C   UNL     1       3.282  12.695   8.195  0.00  0.00    +0.044 C 
ATOM     31  C   UNL     1       2.592  11.773   7.223  0.00  0.00    -0.050 A 
ATOM     32  C   UNL     1       1.384  12.145   6.660  0.00  0.00    +0.004 A 
ATOM     33  C   UNL     1       0.747  11.305   5.770  0.00  0.00    +0.015 A 
ATOM     34  C   UNL     1       1.325  10.079   5.436  0.00  0.00    +0.059 A 
ATOM     35  C   UNL     1       2.542   9.708   6.012  0.00  0.00    +0.015 A 
ATOM     36  C   UNL     1       3.170  10.559   6.897  0.00  0.00    +0.004 A 
ENDBRANCH  28  34
ENDBRANCH  27  28
ENDBRANCH  21  27
ENDBRANCH   1  24
TORSDOF 4
