REMARK  Name = ZINC05296778
REMARK  3 active torsions:
REMARK  status: ('A' for Active; 'I' for Inactive)
REMARK    1  A    between atoms: C_14  and  C_15
REMARK    2  A    between atoms: N_17  and  N_18
REMARK    3  A    between atoms: C_19  and  C_20
REMARK                            x       y       z     vdW  Elec       q    Type
REMARK                         _______ _______ _______ _____ _____    ______ ____
ROOT
ATOM      1  C   UNL     1     -13.590   1.069   0.117  0.00  0.00    +0.000 A 
ATOM      2  C   UNL     1     -13.136  -0.214   0.366  0.00  0.00    +0.001 A 
ATOM      3  C   UNL     1     -11.783  -0.487   0.316  0.00  0.00    +0.010 A 
ATOM      4  C   UNL     1     -10.888   0.531   0.017  0.00  0.00    +0.003 A 
ATOM      5  C   UNL     1     -11.347   1.823  -0.266  0.00  0.00    -0.038 A 
ATOM      6  C   UNL     1     -12.703   2.081  -0.199  0.00  0.00    +0.004 A 
ATOM      7  C   UNL     1     -10.391   2.920  -0.645  0.00  0.00    +0.040 C 
ATOM      8  C   UNL     1      -9.053   2.814   0.086  0.00  0.00    +0.044 C 
ATOM      9  C   UNL     1      -8.568   1.394   0.050  0.00  0.00    +0.010 A 
ATOM     10  C   UNL     1      -9.428   0.319   0.036  0.00  0.00    +0.070 A 
ATOM     11  N   UNL     1      -8.669  -0.794   0.036  0.00  0.00    -0.276 N 
ATOM     12  H   UNL     1      -9.021  -1.730   0.041  0.00  0.00    +0.189 HD
ATOM     13  N   UNL     1      -7.420  -0.469   0.029  0.00  0.00    -0.168 NA
ATOM     14  C   UNL     1      -7.283   0.849   0.041  0.00  0.00    +0.152 A 
ENDROOT
BRANCH  14  15
ATOM     15  C   UNL     1      -6.011   1.599   0.039  0.00  0.00    +0.284 C 
ATOM     16  O   UNL     1      -6.022   2.815   0.046  0.00  0.00    -0.267 OA
ATOM     17  N   UNL     1      -4.838   0.936   0.030  0.00  0.00    -0.202 N 
ATOM     18  H   UNL     1      -4.828  -0.034   0.025  0.00  0.00    +0.178 HD
BRANCH  17  19
ATOM     19  N   UNL     1      -3.631   1.648   0.028  0.00  0.00    -0.187 NA
ATOM     20  C   UNL     1      -2.501   1.010   0.019  0.00  0.00    +0.139 C 
BRANCH  20  21
ATOM     21  C   UNL     1      -1.231   1.759   0.017  0.00  0.00    +0.013 A 
ATOM     22  C   UNL     1      -0.013   1.076   0.008  0.00  0.00    +0.011 A 
ATOM     23  C   UNL     1       1.171   1.783   0.001  0.00  0.00    +0.001 A 
ATOM     24  C   UNL     1       1.155   3.167   0.008  0.00  0.00    +0.001 A 
ATOM     25  C   UNL     1      -0.046   3.852   0.022  0.00  0.00    +0.020 A 
ATOM     26  C   UNL     1      -1.240   3.157   0.030  0.00  0.00    +0.050 A 
ATOM     27 CL   UNL     1      -2.748   4.018   0.049  0.00  0.00    -0.083 Cl
ENDBRANCH  20  21
ENDBRANCH  17  19
ENDBRANCH  14  15
TORSDOF 3
