REMARK  Name = ZINC12248446
REMARK  8 active torsions:
REMARK  status: ('A' for Active; 'I' for Inactive)
REMARK    1  A    between atoms: C_1  and  C_2
REMARK    2  A    between atoms: C_2  and  C_3
REMARK    3  A    between atoms: C_2  and  C_4
REMARK    4  A    between atoms: C_2  and  C_5
REMARK    5  A    between atoms: C_8  and  C_11
REMARK    6  A    between atoms: C_14  and  S_16
REMARK    7  A    between atoms: S_16  and  C_17
REMARK    8  A    between atoms: C_17  and  C_18
REMARK                            x       y       z     vdW  Elec       q    Type
REMARK                         _______ _______ _______ _____ _____    ______ ____
ROOT
ATOM      1  C   UNL     1      -0.016   1.306   0.009  0.00  0.00    +0.249 A 
ATOM      2  N   UNL     1       0.002  -0.004   0.002  0.00  0.00    -0.106 NA
ATOM      3  N   UNL     1       1.221  -0.415  -0.012  0.00  0.00    -0.101 NA
ATOM      4  C   UNL     1       2.031   0.618  -0.014  0.00  0.00    +0.278 A 
ATOM      5  O   UNL     1       1.268   1.728  -0.001  0.00  0.00    -0.411 OA
ENDROOT
BRANCH   1   9
ATOM      6  C   UNL     1      -3.472   3.774   0.041  0.00  0.00    -0.042 A 
ATOM      7  C   UNL     1      -3.609   2.397   0.034  0.00  0.00    +0.005 A 
ATOM      8  C   UNL     1      -2.490   1.590   0.024  0.00  0.00    +0.013 A 
ATOM      9  C   UNL     1      -1.218   2.165   0.020  0.00  0.00    +0.039 A 
ATOM     10  C   UNL     1      -1.087   3.555   0.032  0.00  0.00    +0.013 A 
ATOM     11  C   UNL     1      -2.214   4.350   0.038  0.00  0.00    +0.005 A 
BRANCH   6  13
ATOM     12  C   UNL     1      -5.525   4.351   1.306  0.00  0.00    +0.015 C 
ATOM     13  C   UNL     1      -4.699   4.649   0.054  0.00  0.00    -0.013 C 
ATOM     14  C   UNL     1      -4.276   6.120   0.060  0.00  0.00    +0.015 C 
ATOM     15  C   UNL     1      -5.540   4.366  -1.192  0.00  0.00    +0.015 C 
ENDBRANCH   6  13
ENDBRANCH   1   9
BRANCH   4  16
ATOM     16  S   UNL     1       3.792   0.563  -0.032  0.00  0.00    -0.059 S 
BRANCH  16  17
ATOM     17  C   UNL     1       4.050  -1.228  -0.043  0.00  0.00    +0.136 C 
BRANCH  17  18
ATOM     18  C   UNL     1       5.528  -1.522  -0.059  0.00  0.00    +0.072 A 
ATOM     19  C   UNL     1       6.311  -1.682   1.028  0.00  0.00    +0.118 A 
ATOM     20  N   UNL     1       7.579  -1.933   0.579  0.00  0.00    -0.291 N 
ATOM     21  C   UNL     1       8.759  -2.171   1.220  0.00  0.00    +0.095 A 
ATOM     22  C   UNL     1       9.876  -2.393   0.485  0.00  0.00    +0.038 A 
ATOM     23  C   UNL     1       9.792  -2.372  -0.915  0.00  0.00    +0.116 A 
ATOM     24  N   UNL     1       8.645  -2.140  -1.507  0.00  0.00    -0.220 NA
ATOM     25  C   UNL     1       7.532  -1.920  -0.792  0.00  0.00    +0.235 A 
ATOM     26  N   UNL     1       6.281  -1.675  -1.153  0.00  0.00    -0.215 NA
ENDBRANCH  17  18
ENDBRANCH  16  17
ENDBRANCH   4  16
TORSDOF 5
