REMARK  Name = ZINC43313972
REMARK  7 active torsions:
REMARK  status: ('A' for Active; 'I' for Inactive)
REMARK    1  A    between atoms: C_1  and  C_2
REMARK    2  A    between atoms: C_2  and  CA_3
REMARK    3  A    between atoms: CA_3  and  C_5
REMARK    4  A    between atoms: CA_3  and  N_7
REMARK    5  A    between atoms: C_5  and  O_6
REMARK    6  A    between atoms: C_8  and  N_10
REMARK    7  A    between atoms: C_17  and  C_21
REMARK                            x       y       z     vdW  Elec       q    Type
REMARK                         _______ _______ _______ _____ _____    ______ ____
ROOT
ATOM      1  N   UNL     1       3.772   1.505  -1.596  0.00  0.00    -0.139 NA
ATOM      2  C   UNL     1       4.129   2.711  -2.020  0.00  0.00    +0.165 A 
ATOM      3  N   UNL     1       3.345   3.706  -2.523  0.00  0.00    -0.335 N 
ATOM      4  H   UNL     1       2.388   3.572  -2.606  0.00  0.00    +0.168 HD
ATOM      5  C   UNL     1       3.909   4.907  -2.916  0.00  0.00    +0.055 A 
ATOM      6  C   UNL     1       3.250   6.028  -3.451  0.00  0.00    +0.027 A 
ATOM      7  C   UNL     1       3.949   7.159  -3.797  0.00  0.00    +0.005 A 
ATOM      8  C   UNL     1       5.322   7.234  -3.631  0.00  0.00    -0.049 A 
ATOM      9  C   UNL     1       5.997   6.146  -3.107  0.00  0.00    +0.020 A 
ATOM     10  C   UNL     1       5.298   5.015  -2.760  0.00  0.00    +0.039 A 
ATOM     11  S   UNL     1       5.757   3.444  -2.068  0.00  0.00    -0.052 S 
ATOM     12  C   UNL     1       6.070   8.483  -4.018  0.00  0.00    +0.044 C 
ENDROOT
BRANCH   1  14
ATOM     13  N   UNL     1       2.125  -0.091  -1.209  0.00  0.00    -0.293 N 
ATOM     14  C   UNL     1       2.487   1.134  -1.640  0.00  0.00    +0.326 C 
ATOM     15  O   UNL     1       1.645   1.903  -2.068  0.00  0.00    -0.251 OA
ATOM     16  H   UNL     1       2.795  -0.703  -0.868  0.00  0.00    +0.151 HD
BRANCH  13  17
ATOM     17  CA  UNL     1       0.718  -0.497  -1.257  0.00  0.00    +0.100 C 
BRANCH  17  19
ATOM     18  C   UNL     1      -0.019   1.526   0.010  0.00  0.00    +0.006 C 
ATOM     19  C   UNL     1       0.002  -0.004   0.002  0.00  0.00    +0.021 C 
ENDBRANCH  17  19
BRANCH  17  20
ATOM     20  C   UNL     1       0.630  -2.023  -1.329  0.00  0.00    +0.178 C 
BRANCH  20  21
ATOM     21  O   UNL     1       1.146  -2.587  -0.121  0.00  0.00    -0.393 OA
ATOM     22  H   UNL     1       1.122  -3.554  -0.097  0.00  0.00    +0.209 HD
ENDBRANCH  20  21
ENDBRANCH  17  20
ENDBRANCH  13  17
ENDBRANCH   1  14
TORSDOF 5
