REMARK  Name = ZINC16882353
REMARK  10 active torsions:
REMARK  status: ('A' for Active; 'I' for Inactive)
REMARK    1  A    between atoms: C_1  and  C_2
REMARK    2  A    between atoms: C_4  and  C_21
REMARK    3  A    between atoms: C_5  and  C_16
REMARK    4  A    between atoms: N_8  and  C_9
REMARK    5  A    between atoms: C_9  and  C_10
REMARK    6  A    between atoms: C_16  and  C_17
REMARK    7  A    between atoms: C_17  and  C_18
REMARK    8  A    between atoms: C_18  and  C_19
REMARK    9  A    between atoms: C_18  and  C_20
REMARK   10  A    between atoms: C_22  and  C_23
REMARK                            x       y       z     vdW  Elec       q    Type
REMARK                         _______ _______ _______ _____ _____    ______ ____
ROOT
ATOM      1  C   UNL     1       0.031  -7.051   0.060  0.00  0.00    +0.086 C 
ATOM      2  C   UNL     1       1.333  -6.295   0.001  0.00  0.00    +0.110 A 
ATOM      3  N   UNL     1       1.310  -5.005  -0.189  0.00  0.00    -0.234 NA
ATOM      4  C   UNL     1       2.448  -4.288  -0.256  0.00  0.00    +0.074 A 
ATOM      5  C   UNL     1       3.672  -4.931  -0.108  0.00  0.00    +0.042 A 
ATOM      6  C   UNL     1       3.676  -6.319   0.102  0.00  0.00    +0.258 A 
ATOM      7  O   UNL     1       4.728  -6.924   0.238  0.00  0.00    -0.267 OA
ATOM      8  N   UNL     1       2.496  -6.971   0.152  0.00  0.00    -0.292 N 
ENDROOT
BRANCH   4   9
ATOM      9  C   UNL     1       2.397  -2.837  -0.477  0.00  0.00    +0.029 C 
ATOM     10  C   UNL     1       1.209  -2.219  -0.620  0.00  0.00    +0.013 C 
BRANCH  10  11
ATOM     11  C   UNL     1       1.157  -0.765  -0.842  0.00  0.00    +0.010 A 
ATOM     12  C   UNL     1       2.339  -0.021  -0.906  0.00  0.00    +0.011 A 
ATOM     13  C   UNL     1       2.283   1.340  -1.115  0.00  0.00    +0.001 A 
ATOM     14  C   UNL     1       1.060   1.973  -1.261  0.00  0.00    +0.003 A 
ATOM     15  C   UNL     1      -0.115   1.247  -1.200  0.00  0.00    +0.039 A 
ATOM     16  C   UNL     1      -0.076  -0.119  -0.991  0.00  0.00    +0.131 A 
ATOM     17  F   UNL     1      -1.224  -0.829  -0.932  0.00  0.00    -0.205 F 
ENDBRANCH  10  11
ENDBRANCH   4   9
BRANCH   8  18
ATOM     18  C   UNL     1       2.473  -8.420   0.370  0.00  0.00    +0.161 C 
BRANCH  18  19
ATOM     19  C   UNL     1       2.493  -8.706   1.849  0.00  0.00    -0.028 A 
ATOM     20  C   UNL     1       3.699  -8.864   2.507  0.00  0.00    +0.005 A 
ATOM     21  C   UNL     1       3.717  -9.121   3.865  0.00  0.00    +0.000 A 
ATOM     22  C   UNL     1       2.530  -9.230   4.564  0.00  0.00    +0.000 A 
ATOM     23  C   UNL     1       1.324  -9.077   3.905  0.00  0.00    +0.000 A 
ATOM     24  C   UNL     1       1.306  -8.815   2.548  0.00  0.00    +0.005 A 
ENDBRANCH  18  19
ENDBRANCH   8  18
BRANCH   5  25
ATOM     25  C   UNL     1       4.963  -4.156  -0.171  0.00  0.00    +0.043 C 
BRANCH  25  26
ATOM     26  C   UNL     1       5.406  -3.785   1.246  0.00  0.00    +0.008 C 
BRANCH  26  27
ATOM     27  C   UNL     1       6.717  -2.999   1.181  0.00  0.00    -0.017 C 
ATOM     28  C   UNL     1       7.094  -2.521   2.584  0.00  0.00    +0.007 C 
ATOM     29  C   UNL     1       7.825  -3.900   0.633  0.00  0.00    +0.007 C 
ENDBRANCH  26  27
ENDBRANCH  25  26
ENDBRANCH   5  25
TORSDOF 7
