REMARK  Name = ZINC09135673
REMARK  8 active torsions:
REMARK  status: ('A' for Active; 'I' for Inactive)
REMARK    1  A    between atoms: C_1  and  C_2
REMARK    2  A    between atoms: C_4  and  N_12
REMARK    3  A    between atoms: C_13  and  C_15
REMARK    4  A    between atoms: N_17  and  C_18
REMARK    5  A    between atoms: C_18  and  C_19
REMARK    6  A    between atoms: C_19  and  C_21
REMARK    7  A    between atoms: C_19  and  N_68
REMARK    8  A    between atoms: N_30  and  C_31
REMARK                            x       y       z     vdW  Elec       q    Type
REMARK                         _______ _______ _______ _____ _____    ______ ____
ROOT
ATOM      1  C   UNL     1      -9.037   4.796   1.877  0.00  0.00    +0.299 C 
ATOM      2  O   UNL     1      -8.391   4.215   2.724  0.00  0.00    -0.265 OA
ATOM      3  N   UNL     1      -9.400   4.156   0.748  0.00  0.00    -0.309 N 
ATOM      4  H   UNL     1      -9.917   4.621   0.072  0.00  0.00    +0.149 HD
ENDROOT
BRANCH   1   6
ATOM      5  N   UNL     1      -9.069   6.862   3.216  0.00  0.00    -0.277 N 
ATOM      6  C   UNL     1      -9.432   6.222   2.087  0.00  0.00    +0.303 C 
ATOM      7  O   UNL     1     -10.078   6.803   1.240  0.00  0.00    -0.265 OA
ATOM      8  H   UNL     1      -8.487   6.424   3.856  0.00  0.00    +0.155 HD
BRANCH   5  12
ATOM      9  C   UNL     1     -10.437  11.283   1.566  0.00  0.00    +0.065 C 
ATOM     10  C   UNL     1     -10.206  10.323   2.705  0.00  0.00    +0.041 A 
ATOM     11  C   UNL     1      -9.751   9.040   2.426  0.00  0.00    +0.047 A 
ATOM     12  C   UNL     1      -9.529   8.149   3.463  0.00  0.00    +0.045 A 
ATOM     13  C   UNL     1      -9.793   8.590   4.782  0.00  0.00    +0.022 A 
ATOM     14  C   UNL     1      -9.601   7.747   5.885  0.00  0.00    +0.012 A 
ATOM     15  C   UNL     1      -9.866   8.208   7.139  0.00  0.00    +0.001 A 
ATOM     16  C   UNL     1     -10.326   9.507   7.340  0.00  0.00    +0.002 A 
ATOM     17  C   UNL     1     -10.524  10.351   6.290  0.00  0.00    +0.028 A 
ATOM     18  C   UNL     1     -10.261   9.911   4.981  0.00  0.00    +0.073 A 
ATOM     19  N   UNL     1     -10.447  10.720   3.932  0.00  0.00    -0.252 NA
ENDBRANCH   5  12
ENDBRANCH   1   6
BRANCH   3  20
ATOM     20  C   UNL     1      -9.014   2.758   0.543  0.00  0.00    +0.094 C 
BRANCH  20  21
ATOM     21  C   UNL     1      -9.441   2.311  -0.857  0.00  0.00    -0.020 C 
BRANCH  21  22
ATOM     22  C   UNL     1     -10.943   2.377  -0.968  0.00  0.00    -0.059 A 
ATOM     23  C   UNL     1     -11.721   1.357  -0.449  0.00  0.00    +0.004 A 
ATOM     24  C   UNL     1     -13.094   1.421  -0.549  0.00  0.00    +0.023 A 
ATOM     25  C   UNL     1     -13.707   2.503  -1.183  0.00  0.00    +0.033 A 
ATOM     26  C   UNL     1     -12.924   3.519  -1.702  0.00  0.00    -0.026 A 
ATOM     27  C   UNL     1     -11.543   3.451  -1.593  0.00  0.00    +0.007 A 
ATOM     28  C   UNL     1     -13.524   4.720  -2.389  0.00  0.00    +0.038 C 
ATOM     29  C   UNL     1     -14.985   4.433  -2.745  0.00  0.00    +0.024 C 
ATOM     30  C   UNL     1     -15.662   3.830  -1.508  0.00  0.00    +0.105 C 
ATOM     31  N   UNL     1     -15.098   2.501  -1.265  0.00  0.00    -0.333 N 
ATOM     32  C   UNL     1     -15.695   1.885  -0.072  0.00  0.00    +0.129 C 
ENDBRANCH  21  22
BRANCH  21  37
ATOM     33  C   UNL     1      -9.371   0.471  -2.449  0.00  0.00    -0.078 C 
ATOM     34  C   UNL     1      -8.406  -0.715  -2.703  0.00  0.00    -0.020 C 
ATOM     35  C   UNL     1      -7.091  -0.237  -2.045  0.00  0.00    -0.020 C 
ATOM     36  C   UNL     1      -7.518   0.837  -1.026  0.00  0.00    -0.078 C 
ATOM     37  N   UNL     1      -8.977   0.912  -1.102  0.00  0.00    +0.385 N 
ATOM     38  H   UNL     1      -9.394   0.292  -0.398  0.00  0.00    -0.081 HD
ENDBRANCH  21  37
ENDBRANCH  20  21
ENDBRANCH   3  20
TORSDOF 6
