REMARK  Name = ZINC12390008
REMARK  4 active torsions:
REMARK  status: ('A' for Active; 'I' for Inactive)
REMARK    1  A    between atoms: C_1  and  O_2
REMARK    2  A    between atoms: O_2  and  C_3
REMARK    3  A    between atoms: C_6  and  C_9
REMARK    4  A    between atoms: C_14  and  C_23
REMARK                            x       y       z     vdW  Elec       q    Type
REMARK                         _______ _______ _______ _____ _____    ______ ____
ROOT
ATOM      1  C   UNL     1       1.084  -2.225  -0.451  0.00  0.00    +0.032 C 
ATOM      2  C   UNL     1       1.867  -2.582   0.811  0.00  0.00    +0.059 C 
ATOM      3  C   UNL     1       1.928  -4.093   0.967  0.00  0.00    +0.019 C 
ATOM      4  C   UNL     1       2.023  -4.892  -0.105  0.00  0.00    +0.037 C 
ATOM      5  C   UNL     1       2.147  -6.400  -0.194  0.00  0.00    +0.137 C 
ATOM      6  N   UNL     1       1.867  -7.121   1.035  0.00  0.00    -0.313 N 
ATOM      7  C   UNL     1       2.631  -6.853   2.170  0.00  0.00    +0.205 A 
ATOM      8  C   UNL     1       2.677  -5.524   2.763  0.00  0.00    +0.208 A 
ATOM      9  N   UNL     1       3.528  -5.527   3.737  0.00  0.00    -0.032 NA
ATOM     10  O   UNL     1       4.028  -6.852   3.857  0.00  0.00    -0.239 OA
ATOM     11  N   UNL     1       3.416  -7.635   2.841  0.00  0.00    -0.032 NA
ATOM     12  N   UNL     1       1.865  -4.515   2.263  0.00  0.00    -0.297 N 
ATOM     13  C   UNL     1       2.003  -4.304  -1.401  0.00  0.00    +0.163 C 
ATOM     14  O   UNL     1       2.129  -5.033  -2.366  0.00  0.00    -0.292 OA
ATOM     15  C   UNL     1       1.835  -2.838  -1.639  0.00  0.00    +0.088 C 
ATOM     16  H   UNL     1       1.158  -7.782   1.066  0.00  0.00    +0.149 HD
ATOM     17  H   UNL     1       1.227  -4.092   2.859  0.00  0.00    +0.153 HD
ENDROOT
BRANCH   1  21
ATOM     18  C   UNL     1       0.886   2.022  -0.888  0.00  0.00    +0.120 A 
ATOM     19  C   UNL     1      -0.281   1.280  -0.771  0.00  0.00    +0.046 A 
ATOM     20  C   UNL     1      -0.214  -0.093  -0.630  0.00  0.00    +0.007 A 
ATOM     21  C   UNL     1       1.014  -0.728  -0.606  0.00  0.00    -0.043 A 
ATOM     22  C   UNL     1       2.178   0.009  -0.722  0.00  0.00    +0.007 A 
ATOM     23  C   UNL     1       2.117   1.382  -0.862  0.00  0.00    +0.046 A 
BRANCH  18  25
ATOM     24  C   UNL     1       2.064   4.071  -1.141  0.00  0.00    +0.277 C 
ATOM     25  O   UNL     1       0.823   3.372  -1.026  0.00  0.00    -0.495 OA
ENDBRANCH  18  25
ENDBRANCH   1  21
BRANCH   5  26
ATOM     26  C   UNL     1       3.551  -6.731  -0.628  0.00  0.00    -0.023 A 
ATOM     27  C   UNL     1       4.615  -6.464   0.213  0.00  0.00    +0.006 A 
ATOM     28  C   UNL     1       5.904  -6.772  -0.183  0.00  0.00    +0.000 A 
ATOM     29  C   UNL     1       6.129  -7.337  -1.424  0.00  0.00    +0.000 A 
ATOM     30  C   UNL     1       5.065  -7.598  -2.267  0.00  0.00    +0.000 A 
ATOM     31  C   UNL     1       3.777  -7.295  -1.869  0.00  0.00    +0.006 A 
ENDBRANCH   5  26
TORSDOF 3
