REMARK  Name = ZINC00193255
REMARK  3 active torsions:
REMARK  status: ('A' for Active; 'I' for Inactive)
REMARK    1  A    between atoms: C_5  and  N_7
REMARK    2  A    between atoms: C_8  and  C_10
REMARK    3  A    between atoms: C_14  and  N_21
REMARK                            x       y       z     vdW  Elec       q    Type
REMARK                         _______ _______ _______ _____ _____    ______ ____
ROOT
ATOM      1  C   UNL     1       1.251   1.965   0.018  0.00  0.00    +0.122 A 
ATOM      2  C   UNL     1       1.247   3.349   0.024  0.00  0.00    +0.031 A 
ATOM      3  C   UNL     1       2.489   4.033   0.032  0.00  0.00    +0.020 A 
ATOM      4  C   UNL     1       2.521   5.436   0.044  0.00  0.00    +0.044 A 
ATOM      5  C   UNL     1       3.720   6.088   0.046  0.00  0.00    +0.127 A 
ATOM      6  C   UNL     1       4.910   5.373   0.037  0.00  0.00    +0.036 A 
ATOM      7  C   UNL     1       4.902   3.995   0.026  0.00  0.00    +0.049 A 
ATOM      8  C   UNL     1       3.693   3.307   0.023  0.00  0.00    +0.139 A 
ATOM      9  O   UNL     1       3.688   1.957   0.012  0.00  0.00    -0.422 OA
ATOM     10  C   UNL     1       2.538   1.261   0.009  0.00  0.00    +0.350 A 
ATOM     11  O   UNL     1       2.566   0.045  -0.002  0.00  0.00    -0.244 OA
ENDROOT
BRANCH   1  13
ATOM     12  N   UNL     1      -1.191   1.870   0.018  0.00  0.00    -0.280 N 
ATOM     13  C   UNL     1      -0.015   1.212   0.015  0.00  0.00    +0.255 C 
ATOM     14  O   UNL     1       0.001  -0.005   0.005  0.00  0.00    -0.270 OA
ATOM     15  H   UNL     1      -1.205   2.837   0.092  0.00  0.00    +0.155 HD
BRANCH  12  20
ATOM     16  C   UNL     1      -3.697  -0.793   0.399  0.00  0.00    +0.002 A 
ATOM     17  C   UNL     1      -4.765  -0.249  -0.292  0.00  0.00    +0.002 A 
ATOM     18  C   UNL     1      -4.649   0.997  -0.880  0.00  0.00    +0.022 A 
ATOM     19  C   UNL     1      -3.465   1.703  -0.780  0.00  0.00    +0.062 A 
ATOM     20  C   UNL     1      -2.391   1.159  -0.086  0.00  0.00    +0.052 A 
ATOM     21  C   UNL     1      -2.510  -0.095   0.499  0.00  0.00    +0.025 A 
ATOM     22 CL   UNL     1      -3.320   3.267  -1.519  0.00  0.00    -0.082 Cl
ENDBRANCH  12  20
ENDBRANCH   1  13
BRANCH   5  23
ATOM     23  N   UNL     1       3.752   7.568   0.058  0.00  0.00    +0.056 N 
ATOM     24  O   UNL     1       4.819   8.154   0.060  0.00  0.00    -0.126 OA
ATOM     25  O   UNL     1       2.710   8.199   0.065  0.00  0.00    -0.126 OA
ENDBRANCH   5  23
TORSDOF 3
