REMARK  Name = ZINC02291765
REMARK  9 active torsions:
REMARK  status: ('A' for Active; 'I' for Inactive)
REMARK    1  A    between atoms: C_1  and  C_2
REMARK    2  A    between atoms: C_6  and  C_21
REMARK    3  A    between atoms: C_7  and  O_8
REMARK    4  A    between atoms: O_8  and  P_9
REMARK    5  A    between atoms: P_9  and  N_11
REMARK    6  A    between atoms: P_9  and  O_12
REMARK    7  A    between atoms: O_12  and  C_13
REMARK    8  A    between atoms: C_14  and  C_20
REMARK    9  A    between atoms: C_18  and  C_19
REMARK                            x       y       z     vdW  Elec       q    Type
REMARK                         _______ _______ _______ _____ _____    ______ ____
ROOT
ATOM      1  P   UNL     1      -1.686   0.239   3.248  0.00  0.00    +0.514 P 
ATOM      2  O   UNL     1      -2.785   0.901   2.510  0.00  0.00    -0.216 OA
ENDROOT
BRANCH   1   3
ATOM      3  N   UNL     1      -2.093  -1.319   3.555  0.00  0.00    -0.215 NA
ATOM      4  H   UNL     1      -1.515  -1.872   4.104  0.00  0.00    +0.132 HD
ATOM      5  H   UNL     1      -2.912  -1.688   3.189  0.00  0.00    +0.132 HD
ENDBRANCH   1   3
BRANCH   1   6
ATOM      6  O   UNL     1      -0.344   0.278   2.359  0.00  0.00    -0.404 OA
BRANCH   6  13
ATOM      7  C   UNL     1      -0.961   2.367   0.560  0.00  0.00    +0.047 C 
ATOM      8  C   UNL     1      -0.841   0.929   0.125  0.00  0.00    -0.008 A 
ATOM      9  C   UNL     1      -1.029   0.590  -1.201  0.00  0.00    +0.007 A 
ATOM     10  C   UNL     1      -0.918  -0.730  -1.600  0.00  0.00    +0.001 A 
ATOM     11  C   UNL     1      -0.620  -1.712  -0.674  0.00  0.00    +0.007 A 
ATOM     12  C   UNL     1      -0.431  -1.378   0.653  0.00  0.00    -0.008 A 
ATOM     13  C   UNL     1      -0.535  -0.054   1.055  0.00  0.00    +0.138 A 
ATOM     14  C   UNL     1      -0.106  -2.449   1.661  0.00  0.00    +0.047 C 
ENDBRANCH   6  13
ENDBRANCH   1   6
BRANCH   1  15
ATOM     15  O   UNL     1      -1.431   1.012   4.638  0.00  0.00    -0.404 OA
BRANCH  15  16
ATOM     16  C   UNL     1      -2.564   1.267   5.343  0.00  0.00    +0.138 A 
ATOM     17  C   UNL     1      -2.958   0.408   6.359  0.00  0.00    -0.008 A 
ATOM     18  C   UNL     1      -4.110   0.671   7.075  0.00  0.00    +0.007 A 
ATOM     19  C   UNL     1      -4.869   1.788   6.781  0.00  0.00    +0.001 A 
ATOM     20  C   UNL     1      -4.478   2.646   5.770  0.00  0.00    +0.007 A 
ATOM     21  C   UNL     1      -3.324   2.391   5.054  0.00  0.00    -0.008 A 
ATOM     22  C   UNL     1      -2.895   3.329   3.956  0.00  0.00    +0.047 C 
ATOM     23  C   UNL     1      -2.132  -0.810   6.679  0.00  0.00    +0.047 C 
ENDBRANCH  15  16
ENDBRANCH   1  15
TORSDOF 5
