REMARK  Name = ZINC24946480
REMARK  2 active torsions:
REMARK  status: ('A' for Active; 'I' for Inactive)
REMARK    1  A    between atoms: C_6  and  C_7
REMARK    2  A    between atoms: N_9  and  C_10
REMARK                            x       y       z     vdW  Elec       q    Type
REMARK                         _______ _______ _______ _____ _____    ______ ____
ROOT
ATOM      1  C   UNL     1      -1.122   1.729   0.017  0.00  0.00    +0.248 C 
ATOM      2  O   UNL     1      -1.029   2.938  -0.076  0.00  0.00    -0.270 OA
ATOM      3  N   UNL     1      -0.011   0.966   0.007  0.00  0.00    -0.280 N 
ATOM      4  H   UNL     1      -0.097  -0.131   0.021  0.00  0.00    +0.155 HD
ENDROOT
BRANCH   1  10
ATOM      5  C   UNL     1      -2.555  -0.291   0.240  0.00  0.00    +0.014 A 
ATOM      6  C   UNL     1      -3.794  -0.883   0.360  0.00  0.00    +0.017 A 
ATOM      7  C   UNL     1      -4.938  -0.096   0.369  0.00  0.00    +0.029 A 
ATOM      8  C   UNL     1      -4.840   1.293   0.264  0.00  0.00    +0.048 A 
ATOM      9  C   UNL     1      -3.602   1.891   0.149  0.00  0.00    +0.037 A 
ATOM     10  C   UNL     1      -2.449   1.099   0.139  0.00  0.00    +0.039 A 
ATOM     11  N   UNL     1      -6.009   2.070   0.279  0.00  0.00    -0.285 N 
ATOM     12  C   UNL     1      -6.922   1.899   1.243  0.00  0.00    +0.218 C 
ATOM     13  O   UNL     1      -8.006   2.433   1.137  0.00  0.00    -0.275 OA
ATOM     14  C   UNL     1      -6.630   1.060   2.452  0.00  0.00    +0.107 C 
ATOM     15  C   UNL     1      -7.047  -0.400   2.206  0.00  0.00    +0.083 C 
ATOM     16  S   UNL     1      -6.534  -0.837   0.511  0.00  0.00    -0.123 S 
ATOM     17  H   UNL     1      -6.179   2.824  -0.504  0.00  0.00    +0.155 HD
ENDBRANCH   1  10
BRANCH   3  18
ATOM     18  C   UNL     1       1.253   1.569  -0.020  0.00  0.00    +0.051 A 
ATOM     19  C   UNL     1       1.443   2.752  -0.721  0.00  0.00    +0.073 A 
ATOM     20  C   UNL     1       2.693   3.351  -0.743  0.00  0.00    +0.164 A 
ATOM     21  C   UNL     1       3.757   2.761  -0.071  0.00  0.00    +0.163 A 
ATOM     22  C   UNL     1       3.565   1.576   0.624  0.00  0.00    +0.066 A 
ATOM     23  C   UNL     1       2.318   0.980   0.650  0.00  0.00    +0.043 A 
ATOM     24 BR   UNL     1       2.062  -0.637   1.596  0.00  0.00    -0.048 Br
ATOM     25  O   UNL     1       4.992   3.334  -0.082  0.00  0.00    -0.485 OA
ATOM     26  C   UNL     1       5.235   4.319  -1.093  0.00  0.00    +0.270 C 
ATOM     27  C   UNL     1       4.035   5.276  -1.130  0.00  0.00    +0.270 C 
ATOM     28  O   UNL     1       2.863   4.512  -1.434  0.00  0.00    -0.485 OA
ENDBRANCH   3  18
TORSDOF 2
