REMARK  Name = ZINC36684453
REMARK  13 active torsions:
REMARK  status: ('A' for Active; 'I' for Inactive)
REMARK    1  A    between atoms: C_1  and  O_2
REMARK    2  A    between atoms: O_2  and  C_3
REMARK    3  A    between atoms: C_8  and  C_9
REMARK    4  A    between atoms: N_11  and  C_12
REMARK    5  A    between atoms: C_12  and  C_14
REMARK    6  A    between atoms: C_12  and  C_18
REMARK    7  A    between atoms: C_14  and  C_15
REMARK    8  A    between atoms: C_15  and  S_16
REMARK    9  A    between atoms: S_16  and  C_17
REMARK   10  A    between atoms: N_20  and  C_21
REMARK   11  A    between atoms: C_21  and  C_22
REMARK   12  A    between atoms: C_22  and  C_24
REMARK   13  A    between atoms: C_22  and  N_29
REMARK                            x       y       z     vdW  Elec       q    Type
REMARK                         _______ _______ _______ _____ _____    ______ ____
ROOT
ATOM      1  C   UNL     1      -0.359  -6.858  -0.339  0.00  0.00    +0.233 C 
ATOM      2  O   UNL     1       0.304  -7.330   0.561  0.00  0.00    -0.274 OA
ATOM      3  N   UNL     1      -0.494  -7.530  -1.500  0.00  0.00    -0.315 N 
ATOM      4  H   UNL     1      -1.024  -7.153  -2.219  0.00  0.00    +0.149 HD
ENDROOT
BRANCH   1   5
ATOM      5  C   UNL     1      -1.031  -5.522  -0.160  0.00  0.00    +0.160 C 
BRANCH   5   8
ATOM      6  C   UNL     1      -0.772  -3.673   1.407  0.00  0.00    +0.248 C 
ATOM      7  O   UNL     1      -1.054  -2.908   0.505  0.00  0.00    -0.270 OA
ATOM      8  N   UNL     1      -0.733  -5.001   1.177  0.00  0.00    -0.300 N 
ATOM      9  H   UNL     1      -0.508  -5.611   1.896  0.00  0.00    +0.150 HD
BRANCH   6  15
ATOM     10  C   UNL     1      -0.510  -1.770   2.997  0.00  0.00    +0.132 A 
ATOM     11  C   UNL     1      -0.232  -1.288   4.268  0.00  0.00    +0.046 A 
ATOM     12  C   UNL     1       0.087  -2.165   5.285  0.00  0.00    +0.004 A 
ATOM     13  C   UNL     1       0.133  -3.529   5.047  0.00  0.00    +0.001 A 
ATOM     14  C   UNL     1      -0.141  -4.024   3.791  0.00  0.00    +0.017 A 
ATOM     15  C   UNL     1      -0.472  -3.149   2.753  0.00  0.00    +0.078 A 
BRANCH  10  17
ATOM     16  C   UNL     1      -0.844   0.482   2.319  0.00  0.00    +0.277 C 
ATOM     17  O   UNL     1      -0.824  -0.909   1.996  0.00  0.00    -0.494 OA
ENDBRANCH  10  17
ENDBRANCH   6  15
ENDBRANCH   5   8
BRANCH   5  18
ATOM     18  C   UNL     1      -2.544  -5.686  -0.317  0.00  0.00    +0.042 C 
BRANCH  18  19
ATOM     19  C   UNL     1      -3.215  -4.313  -0.259  0.00  0.00    +0.071 C 
BRANCH  19  20
ATOM     20  S   UNL     1      -5.009  -4.508  -0.446  0.00  0.00    -0.164 S 
ATOM     21  C   UNL     1      -5.647  -2.812  -0.356  0.00  0.00    +0.084 C 
ENDBRANCH  19  20
ENDBRANCH  18  19
ENDBRANCH   5  18
ENDBRANCH   1   5
BRANCH   3  22
ATOM     22  C   UNL     1       0.160  -8.829  -1.674  0.00  0.00    +0.096 C 
BRANCH  22  23
ATOM     23  C   UNL     1      -0.257  -9.433  -3.017  0.00  0.00    +0.016 C 
BRANCH  23  24
ATOM     24  N   UNL     1      -1.721  -9.539  -3.074  0.00  0.00    +0.387 N 
ATOM     25  C   UNL     1      -2.200 -10.307  -1.919  0.00  0.00    -0.078 C 
ATOM     26  C   UNL     1      -3.729 -10.351  -1.929  0.00  0.00    -0.019 C 
ATOM     27  C   UNL     1      -4.207 -11.019  -3.221  0.00  0.00    -0.004 C 
ATOM     28  C   UNL     1      -3.640 -10.252  -4.420  0.00  0.00    -0.019 C 
ATOM     29  C   UNL     1      -2.114 -10.212  -4.317  0.00  0.00    -0.078 C 
ATOM     30  H   UNL     1      -2.125  -8.614  -3.051  0.00  0.00    -0.081 HD
ENDBRANCH  23  24
BRANCH  23  31
ATOM     31  C   UNL     1       0.352 -10.805  -3.161  0.00  0.00    +0.093 A 
ATOM     32  C   UNL     1       1.355 -11.136  -3.993  0.00  0.00    +0.043 A 
ATOM     33  C   UNL     1       1.606 -12.514  -3.803  0.00  0.00    +0.041 A 
ATOM     34  C   UNL     1       0.741 -12.943  -2.866  0.00  0.00    +0.195 A 
ATOM     35  O   UNL     1      -0.013 -11.901  -2.477  0.00  0.00    -0.469 OA
ENDBRANCH  23  31
ENDBRANCH  22  23
ENDBRANCH   3  22
TORSDOF 11
