REMARK  Name = ZINC36558109
REMARK  15 active torsions:
REMARK  status: ('A' for Active; 'I' for Inactive)
REMARK    1  A    between atoms: C_1  and  C_2
REMARK    2  A    between atoms: C_2  and  C_3
REMARK    3  A    between atoms: C_3  and  C_4
REMARK    4  A    between atoms: C_4  and  C_5
REMARK    5  A    between atoms: C_5  and  C_7
REMARK    6  A    between atoms: C_5  and  C_9
REMARK    7  A    between atoms: C_7  and  C_8
REMARK    8  A    between atoms: N_11  and  C_12
REMARK    9  A    between atoms: N_11  and  C_19
REMARK   10  A    between atoms: C_12  and  C_13
REMARK   11  A    between atoms: C_16  and  C_18
REMARK   12  A    between atoms: C_19  and  C_21
REMARK   13  A    between atoms: C_19  and  C_31
REMARK   14  A    between atoms: C_23  and  N_28
REMARK   15  A    between atoms: N_33  and  C_34
REMARK                            x       y       z     vdW  Elec       q    Type
REMARK                         _______ _______ _______ _____ _____    ______ ____
ROOT
ATOM      1  C   UNL     1       1.355  -6.240  -3.404  0.00  0.00    +0.194 C 
ENDROOT
BRANCH   1   2
ATOM      2  C   UNL     1      -0.102  -6.343  -3.033  0.00  0.00    +0.002 A 
ATOM      3  C   UNL     1      -0.471  -6.443  -1.704  0.00  0.00    +0.040 A 
ATOM      4  C   UNL     1      -1.807  -6.539  -1.364  0.00  0.00    +0.127 A 
ATOM      5  C   UNL     1      -2.775  -6.534  -2.351  0.00  0.00    +0.034 A 
ATOM      6  C   UNL     1      -2.407  -6.434  -3.679  0.00  0.00    +0.022 A 
ATOM      7  C   UNL     1      -1.070  -6.333  -4.021  0.00  0.00    +0.047 A 
ATOM      8 CL   UNL     1      -0.607  -6.200  -5.689  0.00  0.00    -0.083 Cl
BRANCH   4   9
ATOM      9  N   UNL     1      -2.202  -6.646   0.059  0.00  0.00    +0.056 N 
ATOM     10  O   UNL     1      -1.355  -6.744   0.916  0.00  0.00    -0.126 OA
ATOM     11  O   UNL     1      -3.372  -6.636   0.364  0.00  0.00    -0.126 OA
ENDBRANCH   4   9
ENDBRANCH   1   2
BRANCH   1  12
ATOM     12  C   UNL     1       2.204  -6.643  -2.226  0.00  0.00    +0.238 C 
ATOM     13  O   UNL     1       2.915  -5.824  -1.682  0.00  0.00    -0.273 OA
ATOM     14  N   UNL     1       2.172  -7.913  -1.776  0.00  0.00    -0.311 N 
ATOM     15  H   UNL     1       1.660  -8.584  -2.254  0.00  0.00    +0.149 HD
BRANCH  14  16
ATOM     16  C   UNL     1       2.911  -8.280  -0.565  0.00  0.00    +0.073 C 
ATOM     17  C   UNL     1       4.362  -8.600  -0.931  0.00  0.00    +0.022 C 
ATOM     18  C   UNL     1       5.134  -8.983   0.333  0.00  0.00    +0.002 C 
ATOM     19  C   UNL     1       4.486 -10.213   0.974  0.00  0.00    +0.000 C 
ATOM     20  C   UNL     1       3.035  -9.892   1.339  0.00  0.00    +0.002 C 
ATOM     21  C   UNL     1       2.263  -9.509   0.075  0.00  0.00    +0.022 C 
ENDBRANCH  14  16
ENDBRANCH   1  12
BRANCH   1  24
ATOM     22  C   UNL     1       1.366  -3.848  -2.940  0.00  0.00    +0.220 C 
ATOM     23  O   UNL     1       0.901  -4.086  -1.846  0.00  0.00    -0.275 OA
ATOM     24  N   UNL     1       1.666  -4.858  -3.780  0.00  0.00    -0.278 N 
BRANCH  22  25
ATOM     25  C   UNL     1       1.607  -2.421  -3.362  0.00  0.00    +0.075 C 
BRANCH  25  26
ATOM     26  C   UNL     1       0.638  -2.050  -4.486  0.00  0.00    +0.009 C 
ATOM     27  C   UNL     1      -0.799  -2.121  -3.964  0.00  0.00    +0.004 C 
ENDBRANCH  25  26
BRANCH  25  28
ATOM     28  C   UNL     1       1.383  -1.491  -2.167  0.00  0.00    +0.013 C 
BRANCH  28  29
ATOM     29  C   UNL     1       1.758  -0.060  -2.558  0.00  0.00    +0.000 C 
BRANCH  29  31
ATOM     30  C   UNL     1       1.808   2.317  -1.790  0.00  0.00    +0.004 C 
ATOM     31  C   UNL     1       1.433   0.886  -1.400  0.00  0.00    -0.003 C 
ENDBRANCH  29  31
ENDBRANCH  28  29
ENDBRANCH  25  28
ENDBRANCH  22  25
BRANCH  24  32
ATOM     32  C   UNL     1       2.304  -4.575  -5.068  0.00  0.00    +0.183 C 
BRANCH  32  33
ATOM     33  C   UNL     1       3.800  -4.551  -4.893  0.00  0.00    +0.122 A 
ATOM     34  C   UNL     1       4.635  -5.583  -5.109  0.00  0.00    +0.046 A 
ATOM     35  C   UNL     1       5.940  -5.121  -4.824  0.00  0.00    +0.045 A 
ATOM     36  C   UNL     1       5.826  -3.834  -4.452  0.00  0.00    +0.102 A 
ATOM     37  O   UNL     1       4.528  -3.492  -4.501  0.00  0.00    -0.463 OA
ATOM     38  C   UNL     1       6.961  -2.928  -4.052  0.00  0.00    +0.086 C 
ENDBRANCH  32  33
ENDBRANCH  24  32
ENDBRANCH   1  24
TORSDOF 12
