REMARK  Name = ZINC36562109
REMARK  18 active torsions:
REMARK  status: ('A' for Active; 'I' for Inactive)
REMARK    1  A    between atoms: C_1  and  C_2
REMARK    2  A    between atoms: C_2  and  C_3
REMARK    3  A    between atoms: C_3  and  N_4
REMARK    4  A    between atoms: N_4  and  C_5
REMARK    5  A    between atoms: C_5  and  C_7
REMARK    6  A    between atoms: C_5  and  C_12
REMARK    7  A    between atoms: C_7  and  C_8
REMARK    8  A    between atoms: C_7  and  C_10
REMARK    9  A    between atoms: C_8  and  C_9
REMARK   10  A    between atoms: C_10  and  C_11
REMARK   11  A    between atoms: N_14  and  C_15
REMARK   12  A    between atoms: C_15  and  S_16
REMARK   13  A    between atoms: S_16  and  C_19
REMARK   14  A    between atoms: C_22  and  C_25
REMARK   15  A    between atoms: C_26  and  C_28
REMARK   16  A    between atoms: C_36  and  C_38
REMARK   17  A    between atoms: C_39  and  C_40
REMARK   18  A    between atoms: C_39  and  C_41
REMARK                            x       y       z     vdW  Elec       q    Type
REMARK                         _______ _______ _______ _____ _____    ______ ____
ROOT
ATOM      1  C   UNL     1      -0.925  -2.504   1.317  0.00  0.00    +0.165 C 
ENDROOT
BRANCH   1   2
ATOM      2  C   UNL     1      -2.201  -1.768   1.635  0.00  0.00    +0.235 C 
ATOM      3  O   UNL     1      -2.761  -1.126   0.773  0.00  0.00    -0.274 OA
ATOM      4  N   UNL     1      -2.719  -1.825   2.878  0.00  0.00    -0.295 N 
ATOM      5  H   UNL     1      -2.233  -2.275   3.586  0.00  0.00    +0.150 HD
BRANCH   4   6
ATOM      6  C   UNL     1      -4.016  -1.204   3.159  0.00  0.00    +0.278 C 
BRANCH   6   7
ATOM      7  S   UNL     1      -5.325  -2.453   3.025  0.00  0.00    +0.013 S 
ATOM      8  O   UNL     1      -6.583  -1.882   3.357  0.00  0.00    -0.168 OA
ATOM      9  O   UNL     1      -5.164  -3.205   1.829  0.00  0.00    -0.168 OA
BRANCH   7  10
ATOM     10  C   UNL     1      -4.995  -3.597   4.323  0.00  0.00    +0.090 A 
ATOM     11  C   UNL     1      -4.173  -4.685   4.094  0.00  0.00    +0.027 A 
ATOM     12  C   UNL     1      -3.913  -5.582   5.112  0.00  0.00    +0.005 A 
ATOM     13  C   UNL     1      -4.476  -5.392   6.361  0.00  0.00    -0.050 A 
ATOM     14  C   UNL     1      -5.297  -4.305   6.590  0.00  0.00    +0.005 A 
ATOM     15  C   UNL     1      -5.553  -3.405   5.573  0.00  0.00    +0.027 A 
ATOM     16  C   UNL     1      -4.194  -6.372   7.471  0.00  0.00    +0.044 C 
ENDBRANCH   7  10
ENDBRANCH   6   7
ENDBRANCH   4   6
ENDBRANCH   1   2
BRANCH   1  17
ATOM     17  N   UNL     1      -0.683  -2.461  -0.128  0.00  0.00    -0.289 N 
ATOM     18  C   UNL     1      -0.484  -3.604  -0.812  0.00  0.00    +0.220 C 
ATOM     19  O   UNL     1      -0.456  -4.665  -0.225  0.00  0.00    -0.275 OA
BRANCH  18  20
ATOM     20  C   UNL     1      -0.295  -3.564  -2.318  0.00  0.00    +0.079 C 
ATOM     21  C   UNL     1      -1.655  -3.363  -2.978  0.00  0.00    +0.017 C 
ATOM     22  C   UNL     1      -1.798  -4.143  -4.283  0.00  0.00    -0.004 C 
ATOM     23  C   UNL     1      -1.606  -5.658  -4.057  0.00  0.00    +0.008 C 
ATOM     24  C   UNL     1      -0.096  -5.319  -4.135  0.00  0.00    -0.001 C 
ATOM     25  C   UNL     1       0.387  -4.853  -2.761  0.00  0.00    +0.001 C 
ATOM     26  C   UNL     1       1.910  -4.692  -2.745  0.00  0.00    +0.008 C 
ATOM     27  C   UNL     1      -0.507  -4.215  -5.111  0.00  0.00    -0.029 C 
ATOM     28  C   UNL     1      -0.741  -4.730  -6.545  0.00  0.00    +0.011 C 
ATOM     29  C   UNL     1       0.339  -2.946  -5.122  0.00  0.00    +0.011 C 
ENDBRANCH  18  20
BRANCH  17  30
ATOM     30  C   UNL     1      -0.658  -1.174  -0.828  0.00  0.00    +0.108 C 
BRANCH  30  32
ATOM     31  C   UNL     1       0.818   0.551  -1.871  0.00  0.00    +0.005 C 
ATOM     32  C   UNL     1       0.787  -0.810  -1.174  0.00  0.00    +0.016 C 
ENDBRANCH  30  32
ENDBRANCH  17  30
ENDBRANCH   1  17
BRANCH   1  33
ATOM     33  C   UNL     1       0.243  -1.841   2.050  0.00  0.00    +0.018 C 
BRANCH  33  34
ATOM     34  C   UNL     1       1.562  -2.425   1.541  0.00  0.00    +0.002 C 
ATOM     35  C   UNL     1       1.696  -3.873   2.018  0.00  0.00    +0.004 C 
ENDBRANCH  33  34
BRANCH  33  36
ATOM     36  C   UNL     1       0.219  -0.333   1.788  0.00  0.00    +0.002 C 
ATOM     37  C   UNL     1      -0.964   0.294   2.529  0.00  0.00    +0.004 C 
ENDBRANCH  33  36
ENDBRANCH   1  33
TORSDOF 11
