REMARK  Name = ZINC16545802
REMARK  6 active torsions:
REMARK  status: ('A' for Active; 'I' for Inactive)
REMARK    1  A    between atoms: C_6  and  C_11
REMARK    2  A    between atoms: C_11  and  N_12
REMARK    3  A    between atoms: C_19  and  C_22
REMARK    4  A    between atoms: C_19  and  O_30
REMARK    5  A    between atoms: C_22  and  C_23
REMARK    6  A    between atoms: C_23  and  C_25
REMARK                            x       y       z     vdW  Elec       q    Type
REMARK                         _______ _______ _______ _____ _____    ______ ____
ROOT
ATOM      1  N   UNL     1      -2.900   0.706   1.401  0.00  0.00    -0.264 N 
ATOM      2  C   UNL     1      -3.717   1.560   2.143  0.00  0.00    +0.043 A 
ATOM      3  C   UNL     1      -4.309   2.776   1.805  0.00  0.00    +0.025 A 
ATOM      4  C   UNL     1      -5.089   3.446   2.725  0.00  0.00    +0.017 A 
ATOM      5  C   UNL     1      -5.290   2.918   3.988  0.00  0.00    +0.018 A 
ATOM      6  C   UNL     1      -4.705   1.711   4.331  0.00  0.00    +0.024 A 
ATOM      7  C   UNL     1      -3.927   1.041   3.414  0.00  0.00    +0.016 A 
ATOM      8  C   UNL     1      -3.167  -0.264   3.471  0.00  0.00    +0.176 C 
ATOM      9  C   UNL     1      -2.539  -0.385   2.098  0.00  0.00    +0.257 C 
ATOM     10  O   UNL     1      -1.839  -1.293   1.703  0.00  0.00    -0.272 OA
ATOM     11 BR   UNL     1      -6.360   3.844   5.243  0.00  0.00    -0.050 Br
ENDROOT
BRANCH   8  12
ATOM     12  O   UNL     1      -4.061  -1.355   3.704  0.00  0.00    -0.374 OA
ATOM     13  H   UNL     1      -3.626  -2.217   3.750  0.00  0.00    +0.211 HD
ENDBRANCH   8  12
BRANCH   1  14
ATOM     14  C   UNL     1      -2.489   0.965   0.019  0.00  0.00    +0.149 C 
BRANCH  14  20
ATOM     15  C   UNL     1       3.544   3.270  -0.015  0.00  0.00    +0.001 A 
ATOM     16  C   UNL     1       3.583   1.877  -0.022  0.00  0.00    +0.001 A 
ATOM     17  C   UNL     1       2.436   1.144  -0.015  0.00  0.00    +0.008 A 
ATOM     18  C   UNL     1       1.193   1.799   0.000  0.00  0.00    -0.018 A 
ATOM     19  C   UNL     1      -0.013   1.076   0.008  0.00  0.00    +0.013 A 
ATOM     20  C   UNL     1      -1.198   1.744   0.017  0.00  0.00    -0.029 A 
ATOM     21  C   UNL     1      -1.237   3.137   0.031  0.00  0.00    +0.006 A 
ATOM     22  C   UNL     1      -0.090   3.870   0.023  0.00  0.00    +0.009 A 
ATOM     23  C   UNL     1       1.153   3.215   0.008  0.00  0.00    -0.018 A 
ATOM     24  C   UNL     1       2.358   3.938  -0.001  0.00  0.00    +0.008 A 
ENDBRANCH  14  20
ENDBRANCH   1  14
BRANCH   8  25
ATOM     25  C   UNL     1      -2.089  -0.211   4.556  0.00  0.00    +0.132 C 
BRANCH  25  26
ATOM     26  C   UNL     1      -1.267  -1.473   4.510  0.00  0.00    +0.201 C 
ATOM     27  O   UNL     1      -1.519  -2.332   3.690  0.00  0.00    -0.289 OA
BRANCH  26  28
ATOM     28  C   UNL     1      -0.204  -1.657   5.422  0.00  0.00    +0.170 A 
ATOM     29  C   UNL     1       0.626  -2.758   5.493  0.00  0.00    +0.053 A 
ATOM     30  C   UNL     1       1.528  -2.511   6.537  0.00  0.00    +0.042 A 
ATOM     31  C   UNL     1       1.222  -1.298   7.052  0.00  0.00    +0.196 A 
ATOM     32  O   UNL     1       0.186  -0.785   6.377  0.00  0.00    -0.460 OA
ENDBRANCH  26  28
ENDBRANCH  25  26
ENDBRANCH   8  25
TORSDOF 6
