REMARK  Name = ZINC48941538
REMARK  8 active torsions:
REMARK  status: ('A' for Active; 'I' for Inactive)
REMARK    1  A    between atoms: C_1  and  C_2
REMARK    2  A    between atoms: C_4  and  C_8
REMARK    3  A    between atoms: N_10  and  C_11
REMARK    4  A    between atoms: C_11  and  C_13
REMARK    5  A    between atoms: C_11  and  C_18
REMARK    6  A    between atoms: C_18  and  C_19
REMARK    7  A    between atoms: C_18  and  C_20
REMARK    8  A    between atoms: C_18  and  C_21
REMARK                            x       y       z     vdW  Elec       q    Type
REMARK                         _______ _______ _______ _____ _____    ______ ____
ROOT
ATOM      1  C   UNL     1       0.041  -3.356  -1.443  0.00  0.00    +0.263 C 
ATOM      2  O   UNL     1       0.034  -3.300  -2.658  0.00  0.00    -0.268 OA
ATOM      3  N   UNL     1       0.061  -4.554  -0.825  0.00  0.00    -0.302 N 
ATOM      4  H   UNL     1       0.067  -4.599   0.144  0.00  0.00    +0.150 HD
ENDROOT
BRANCH   1   8
ATOM      5  C   UNL     1      -0.018   1.503   0.010  0.00  0.00    +0.068 C 
ATOM      6  C   UNL     1       0.002  -0.004   0.002  0.00  0.00    +0.074 A 
ATOM      7  C   UNL     1       0.008  -0.821  -1.132  0.00  0.00    +0.070 A 
ATOM      8  C   UNL     1       0.028  -2.119  -0.649  0.00  0.00    +0.134 A 
ATOM      9  N   UNL     1       0.033  -2.018   0.714  0.00  0.00    -0.271 N 
ATOM     10  H   UNL     1       0.047  -2.768   1.330  0.00  0.00    +0.189 HD
ATOM     11  N   UNL     1       0.023  -0.780   1.055  0.00  0.00    -0.177 NA
ATOM     12 BR   UNL     1      -0.009  -0.271  -2.942  0.00  0.00    -0.046 Br
ENDBRANCH   1   8
BRANCH   3  13
ATOM     13  C   UNL     1       0.073  -5.787  -1.616  0.00  0.00    +0.116 C 
BRANCH  13  14
ATOM     14  C   UNL     1       0.694  -6.896  -0.807  0.00  0.00    +0.010 A 
ATOM     15  C   UNL     1       1.549  -7.869  -1.206  0.00  0.00    +0.013 A 
ATOM     16  C   UNL     1       1.994  -8.792  -0.279  0.00  0.00    +0.008 A 
ATOM     17  C   UNL     1       1.562  -8.698   1.002  0.00  0.00    +0.045 A 
ATOM     18  S   UNL     1       0.498  -7.267   0.929  0.00  0.00    -0.100 S 
ENDBRANCH  13  14
BRANCH  13  19
ATOM     19  C   UNL     1      -1.361  -6.168  -1.990  0.00  0.00    -0.015 C 
ATOM     20  C   UNL     1      -1.990  -5.041  -2.811  0.00  0.00    +0.013 C 
ATOM     21  C   UNL     1      -1.347  -7.455  -2.816  0.00  0.00    +0.013 C 
ATOM     22  C   UNL     1      -2.178  -6.388  -0.715  0.00  0.00    +0.013 C 
ENDBRANCH  13  19
ENDBRANCH   3  13
TORSDOF 4
