REMARK  Name = ZINC35314299
REMARK  7 active torsions:
REMARK  status: ('A' for Active; 'I' for Inactive)
REMARK    1  A    between atoms: C_1  and  C_2
REMARK    2  A    between atoms: C_2  and  C_3
REMARK    3  A    between atoms: C_2  and  C_4
REMARK    4  A    between atoms: C_12  and  N_27
REMARK    5  A    between atoms: C_13  and  C_17
REMARK    6  A    between atoms: N_19  and  C_20
REMARK    7  A    between atoms: C_20  and  C_21
REMARK                            x       y       z     vdW  Elec       q    Type
REMARK                         _______ _______ _______ _____ _____    ______ ____
ROOT
ATOM      1  C   UNL     1      -1.412  -0.526   0.013  0.00  0.00    -0.044 A 
ATOM      2  C   UNL     1      -2.258  -0.195   1.071  0.00  0.00    +0.006 A 
ATOM      3  C   UNL     1      -3.540  -0.649   1.111  0.00  0.00    +0.026 A 
ATOM      4  C   UNL     1      -4.025  -1.465   0.073  0.00  0.00    +0.047 A 
ATOM      5  C   UNL     1      -3.164  -1.802  -1.004  0.00  0.00    -0.001 A 
ATOM      6  C   UNL     1      -1.845  -1.307  -1.012  0.00  0.00    +0.014 A 
ATOM      7  C   UNL     1      -3.635  -2.612  -2.042  0.00  0.00    +0.022 A 
ATOM      8  C   UNL     1      -4.961  -3.079  -1.993  0.00  0.00    +0.028 A 
ATOM      9  C   UNL     1      -5.655  -3.927  -2.954  0.00  0.00    +0.053 A 
ATOM     10  C   UNL     1      -6.964  -4.264  -2.704  0.00  0.00    +0.097 A 
ATOM     11  S   UNL     1      -7.317  -3.450  -1.159  0.00  0.00    -0.064 S 
ATOM     12  C   UNL     1      -5.740  -2.684  -0.871  0.00  0.00    +0.088 A 
ATOM     13  N   UNL     1      -5.279  -1.924   0.090  0.00  0.00    -0.349 N 
ATOM     14  H   UNL     1      -5.861  -1.689   0.830  0.00  0.00    +0.166 HD
ENDROOT
BRANCH  10  15
ATOM     15  C   UNL     1      -7.828  -5.067  -3.489  0.00  0.00    +0.253 C 
ATOM     16  O   UNL     1      -7.428  -5.554  -4.531  0.00  0.00    -0.270 OA
ATOM     17  N   UNL     1      -9.094  -5.292  -3.082  0.00  0.00    -0.308 N 
ATOM     18  H   UNL     1      -9.413  -4.904  -2.252  0.00  0.00    +0.149 HD
BRANCH  17  19
ATOM     19  C   UNL     1      -9.987  -6.122  -3.894  0.00  0.00    +0.136 C 
BRANCH  19  20
ATOM     20  C   UNL     1     -11.354  -6.218  -3.213  0.00  0.00    +0.135 C 
ATOM     21  C   UNL     1     -12.304  -7.121  -4.038  0.00  0.00    +0.035 C 
ATOM     22  C   UNL     1     -13.292  -7.594  -2.937  0.00  0.00    +0.031 C 
ATOM     23  C   UNL     1     -12.377  -7.692  -1.697  0.00  0.00    +0.160 C 
ATOM     24  O   UNL     1     -11.230  -6.866  -1.937  0.00  0.00    -0.375 OA
ENDBRANCH  19  20
ENDBRANCH  17  19
ENDBRANCH  10  15
BRANCH   1  26
ATOM     25  C   UNL     1      -0.019   1.526   0.010  0.00  0.00    +0.012 C 
ATOM     26  C   UNL     1       0.002  -0.004   0.002  0.00  0.00    +0.013 C 
ATOM     27  C   UNL     1       0.742  -0.511   1.242  0.00  0.00    +0.012 C 
ENDBRANCH   1  26
BRANCH   9  28
ATOM     28  N   UNL     1      -5.010  -4.382  -4.095  0.00  0.00    -0.356 N 
ATOM     29  H   UNL     1      -4.086  -4.137  -4.260  0.00  0.00    +0.142 HD
ATOM     30  H   UNL     1      -5.483  -4.946  -4.727  0.00  0.00    +0.142 HD
ENDBRANCH   9  28
TORSDOF 5
