REMARK  Name = ZINC39232116
REMARK  7 active torsions:
REMARK  status: ('A' for Active; 'I' for Inactive)
REMARK    1  A    between atoms: C_1  and  C_2
REMARK    2  A    between atoms: C_5  and  N_9
REMARK    3  A    between atoms: C_7  and  C_8
REMARK    4  A    between atoms: C_13  and  C_15
REMARK    5  A    between atoms: C_15  and  S_16
REMARK    6  A    between atoms: S_16  and  C_17
REMARK    7  A    between atoms: N_22  and  C_23
REMARK                            x       y       z     vdW  Elec       q    Type
REMARK                         _______ _______ _______ _____ _____    ______ ____
ROOT
ATOM      1  S   UNL     1       0.092  -6.638   3.550  0.00  0.00    -0.117 S 
ENDROOT
BRANCH   1   2
ATOM      2  C   UNL     1       0.112  -8.096   4.629  0.00  0.00    +0.202 C 
ATOM      3  N   UNL     1       1.297  -8.938   4.332  0.00  0.00    -0.320 NA
ATOM      4  N   UNL     1       0.757 -10.305   4.437  0.00  0.00    +0.411 N 
ATOM      5  N   UNL     1      -0.604 -10.159   3.901  0.00  0.00    -0.265 NA
ATOM      6  N   UNL     1      -1.061  -8.945   4.359  0.00  0.00    -0.254 N 
ATOM      7  H   UNL     1       1.645  -8.757   3.403  0.00  0.00    +0.106 HD
ATOM      8  H   UNL     1       1.296 -10.946   3.874  0.00  0.00    -0.031 HD
ATOM      9  H   UNL     1      -1.199 -10.911   4.216  0.00  0.00    +0.125 HD
ATOM     10  H   UNL     1       0.731 -10.606   5.399  0.00  0.00    -0.031 HD
BRANCH   6  11
ATOM     11  C   UNL     1      -2.398  -8.580   4.535  0.00  0.00    +0.045 A 
ATOM     12  C   UNL     1      -2.718  -7.312   5.001  0.00  0.00    +0.024 A 
ATOM     13  C   UNL     1      -4.041  -6.955   5.173  0.00  0.00    +0.002 A 
ATOM     14  C   UNL     1      -5.046  -7.859   4.883  0.00  0.00    +0.000 A 
ATOM     15  C   UNL     1      -4.731  -9.123   4.419  0.00  0.00    +0.002 A 
ATOM     16  C   UNL     1      -3.410  -9.484   4.239  0.00  0.00    +0.024 A 
ENDBRANCH   6  11
ENDBRANCH   1   2
BRANCH   1  17
ATOM     17  C   UNL     1       0.101  -7.333   1.874  0.00  0.00    +0.125 C 
BRANCH  17  22
ATOM     18  N   UNL     1       0.059  -4.170  -0.021  0.00  0.00    -0.161 N 
ATOM     19  C   UNL     1       0.068  -4.927  -1.138  0.00  0.00    +0.245 C 
ATOM     20  O   UNL     1       0.063  -4.545  -2.289  0.00  0.00    -0.273 OA
ATOM     21  C   UNL     1       0.087  -6.360  -0.641  0.00  0.00    +0.151 C 
ATOM     22  C   UNL     1       0.086  -6.213   0.866  0.00  0.00    +0.056 C 
ATOM     23  N   UNL     1       0.076  -4.963   1.122  0.00  0.00    -0.180 NA
BRANCH  18  28
ATOM     24  C   UNL     1      -0.018   1.503   0.010  0.00  0.00    +0.044 C 
ATOM     25  C   UNL     1       0.002  -0.004   0.002  0.00  0.00    -0.047 A 
ATOM     26  C   UNL     1       0.006  -0.688  -1.200  0.00  0.00    +0.005 A 
ATOM     27  C   UNL     1       0.025  -2.068  -1.212  0.00  0.00    +0.026 A 
ATOM     28  C   UNL     1       0.040  -2.771  -0.013  0.00  0.00    +0.060 A 
ATOM     29  C   UNL     1       0.037  -2.082   1.192  0.00  0.00    +0.029 A 
ATOM     30  C   UNL     1       0.023  -0.700   1.196  0.00  0.00    -0.046 A 
ATOM     31  C   UNL     1       0.025   0.049   2.504  0.00  0.00    +0.044 C 
ENDBRANCH  18  28
ENDBRANCH  17  22
ENDBRANCH   1  17
TORSDOF 5
