REMARK  Name = ZINC44857340
REMARK  12 active torsions:
REMARK  status: ('A' for Active; 'I' for Inactive)
REMARK    1  A    between atoms: C_1  and  C_2
REMARK    2  A    between atoms: C_5  and  S_8
REMARK    3  A    between atoms: S_8  and  N_11
REMARK    4  A    between atoms: N_11  and  C_12
REMARK    5  A    between atoms: N_11  and  C_29
REMARK    6  A    between atoms: C_12  and  C_13
REMARK    7  A    between atoms: N_15  and  C_16
REMARK    8  A    between atoms: C_16  and  C_17
REMARK    9  A    between atoms: C_20  and  C_23
REMARK   10  A    between atoms: C_23  and  N_24
REMARK   11  A    between atoms: C_33  and  C_36
REMARK   12  A    between atoms: C_34  and  C_35
REMARK                            x       y       z     vdW  Elec       q    Type
REMARK                         _______ _______ _______ _____ _____    ______ ____
ROOT
ATOM      1  N   UNL     1       1.250  -4.840  -0.413  0.00  0.00    -0.194 N 
ENDROOT
BRANCH   1   2
ATOM      2  C   UNL     1       2.033  -5.011  -1.557  0.00  0.00    +0.055 A 
ATOM      3  C   UNL     1       1.978  -6.205  -2.266  0.00  0.00    +0.025 A 
ATOM      4  C   UNL     1       2.753  -6.370  -3.397  0.00  0.00    +0.002 A 
ATOM      5  C   UNL     1       3.583  -5.349  -3.824  0.00  0.00    +0.004 A 
ATOM      6  C   UNL     1       3.640  -4.160  -3.121  0.00  0.00    -0.046 A 
ATOM      7  C   UNL     1       2.863  -3.986  -1.992  0.00  0.00    -0.025 A 
ATOM      8  C   UNL     1       2.921  -2.687  -1.230  0.00  0.00    +0.046 C 
ATOM      9  C   UNL     1       4.546  -3.051  -3.590  0.00  0.00    +0.044 C 
ENDBRANCH   1   2
BRANCH   1  10
ATOM     10  S   UNL     1      -0.263  -4.180  -0.536  0.00  0.00    +0.075 S 
ATOM     11  O   UNL     1      -0.945  -4.500   0.669  0.00  0.00    -0.150 OA
ATOM     12  O   UNL     1      -0.763  -4.547  -1.814  0.00  0.00    -0.150 OA
BRANCH  10  17
ATOM     13  C   UNL     1       0.401   1.817  -0.600  0.00  0.00    +0.044 C 
ATOM     14  C   UNL     1       0.235   0.319  -0.584  0.00  0.00    -0.050 A 
ATOM     15  C   UNL     1       0.084  -0.373  -1.771  0.00  0.00    +0.005 A 
ATOM     16  C   UNL     1      -0.068  -1.746  -1.757  0.00  0.00    +0.029 A 
ATOM     17  C   UNL     1      -0.069  -2.429  -0.554  0.00  0.00    +0.109 A 
ATOM     18  C   UNL     1       0.083  -1.738   0.633  0.00  0.00    +0.029 A 
ATOM     19  C   UNL     1       0.239  -0.364   0.618  0.00  0.00    +0.005 A 
ENDBRANCH  10  17
ENDBRANCH   1  10
BRANCH   1  20
ATOM     20  C   UNL     1       1.769  -5.245   0.896  0.00  0.00    +0.227 C 
BRANCH  20  21
ATOM     21  C   UNL     1       1.504  -6.713   1.110  0.00  0.00    +0.232 C 
ATOM     22  O   UNL     1       0.937  -7.357   0.253  0.00  0.00    -0.274 OA
ATOM     23  N   UNL     1       1.896  -7.309   2.253  0.00  0.00    -0.310 N 
ATOM     24  H   UNL     1       2.349  -6.793   2.939  0.00  0.00    +0.149 HD
BRANCH  23  25
ATOM     25  C   UNL     1       1.638  -8.736   2.461  0.00  0.00    +0.139 C 
BRANCH  25  26
ATOM     26  C   UNL     1       2.172  -9.152   3.808  0.00  0.00    -0.030 A 
ATOM     27  C   UNL     1       3.474  -9.601   3.927  0.00  0.00    +0.005 A 
ATOM     28  C   UNL     1       3.963  -9.982   5.162  0.00  0.00    +0.002 A 
ATOM     29  C   UNL     1       3.150  -9.915   6.278  0.00  0.00    -0.064 A 
ATOM     30  C   UNL     1       1.849  -9.465   6.159  0.00  0.00    +0.002 A 
ATOM     31  C   UNL     1       1.361  -9.079   4.925  0.00  0.00    +0.005 A 
BRANCH  29  32
ATOM     32  C   UNL     1       3.683 -10.332   7.625  0.00  0.00    -0.043 C 
BRANCH  32  33
ATOM     33  N   UNL     1       4.284  -9.171   8.294  0.00  0.00    +0.382 N 
ATOM     34  C   UNL     1       3.230  -8.194   8.669  0.00  0.00    -0.078 C 
ATOM     35  C   UNL     1       3.894  -7.373   9.803  0.00  0.00    -0.020 C 
ATOM     36  C   UNL     1       4.708  -8.440  10.571  0.00  0.00    -0.020 C 
ATOM     37  C   UNL     1       4.918  -9.586   9.564  0.00  0.00    -0.078 C 
ATOM     38  H   UNL     1       4.965  -8.734   7.691  0.00  0.00    -0.081 HD
ENDBRANCH  32  33
ENDBRANCH  29  32
ENDBRANCH  25  26
ENDBRANCH  23  25
ENDBRANCH  20  21
ENDBRANCH   1  20
TORSDOF 9
