REMARK  Name = ZINC35494924
REMARK  14 active torsions:
REMARK  status: ('A' for Active; 'I' for Inactive)
REMARK    1  A    between atoms: C_1  and  C_2
REMARK    2  A    between atoms: C_2  and  C_4
REMARK    3  A    between atoms: C_2  and  N_29
REMARK    4  A    between atoms: C_4  and  N_5
REMARK    5  A    between atoms: N_5  and  C_6
REMARK    6  A    between atoms: C_6  and  C_7
REMARK    7  A    between atoms: C_7  and  C_8
REMARK    8  A    between atoms: C_18  and  C_20
REMARK    9  A    between atoms: C_20  and  C_23
REMARK   10  A    between atoms: C_30  and  O_32
REMARK   11  A    between atoms: O_32  and  C_33
REMARK   12  A    between atoms: C_33  and  C_34
REMARK   13  A    between atoms: C_33  and  C_35
REMARK   14  A    between atoms: C_33  and  C_36
REMARK                            x       y       z     vdW  Elec       q    Type
REMARK                         _______ _______ _______ _____ _____    ______ ____
ROOT
ATOM      1  N   UNL     1       0.178  -1.912  -0.871  0.00  0.00    -0.299 N 
ATOM      2  C   UNL     1       1.249  -2.730  -0.824  0.00  0.00    +0.226 C 
ATOM      3  O   UNL     1       1.178  -3.848  -1.287  0.00  0.00    -0.275 OA
ENDROOT
BRANCH   2   4
ATOM      4  C   UNL     1       2.534  -2.254  -0.196  0.00  0.00    +0.072 C 
ATOM      5  C   UNL     1       3.292  -3.240   0.695  0.00  0.00    +0.022 C 
ATOM      6  C   UNL     1       2.548  -2.058   1.321  0.00  0.00    +0.022 C 
BRANCH   4   7
ATOM      7  C   UNL     1       3.349  -1.298  -1.029  0.00  0.00    -0.032 A 
ATOM      8  C   UNL     1       4.102  -0.315  -0.414  0.00  0.00    +0.004 A 
ATOM      9  C   UNL     1       4.850   0.561  -1.178  0.00  0.00    +0.000 A 
ATOM     10  C   UNL     1       4.845   0.455  -2.556  0.00  0.00    +0.000 A 
ATOM     11  C   UNL     1       4.092  -0.528  -3.171  0.00  0.00    +0.000 A 
ATOM     12  C   UNL     1       3.348  -1.408  -2.407  0.00  0.00    +0.004 A 
ENDBRANCH   4   7
ENDBRANCH   2   4
BRANCH   1  13
ATOM     13  C   UNL     1       0.235  -0.593  -0.236  0.00  0.00    +0.129 C 
BRANCH  13  15
ATOM     14  C   UNL     1      -0.377   0.717   1.801  0.00  0.00    +0.029 C 
ATOM     15  C   UNL     1      -0.383  -0.672   1.161  0.00  0.00    +0.090 C 
BRANCH  15  16
ATOM     16  N   UNL     1      -1.762  -1.156   1.058  0.00  0.00    -0.277 N 
ATOM     17  C   UNL     1      -2.339  -1.778   2.106  0.00  0.00    +0.401 C 
ATOM     18  O   UNL     1      -1.714  -1.937   3.136  0.00  0.00    -0.226 OA
ATOM     19  H   UNL     1      -2.260  -1.029   0.235  0.00  0.00    +0.152 HD
BRANCH  17  20
ATOM     20  O   UNL     1      -3.606  -2.222   2.011  0.00  0.00    -0.445 OA
BRANCH  20  21
ATOM     21  C   UNL     1      -4.153  -2.872   3.160  0.00  0.00    +0.107 C 
ATOM     22  C   UNL     1      -4.145  -1.904   4.345  0.00  0.00    +0.055 C 
ATOM     23  C   UNL     1      -5.591  -3.304   2.865  0.00  0.00    +0.055 C 
ATOM     24  C   UNL     1      -3.310  -4.103   3.500  0.00  0.00    +0.055 C 
ENDBRANCH  20  21
ENDBRANCH  17  20
ENDBRANCH  15  16
ENDBRANCH  13  15
ENDBRANCH   1  13
BRANCH   1  25
ATOM     25  C   UNL     1      -1.043  -2.343  -1.556  0.00  0.00    +0.112 C 
BRANCH  25  26
ATOM     26  C   UNL     1      -0.978  -1.922  -3.025  0.00  0.00    +0.056 C 
BRANCH  26  27
ATOM     27  C   UNL     1      -2.235  -2.365  -3.731  0.00  0.00    -0.021 A 
ATOM     28  C   UNL     1      -2.401  -3.500  -4.427  0.00  0.00    +0.087 A 
ATOM     29  N   UNL     1      -3.675  -3.560  -4.924  0.00  0.00    -0.360 N 
ATOM     30  H   UNL     1      -4.030  -4.286  -5.460  0.00  0.00    +0.165 HD
ATOM     31  C   UNL     1      -4.377  -2.436  -4.550  0.00  0.00    +0.047 A 
ATOM     32  C   UNL     1      -3.507  -1.641  -3.781  0.00  0.00    +0.003 A 
ATOM     33  C   UNL     1      -3.954  -0.427  -3.255  0.00  0.00    +0.010 A 
ATOM     34  C   UNL     1      -5.238  -0.019  -3.488  0.00  0.00    +0.001 A 
ATOM     35  C   UNL     1      -6.100  -0.801  -4.243  0.00  0.00    +0.002 A 
ATOM     36  C   UNL     1      -5.677  -1.998  -4.779  0.00  0.00    +0.026 A 
ENDBRANCH  26  27
ENDBRANCH  25  26
ENDBRANCH   1  25
TORSDOF 10
