REMARK  Name = ZINC38617892
REMARK  9 active torsions:
REMARK  status: ('A' for Active; 'I' for Inactive)
REMARK    1  A    between atoms: C_1  and  C_2
REMARK    2  A    between atoms: C_6  and  O_9
REMARK    3  A    between atoms: C_7  and  C_8
REMARK    4  A    between atoms: O_9  and  C_10
REMARK    5  A    between atoms: C_10  and  C_11
REMARK    6  A    between atoms: C_11  and  C_13
REMARK    7  A    between atoms: C_14  and  C_28
REMARK    8  A    between atoms: C_15  and  C_26
REMARK    9  A    between atoms: N_18  and  C_21
REMARK                            x       y       z     vdW  Elec       q    Type
REMARK                         _______ _______ _______ _____ _____    ______ ____
ROOT
ATOM      1  C   UNL     1       0.429  -6.231   3.840  0.00  0.00    +0.090 A 
ATOM      2  C   UNL     1       0.331  -7.073   2.717  0.00  0.00    -0.012 A 
ATOM      3  C   UNL     1       0.241  -8.446   2.913  0.00  0.00    +0.120 A 
ATOM      4  C   UNL     1       0.251  -8.965   4.282  0.00  0.00    +0.272 A 
ATOM      5  O   UNL     1       0.173 -10.165   4.479  0.00  0.00    -0.266 OA
ATOM      6  N   UNL     1       0.347  -8.116   5.321  0.00  0.00    -0.271 N 
ATOM      7  C   UNL     1       0.440  -6.779   5.128  0.00  0.00    +0.265 A 
ATOM      8  O   UNL     1       0.540  -5.963   6.193  0.00  0.00    -0.267 OA
ATOM      9  C   UNL     1       0.323  -6.496   1.325  0.00  0.00    +0.046 C 
ENDROOT
BRANCH   6  10
ATOM     10  C   UNL     1       0.356  -8.647   6.687  0.00  0.00    +0.094 C 
ATOM     11  C   UNL     1       1.512  -9.655   6.853  0.00  0.00    +0.025 C 
ATOM     12  C   UNL     1       0.929 -10.753   7.777  0.00  0.00    +0.002 C 
ATOM     13  C   UNL     1      -0.534 -10.873   7.283  0.00  0.00    +0.002 C 
ATOM     14  C   UNL     1      -0.945  -9.421   6.960  0.00  0.00    +0.025 C 
ENDBRANCH   6  10
BRANCH   1  15
ATOM     15  C   UNL     1       0.526  -4.782   3.662  0.00  0.00    +0.206 C 
ATOM     16  O   UNL     1       0.643  -4.314   2.548  0.00  0.00    -0.288 OA
BRANCH  15  17
ATOM     17  C   UNL     1       0.481  -3.871   4.861  0.00  0.00    +0.308 C 
BRANCH  17  18
ATOM     18  O   UNL     1       0.634  -2.515   4.435  0.00  0.00    -0.484 OA
BRANCH  18  24
ATOM     19  C   UNL     1       0.896   2.200   5.670  0.00  0.00    +0.044 C 
ATOM     20  C   UNL     1       0.740   0.747   6.042  0.00  0.00    -0.044 A 
ATOM     21  C   UNL     1       0.578   0.387   7.367  0.00  0.00    +0.004 A 
ATOM     22  C   UNL     1       0.435  -0.945   7.711  0.00  0.00    +0.004 A 
ATOM     23  C   UNL     1       0.453  -1.918   6.731  0.00  0.00    +0.046 A 
ATOM     24  C   UNL     1       0.615  -1.559   5.401  0.00  0.00    +0.124 A 
ATOM     25  C   UNL     1       0.753  -0.222   5.058  0.00  0.00    -0.006 A 
ATOM     26  C   UNL     1       0.922   0.172   3.613  0.00  0.00    +0.048 C 
ENDBRANCH  18  24
ENDBRANCH  17  18
ENDBRANCH  15  17
ENDBRANCH   1  15
BRANCH   3  27
ATOM     27  C   UNL     1       0.139  -9.336   1.796  0.00  0.00    +0.105 C 
ATOM     28  N   UNL     1       0.058 -10.043   0.911  0.00  0.00    -0.191 NA
ENDBRANCH   3  27
TORSDOF 6
