REMARK  Name = ZINC48336337
REMARK  4 active torsions:
REMARK  status: ('A' for Active; 'I' for Inactive)
REMARK    1  A    between atoms: C_5  and  O_7
REMARK    2  A    between atoms: O_7  and  C_8
REMARK    3  A    between atoms: C_11  and  N_16
REMARK    4  A    between atoms: C_13  and  C_14
REMARK                            x       y       z     vdW  Elec       q    Type
REMARK                         _______ _______ _______ _____ _____    ______ ____
ROOT
ATOM      1  C   UNL     1      -0.000  -2.602  -0.021  0.00  0.00    +0.146 A 
ATOM      2  C   UNL     1      -1.131  -1.800  -0.069  0.00  0.00    +0.050 A 
ATOM      3  C   UNL     1      -2.387  -2.373  -0.068  0.00  0.00    +0.036 A 
ATOM      4  C   UNL     1      -2.528  -3.751  -0.018  0.00  0.00    +0.128 A 
ATOM      5  C   UNL     1      -1.416  -4.563   0.031  0.00  0.00    +0.055 A 
ATOM      6  C   UNL     1      -0.139  -3.996   0.025  0.00  0.00    +0.096 A 
ENDROOT
BRANCH   4   7
ATOM      7  N   UNL     1      -3.881  -4.353  -0.016  0.00  0.00    +0.056 N 
ATOM      8  O   UNL     1      -4.858  -3.643  -0.058  0.00  0.00    -0.126 OA
ATOM      9  O   UNL     1      -4.007  -5.554   0.028  0.00  0.00    -0.126 OA
ENDBRANCH   4   7
BRANCH   6  10
ATOM     10  C   UNL     1       1.022  -4.834   0.069  0.00  0.00    +0.103 C 
ATOM     11  N   UNL     1       1.942  -5.499   0.104  0.00  0.00    -0.191 NA
ENDBRANCH   6  10
BRANCH   1  12
ATOM     12  O   UNL     1       1.235  -2.039  -0.022  0.00  0.00    -0.454 OA
BRANCH  12  17
ATOM     13  C   UNL     1       1.864  -2.080  -3.605  0.00  0.00    +0.004 A 
ATOM     14  C   UNL     1       3.165  -1.615  -3.643  0.00  0.00    +0.001 A 
ATOM     15  C   UNL     1       3.821  -1.291  -2.470  0.00  0.00    +0.018 A 
ATOM     16  C   UNL     1       3.177  -1.432  -1.256  0.00  0.00    +0.056 A 
ATOM     17  C   UNL     1       1.871  -1.899  -1.215  0.00  0.00    +0.142 A 
ATOM     18  C   UNL     1       1.215  -2.223  -2.394  0.00  0.00    +0.047 A 
ATOM     19  I   UNL     1       4.171  -0.943   0.522  0.00  0.00    -0.040 I 
ENDBRANCH  12  17
ENDBRANCH   1  12
TORSDOF 4
