REMARK  Name = ZINC07583417
REMARK  8 active torsions:
REMARK  status: ('A' for Active; 'I' for Inactive)
REMARK    1  A    between atoms: C_1  and  C_2
REMARK    2  A    between atoms: C_2  and  C_3
REMARK    3  A    between atoms: C_3  and  C_26
REMARK    4  A    between atoms: N_6  and  N_10
REMARK    5  A    between atoms: C_11  and  C_13
REMARK    6  A    between atoms: C_13  and  N_59
REMARK    7  A    between atoms: C_14  and  N_59
REMARK    8  A    between atoms: C_15  and  N_59
REMARK                            x       y       z     vdW  Elec       q    Type
REMARK                         _______ _______ _______ _____ _____    ______ ____
ROOT
ATOM      1  N   UNL     1       1.187  -2.350   2.205  0.00  0.00    -0.225 N 
ATOM      2  C   UNL     1       1.867  -2.817   1.139  0.00  0.00    +0.213 C 
ATOM      3  O   UNL     1       1.812  -2.228   0.080  0.00  0.00    -0.276 OA
ATOM      4  H   UNL     1       1.232  -2.821   3.052  0.00  0.00    +0.173 HD
ENDROOT
BRANCH   1   8
ATOM      5  C   UNL     1      -1.319   0.287   1.904  0.00  0.00    +0.139 C 
ATOM      6  C   UNL     1      -0.929  -1.173   2.020  0.00  0.00    +0.268 C 
ATOM      7  O   UNL     1      -1.673  -2.130   2.046  0.00  0.00    -0.271 OA
ATOM      8  N   UNL     1       0.416  -1.186   2.090  0.00  0.00    -0.137 N 
ATOM      9  C   UNL     1       0.926   0.050   2.035  0.00  0.00    +0.327 C 
ATOM     10  O   UNL     1       2.116   0.293   2.079  0.00  0.00    -0.251 OA
ATOM     11  N   UNL     1      -0.027   0.994   1.924  0.00  0.00    -0.280 N 
ATOM     12  H   UNL     1       0.111   1.952   1.868  0.00  0.00    +0.152 HD
BRANCH   5  13
ATOM     13  C   UNL     1      -2.172   0.703   3.075  0.00  0.00    -0.015 A 
ATOM     14  C   UNL     1      -3.550   0.643   2.983  0.00  0.00    +0.006 A 
ATOM     15  C   UNL     1      -4.332   1.020   4.058  0.00  0.00    +0.000 A 
ATOM     16  C   UNL     1      -3.736   1.466   5.223  0.00  0.00    +0.000 A 
ATOM     17  C   UNL     1      -2.359   1.530   5.314  0.00  0.00    +0.000 A 
ATOM     18  C   UNL     1      -1.577   1.149   4.240  0.00  0.00    +0.006 A 
ENDBRANCH   5  13
BRANCH   5  20
ATOM     19  C   UNL     1      -1.147   0.165  -0.585  0.00  0.00    +0.007 C 
ATOM     20  C   UNL     1      -2.054   0.545   0.587  0.00  0.00    +0.037 C 
ENDBRANCH   5  20
ENDBRANCH   1   8
BRANCH   2  21
ATOM     21  C   UNL     1       2.696  -4.069   1.263  0.00  0.00    +0.021 C 
BRANCH  21  23
ATOM     22  C   UNL     1       4.473  -3.471  -0.269  0.00  0.00    -0.095 C 
ATOM     23  N   UNL     1       3.313  -4.360  -0.049  0.00  0.00    +0.388 N 
ATOM     24  H   UNL     1       2.620  -4.193  -0.787  0.00  0.00    -0.081 HD
BRANCH  23  25
ATOM     25  C   UNL     1       3.742  -5.773  -0.102  0.00  0.00    -0.037 C 
ATOM     26  C   UNL     1       4.861  -6.027   0.906  0.00  0.00    -0.010 C 
ATOM     27  C   UNL     1       5.421  -7.433   0.665  0.00  0.00    +0.003 C 
ATOM     28  C   UNL     1       6.181  -7.427  -0.660  0.00  0.00    +0.035 C 
ATOM     29  C   UNL     1       5.329  -6.844  -1.756  0.00  0.00    -0.046 A 
ATOM     30  C   UNL     1       4.211  -6.081  -1.500  0.00  0.00    -0.058 A 
ATOM     31  C   UNL     1       3.473  -5.566  -2.558  0.00  0.00    +0.002 A 
ATOM     32  C   UNL     1       3.848  -5.816  -3.862  0.00  0.00    +0.000 A 
ATOM     33  C   UNL     1       4.967  -6.585  -4.119  0.00  0.00    +0.000 A 
ATOM     34  C   UNL     1       5.703  -7.096  -3.070  0.00  0.00    +0.004 A 
ENDBRANCH  23  25
ENDBRANCH  21  23
ENDBRANCH   2  21
TORSDOF 6
