REMARK  Name = ZINC38936035
REMARK  6 active torsions:
REMARK  status: ('A' for Active; 'I' for Inactive)
REMARK    1  A    between atoms: C_4  and  C_7
REMARK    2  A    between atoms: N_9  and  C_10
REMARK    3  A    between atoms: C_10  and  C_12
REMARK    4  A    between atoms: C_10  and  C_24
REMARK    5  A    between atoms: N_26  and  N_27
REMARK    6  A    between atoms: C_28  and  C_29
REMARK                            x       y       z     vdW  Elec       q    Type
REMARK                         _______ _______ _______ _____ _____    ______ ____
ROOT
ATOM      1  C   UNL     1       4.996  -2.741  -0.063  0.00  0.00    +0.189 C 
ENDROOT
BRANCH   1   2
ATOM      2  C   UNL     1       4.904  -3.010   1.440  0.00  0.00    +0.156 C 
ATOM      3  C   UNL     1       5.461  -1.805   2.162  0.00  0.00    -0.009 A 
ATOM      4  C   UNL     1       6.737  -1.348   1.959  0.00  0.00    +0.006 A 
ATOM      5  C   UNL     1       7.183  -0.234   2.656  0.00  0.00    +0.000 A 
ATOM      6  C   UNL     1       6.348   0.414   3.551  0.00  0.00    +0.001 A 
ATOM      7  C   UNL     1       5.061  -0.040   3.762  0.00  0.00    +0.013 A 
ATOM      8  C   UNL     1       4.607  -1.157   3.065  0.00  0.00    +0.045 A 
ATOM      9  C   UNL     1       3.245  -1.694   3.241  0.00  0.00    +0.283 C 
ATOM     10  O   UNL     1       2.483  -1.152   4.016  0.00  0.00    -0.267 OA
ATOM     11  N   UNL     1       2.835  -2.772   2.556  0.00  0.00    -0.105 NA
ATOM     12  N   UNL     1       3.519  -3.397   1.747  0.00  0.00    -0.305 N 
ATOM     13  H   UNL     1       3.134  -4.166   1.299  0.00  0.00    +0.181 HD
ENDBRANCH   1   2
BRANCH   1  16
ATOM     14  C   UNL     1       4.265  -0.431  -0.323  0.00  0.00    +0.245 C 
ATOM     15  O   UNL     1       5.346  -0.073   0.101  0.00  0.00    -0.270 OA
ATOM     16  N   UNL     1       3.991  -1.746  -0.443  0.00  0.00    -0.298 N 
ATOM     17  H   UNL     1       3.128  -2.032  -0.781  0.00  0.00    +0.150 HD
BRANCH  14  21
ATOM     18  C   UNL     1       1.352   2.456  -1.426  0.00  0.00    +0.000 A 
ATOM     19  C   UNL     1       2.581   2.868  -0.943  0.00  0.00    +0.001 A 
ATOM     20  C   UNL     1       3.532   1.935  -0.583  0.00  0.00    +0.013 A 
ATOM     21  C   UNL     1       3.251   0.574  -0.706  0.00  0.00    +0.037 A 
ATOM     22  C   UNL     1       2.009   0.165  -1.194  0.00  0.00    +0.013 A 
ATOM     23  C   UNL     1       1.067   1.108  -1.551  0.00  0.00    +0.001 A 
ENDBRANCH  14  21
ENDBRANCH   1  16
BRANCH   1  24
ATOM     24  C   UNL     1       4.745  -4.021  -0.818  0.00  0.00    +0.255 C 
ATOM     25  O   UNL     1       3.660  -4.228  -1.318  0.00  0.00    -0.272 OA
ATOM     26  N   UNL     1       5.727  -4.937  -0.937  0.00  0.00    -0.205 N 
ATOM     27  H   UNL     1       6.571  -4.806  -0.477  0.00  0.00    +0.177 HD
BRANCH  26  28
ATOM     28  N   UNL     1       5.529  -6.077  -1.726  0.00  0.00    -0.188 NA
ATOM     29  C   UNL     1       6.515  -6.917  -1.922  0.00  0.00    +0.136 C 
BRANCH  29  30
ATOM     30  C   UNL     1       6.349  -8.001  -2.796  0.00  0.00    +0.000 C 
ATOM     31  C   UNL     1       7.288  -8.981  -3.109  0.00  0.00    +0.004 A 
ATOM     32  C   UNL     1       8.619  -9.198  -2.687  0.00  0.00    +0.010 A 
ATOM     33  C   UNL     1       9.312 -10.260  -3.169  0.00  0.00    +0.001 A 
ATOM     34  C   UNL     1       8.744 -11.155  -4.079  0.00  0.00    +0.002 A 
ATOM     35  C   UNL     1       7.474 -11.009  -4.527  0.00  0.00    +0.026 A 
ATOM     36  C   UNL     1       6.684  -9.922  -4.069  0.00  0.00    +0.043 A 
ATOM     37  N   UNL     1       5.447  -9.565  -4.346  0.00  0.00    -0.380 N 
ATOM     38  C   UNL     1       5.112  -8.354  -3.590  0.00  0.00    +0.150 C 
ATOM     39  H   UNL     1       4.851 -10.032  -4.952  0.00  0.00    +0.160 HD
ENDBRANCH  29  30
ENDBRANCH  26  28
ENDBRANCH   1  24
TORSDOF 6
