REMARK  Name = ZINC63671402
REMARK  8 active torsions:
REMARK  status: ('A' for Active; 'I' for Inactive)
REMARK    1  A    between atoms: C_1  and  C_2
REMARK    2  A    between atoms: C_8  and  C_11
REMARK    3  A    between atoms: C_11  and  C_12
REMARK    4  A    between atoms: C_12  and  N_13
REMARK    5  A    between atoms: C_14  and  C_16
REMARK    6  A    between atoms: N_19  and  S_22
REMARK    7  A    between atoms: S_22  and  C_25
REMARK    8  A    between atoms: N_33  and  C_34
REMARK                            x       y       z     vdW  Elec       q    Type
REMARK                         _______ _______ _______ _____ _____    ______ ____
ROOT
ATOM      1  C   UNL     1      -2.534  -2.338   7.783  0.00  0.00    +0.077 C 
ATOM      2  C   UNL     1      -1.940  -0.955   8.057  0.00  0.00    +0.030 C 
ATOM      3  C   UNL     1      -1.907  -0.707   9.568  0.00  0.00    +0.110 C 
ATOM      4  N   UNL     1      -3.260  -0.900  10.109  0.00  0.00    -0.177 NA
ATOM      5  C   UNL     1      -3.959  -2.162   9.827  0.00  0.00    +0.110 C 
ATOM      6  C   UNL     1      -3.969  -2.393   8.313  0.00  0.00    +0.030 C 
ENDROOT
BRANCH   1   8
ATOM      7  N   UNL     1      -1.377  -2.600   5.613  0.00  0.00    -0.315 N 
ATOM      8  C   UNL     1      -2.537  -2.599   6.299  0.00  0.00    +0.216 C 
ATOM      9  O   UNL     1      -3.583  -2.808   5.722  0.00  0.00    -0.276 OA
ATOM     10  H   UNL     1      -0.540  -2.433   6.075  0.00  0.00    +0.149 HD
BRANCH   7  11
ATOM     11  C   UNL     1      -1.379  -2.854   4.170  0.00  0.00    +0.108 C 
BRANCH  11  12
ATOM     12  C   UNL     1       0.055  -2.799   3.641  0.00  0.00    +0.052 C 
BRANCH  12  20
ATOM     13  C   UNL     1      -0.018   1.503   0.010  0.00  0.00    +0.044 C 
ATOM     14  C   UNL     1       0.002  -0.004   0.002  0.00  0.00    -0.050 A 
ATOM     15  C   UNL     1       0.005  -0.680  -1.226  0.00  0.00    +0.005 A 
ATOM     16  C   UNL     1       0.023  -2.026  -1.317  0.00  0.00    +0.026 A 
ATOM     17  C   UNL     1       0.039  -2.826  -0.141  0.00  0.00    +0.043 A 
ATOM     18  N   UNL     1       0.057  -4.126   0.030  0.00  0.00    -0.380 N 
ATOM     19  C   UNL     1       0.067  -4.408   1.470  0.00  0.00    +0.144 C 
ATOM     20  C   UNL     1       0.052  -3.060   2.156  0.00  0.00    -0.040 C 
ATOM     21  C   UNL     1       0.036  -2.137   1.168  0.00  0.00    -0.001 A 
ATOM     22  C   UNL     1       0.022  -0.669   1.180  0.00  0.00    +0.013 A 
ATOM     23  H   UNL     1       0.062  -4.790  -0.677  0.00  0.00    +0.160 HD
ENDBRANCH  12  20
ENDBRANCH  11  12
ENDBRANCH   7  11
ENDBRANCH   1   8
BRANCH   4  24
ATOM     24  S   UNL     1      -3.982   0.280  11.018  0.00  0.00    +0.061 S 
ATOM     25  O   UNL     1      -4.956  -0.367  11.825  0.00  0.00    -0.153 OA
ATOM     26  O   UNL     1      -2.934   1.065  11.571  0.00  0.00    -0.153 OA
BRANCH  24  27
ATOM     27  C   UNL     1      -4.863   1.327   9.908  0.00  0.00    +0.106 A 
ATOM     28  C   UNL     1      -4.227   2.426   9.346  0.00  0.00    +0.030 A 
ATOM     29  C   UNL     1      -4.898   3.257   8.477  0.00  0.00    +0.028 A 
ATOM     30  C   UNL     1      -6.226   2.995   8.156  0.00  0.00    +0.049 A 
ATOM     31  C   UNL     1      -6.866   1.879   8.727  0.00  0.00    +0.002 A 
ATOM     32  C   UNL     1      -6.165   1.047   9.602  0.00  0.00    +0.038 A 
ATOM     33  C   UNL     1      -8.232   1.881   8.197  0.00  0.00    +0.027 A 
ATOM     34  C   UNL     1      -8.334   2.941   7.380  0.00  0.00    +0.086 A 
ATOM     35  N   UNL     1      -7.146   3.618   7.342  0.00  0.00    -0.350 N 
ATOM     36  C   UNL     1      -6.890   4.826   6.554  0.00  0.00    +0.149 C 
ENDBRANCH  24  27
ENDBRANCH   4  24
TORSDOF 6
