REMARK  Name = ZINC45967470
REMARK  10 active torsions:
REMARK  status: ('A' for Active; 'I' for Inactive)
REMARK    1  A    between atoms: C_1  and  C_2
REMARK    2  A    between atoms: C_2  and  O_3
REMARK    3  A    between atoms: O_3  and  C_4
REMARK    4  A    between atoms: C_14  and  C_16
REMARK    5  A    between atoms: C_17  and  O_28
REMARK    6  A    between atoms: C_21  and  C_27
REMARK    7  A    between atoms: C_22  and  C_26
REMARK    8  A    between atoms: O_28  and  C_29
REMARK    9  A    between atoms: C_29  and  C_30
REMARK   10  A    between atoms: C_29  and  C_31
REMARK                            x       y       z     vdW  Elec       q    Type
REMARK                         _______ _______ _______ _____ _____    ______ ____
ROOT
ATOM      1  C   UNL     1       0.777  -1.811  -1.336  0.00  0.00    +0.122 A 
ATOM      2  C   UNL     1       0.244  -2.679  -0.388  0.00  0.00    +0.048 A 
ATOM      3  C   UNL     1       0.338  -4.038  -0.530  0.00  0.00    +0.032 A 
ATOM      4  C   UNL     1       0.985  -4.606  -1.652  0.00  0.00    +0.081 A 
ATOM      5  C   UNL     1       1.515  -3.696  -2.595  0.00  0.00    +0.044 A 
ATOM      6  C   UNL     1       1.412  -2.335  -2.452  0.00  0.00    +0.063 A 
ATOM      7  S   UNL     1       2.220  -4.782  -3.812  0.00  0.00    -0.052 S 
ATOM      8  C   UNL     1       1.784  -6.323  -3.019  0.00  0.00    +0.166 A 
ATOM      9  N   UNL     1       1.162  -5.915  -1.938  0.00  0.00    -0.225 NA
ATOM     10  N   UNL     1       2.037  -7.618  -3.439  0.00  0.00    -0.259 N 
ATOM     11  C   UNL     1       1.621  -8.661  -2.694  0.00  0.00    +0.273 C 
ATOM     12  O   UNL     1       1.025  -8.465  -1.653  0.00  0.00    -0.268 OA
ATOM     13  H   UNL     1       2.512  -7.774  -4.270  0.00  0.00    +0.157 HD
ENDROOT
BRANCH  11  14
ATOM     14  C   UNL     1       1.892 -10.045  -3.143  0.00  0.00    +0.188 A 
ATOM     15  C   UNL     1       1.450 -11.136  -2.361  0.00  0.00    +0.247 A 
ATOM     16  N   UNL     1       1.684 -12.373  -2.749  0.00  0.00    -0.209 NA
ATOM     17  C   UNL     1       2.345 -12.597  -3.891  0.00  0.00    +0.093 A 
ATOM     18  C   UNL     1       2.607 -13.906  -4.329  0.00  0.00    +0.033 A 
ATOM     19  C   UNL     1       3.281 -14.107  -5.494  0.00  0.00    -0.045 A 
ATOM     20  C   UNL     1       3.718 -13.031  -6.266  0.00  0.00    -0.045 A 
ATOM     21  C   UNL     1       3.483 -11.749  -5.876  0.00  0.00    +0.033 A 
ATOM     22  C   UNL     1       2.789 -11.500  -4.676  0.00  0.00    +0.091 A 
ATOM     23  N   UNL     1       2.540 -10.253  -4.275  0.00  0.00    -0.235 NA
ATOM     24  C   UNL     1       4.461 -13.292  -7.551  0.00  0.00    +0.044 C 
ATOM     25  C   UNL     1       3.559 -15.514  -5.958  0.00  0.00    +0.044 C 
BRANCH  15  26
ATOM     26  O   UNL     1       0.782 -10.909  -1.205  0.00  0.00    -0.472 OA
BRANCH  26  27
ATOM     27  C   UNL     1       0.362 -12.055  -0.462  0.00  0.00    +0.169 C 
ATOM     28  C   UNL     1       0.333 -11.713   1.029  0.00  0.00    +0.051 C 
ATOM     29  C   UNL     1      -1.037 -12.474  -0.917  0.00  0.00    +0.051 C 
ENDBRANCH  26  27
ENDBRANCH  15  26
ENDBRANCH  11  14
BRANCH   1  30
ATOM     30  O   UNL     1       0.671  -0.465  -1.174  0.00  0.00    -0.492 OA
BRANCH  30  32
ATOM     31  C   UNL     1      -0.019   1.526   0.010  0.00  0.00    +0.048 C 
ATOM     32  C   UNL     1       0.002  -0.004   0.002  0.00  0.00    +0.225 C 
ENDBRANCH  30  32
ENDBRANCH   1  30
TORSDOF 5
