REMARK  Name = ZINC12072016
REMARK  11 active torsions:
REMARK  status: ('A' for Active; 'I' for Inactive)
REMARK    1  A    between atoms: C_1  and  O_2
REMARK    2  A    between atoms: O_2  and  C_3
REMARK    3  A    between atoms: C_8  and  O_9
REMARK    4  A    between atoms: O_9  and  C_10
REMARK    5  A    between atoms: C_10  and  C_11
REMARK    6  A    between atoms: N_13  and  C_14
REMARK    7  A    between atoms: C_14  and  C_15
REMARK    8  A    between atoms: C_15  and  N_16
REMARK    9  A    between atoms: N_23  and  C_26
REMARK   10  A    between atoms: C_26  and  C_27
REMARK   11  A    between atoms: C_30  and  N_33
REMARK                            x       y       z     vdW  Elec       q    Type
REMARK                         _______ _______ _______ _____ _____    ______ ____
ROOT
ATOM      1  N   UNL     1      -3.033  -6.609  -0.004  0.00  0.00    -0.245 N 
ATOM      2  C   UNL     1      -2.907  -7.402   1.091  0.00  0.00    +0.165 A 
ATOM      3  C   UNL     1      -2.720  -8.711   0.619  0.00  0.00    +0.103 A 
ATOM      4  C   UNL     1      -2.740  -8.655  -0.787  0.00  0.00    +0.150 A 
ATOM      5  N   UNL     1      -2.931  -7.415  -1.145  0.00  0.00    -0.177 NA
ATOM      6  C   UNL     1      -2.556  -9.781   1.603  0.00  0.00    +0.265 A 
ATOM      7  O   UNL     1      -2.391 -10.938   1.257  0.00  0.00    -0.267 OA
ATOM      8  N   UNL     1      -2.594  -9.438   2.912  0.00  0.00    -0.294 N 
ATOM      9  C   UNL     1      -2.780  -8.144   3.275  0.00  0.00    +0.204 A 
ATOM     10  N   UNL     1      -2.928  -7.180   2.415  0.00  0.00    -0.218 NA
ENDROOT
BRANCH   1  11
ATOM     11  C   UNL     1      -3.244  -5.159   0.005  0.00  0.00    +0.164 C 
BRANCH  11  12
ATOM     12  C   UNL     1      -1.891  -4.446  -0.004  0.00  0.00    +0.127 C 
BRANCH  12  15
ATOM     13  C   UNL     1      -1.044  -2.161   0.000  0.00  0.00    +0.251 C 
ATOM     14  O   UNL     1       0.082  -2.610  -0.013  0.00  0.00    -0.272 OA
ATOM     15  N   UNL     1      -2.102  -2.997   0.006  0.00  0.00    -0.311 N 
ATOM     16  H   UNL     1      -3.003  -2.638   0.017  0.00  0.00    +0.149 HD
BRANCH  13  17
ATOM     17  C   UNL     1      -1.262  -0.670   0.011  0.00  0.00    +0.324 C 
BRANCH  17  18
ATOM     18  O   UNL     1       0.002  -0.004   0.002  0.00  0.00    -0.479 OA
BRANCH  18  24
ATOM     19  C   UNL     1       1.178   2.069   0.002  0.00  0.00    +0.162 A 
ATOM     20  C   UNL     1       1.154   3.455   0.010  0.00  0.00    +0.049 A 
ATOM     21  C   UNL     1      -0.055   4.125   0.025  0.00  0.00    +0.004 A 
ATOM     22  C   UNL     1      -1.242   3.416   0.032  0.00  0.00    +0.004 A 
ATOM     23  C   UNL     1      -1.225   2.034   0.019  0.00  0.00    +0.049 A 
ATOM     24  C   UNL     1      -0.016   1.356   0.009  0.00  0.00    +0.163 A 
BRANCH  19  26
ATOM     25  C   UNL     1       3.552   2.206  -0.021  0.00  0.00    +0.277 C 
ATOM     26  O   UNL     1       2.367   1.409  -0.013  0.00  0.00    -0.491 OA
ENDBRANCH  19  26
ENDBRANCH  18  24
ENDBRANCH  17  18
ENDBRANCH  13  17
ENDBRANCH  12  15
ENDBRANCH  11  12
ENDBRANCH   1  11
BRANCH   8  27
ATOM     27  C   UNL     1      -2.435 -10.469   3.941  0.00  0.00    +0.161 C 
BRANCH  27  28
ATOM     28  C   UNL     1      -3.786 -11.028   4.306  0.00  0.00    -0.027 A 
ATOM     29  C   UNL     1      -4.518 -10.454   5.329  0.00  0.00    +0.007 A 
ATOM     30  C   UNL     1      -5.759 -10.964   5.661  0.00  0.00    +0.033 A 
ATOM     31  C   UNL     1      -6.266 -12.052   4.975  0.00  0.00    +0.126 A 
ATOM     32  C   UNL     1      -5.532 -12.629   3.955  0.00  0.00    +0.033 A 
ATOM     33  C   UNL     1      -4.292 -12.117   3.621  0.00  0.00    +0.007 A 
BRANCH  31  34
ATOM     34  N   UNL     1      -7.593 -12.600   5.333  0.00  0.00    +0.056 N 
ATOM     35  O   UNL     1      -8.040 -13.559   4.729  0.00  0.00    -0.126 OA
ATOM     36  O   UNL     1      -8.240 -12.092   6.232  0.00  0.00    -0.126 OA
ENDBRANCH  31  34
ENDBRANCH  27  28
ENDBRANCH   8  27
TORSDOF 10
