REMARK  Name = ZINC39687346
REMARK  7 active torsions:
REMARK  status: ('A' for Active; 'I' for Inactive)
REMARK    1  A    between atoms: C_1  and  C_2
REMARK    2  A    between atoms: C_2  and  C_3
REMARK    3  A    between atoms: C_3  and  C_4
REMARK    4  A    between atoms: C_4  and  C_6
REMARK    5  A    between atoms: C_4  and  C_7
REMARK    6  A    between atoms: C_11  and  C_20
REMARK    7  A    between atoms: N_22  and  C_23
REMARK                            x       y       z     vdW  Elec       q    Type
REMARK                         _______ _______ _______ _____ _____    ______ ____
ROOT
ATOM      1  C   UNL     1      -2.824  -2.655  -0.132  0.00  0.00    +0.218 C 
ATOM      2  O   UNL     1      -3.741  -1.883  -0.315  0.00  0.00    -0.275 OA
ATOM      3  N   UNL     1      -3.071  -3.974  -0.002  0.00  0.00    -0.300 N 
ATOM      4  C   UNL     1      -2.107  -5.049   0.334  0.00  0.00    +0.121 C 
ATOM      5  C   UNL     1      -2.886  -5.989   1.282  0.00  0.00    +0.100 C 
ATOM      6  C   UNL     1      -4.367  -5.741   0.950  0.00  0.00    -0.004 C 
ATOM      7  C   UNL     1      -4.367  -4.676  -0.156  0.00  0.00    +0.115 C 
ATOM      8  C   UNL     1      -5.103  -5.217   2.179  0.00  0.00    -0.010 C 
ATOM      9  C   UNL     1      -6.585  -5.033   1.841  0.00  0.00    -0.082 C 
ATOM     10  N   UNL     1      -7.155  -6.317   1.415  0.00  0.00    +0.379 N 
ATOM     11  C   UNL     1      -6.504  -6.768   0.179  0.00  0.00    -0.082 C 
ATOM     12  C   UNL     1      -5.019  -7.026   0.448  0.00  0.00    -0.010 C 
ATOM     13  H   UNL     1      -7.012  -7.004   2.140  0.00  0.00    -0.086 HD
ATOM     14  H   UNL     1      -8.145  -6.206   1.251  0.00  0.00    -0.086 HD
ENDROOT
BRANCH   5  15
ATOM     15  C   UNL     1      -2.602  -5.637   2.719  0.00  0.00    +0.218 C 
ATOM     16  O   UNL     1      -2.257  -4.512   3.012  0.00  0.00    -0.275 OA
ATOM     17  N   UNL     1      -2.730  -6.574   3.680  0.00  0.00    -0.312 N 
ATOM     18  H   UNL     1      -3.006  -7.474   3.446  0.00  0.00    +0.149 HD
BRANCH  17  19
ATOM     19  C   UNL     1      -2.454  -6.232   5.077  0.00  0.00    +0.076 C 
ATOM     20  C   UNL     1      -0.954  -6.368   5.349  0.00  0.00    +0.041 C 
ATOM     21  C   UNL     1      -0.664  -5.977   6.801  0.00  0.00    +0.108 C 
ATOM     22  N   UNL     1      -1.513  -6.785   7.687  0.00  0.00    -0.317 N 
ATOM     23  C   UNL     1      -2.964  -6.797   7.457  0.00  0.00    +0.108 C 
ATOM     24  C   UNL     1      -3.228  -7.179   5.997  0.00  0.00    +0.041 C 
ATOM     25  C   UNL     1      -0.954  -7.524   8.723  0.00  0.00    +0.099 A 
ATOM     26  C   UNL     1      -1.754  -8.388   9.464  0.00  0.00    +0.042 A 
ATOM     27  C   UNL     1      -1.185  -9.117  10.492  0.00  0.00    +0.005 A 
ATOM     28  C   UNL     1       0.171  -8.957  10.746  0.00  0.00    +0.018 A 
ATOM     29  C   UNL     1       0.905  -8.082   9.972  0.00  0.00    +0.084 A 
ATOM     30  N   UNL     1       0.337  -7.403   8.993  0.00  0.00    -0.350 N 
ATOM     31  H   UNL     1       0.876  -6.798   8.461  0.00  0.00    +0.166 HD
ENDBRANCH  17  19
ENDBRANCH   5  15
BRANCH   1  32
ATOM     32  C   UNL     1      -1.410  -2.141  -0.051  0.00  0.00    +0.072 C 
ATOM     33  C   UNL     1      -1.405  -0.766   0.620  0.00  0.00    +0.017 C 
BRANCH  32  34
ATOM     34  C   UNL     1      -0.829  -2.023  -1.461  0.00  0.00    +0.012 C 
BRANCH  34  36
ATOM     35  C   UNL     1       1.227  -1.502  -2.783  0.00  0.00    +0.004 C 
ATOM     36  C   UNL     1       0.645  -1.621  -1.373  0.00  0.00    -0.003 C 
ENDBRANCH  34  36
ENDBRANCH  32  34
ENDBRANCH   1  32
TORSDOF 5
