REMARK  Name = ZINC05213391
REMARK  10 active torsions:
REMARK  status: ('A' for Active; 'I' for Inactive)
REMARK    1  A    between atoms: C_1  and  C_2
REMARK    2  A    between atoms: C_4  and  C_28
REMARK    3  A    between atoms: C_10  and  S_11
REMARK    4  A    between atoms: S_11  and  C_12
REMARK    5  A    between atoms: C_12  and  C_13
REMARK    6  A    between atoms: C_13  and  C_15
REMARK    7  A    between atoms: C_17  and  C_27
REMARK    8  A    between atoms: N_18  and  C_21
REMARK    9  A    between atoms: C_19  and  C_20
REMARK   10  A    between atoms: C_21  and  C_22
REMARK                            x       y       z     vdW  Elec       q    Type
REMARK                         _______ _______ _______ _____ _____    ______ ____
ROOT
ATOM      1  C   UNL     1      -2.520   6.279   4.524  0.00  0.00    +0.175 C 
ATOM      2  O   UNL     1      -1.716   7.179   4.396  0.00  0.00    -0.291 OA
ENDROOT
BRANCH   1   3
ATOM      3  C   UNL     1      -2.782   5.366   3.410  0.00  0.00    +0.039 A 
ATOM      4  C   UNL     1      -3.717   4.232   3.394  0.00  0.00    +0.034 A 
ATOM      5  C   UNL     1      -3.632   3.688   2.169  0.00  0.00    +0.017 A 
ATOM      6  N   UNL     1      -2.718   4.385   1.432  0.00  0.00    -0.343 N 
ATOM      7  C   UNL     1      -2.201   5.394   2.156  0.00  0.00    +0.027 A 
ATOM      8  C   UNL     1      -1.169   6.384   1.682  0.00  0.00    +0.064 C 
ATOM      9  C   UNL     1      -4.418   2.497   1.686  0.00  0.00    +0.063 C 
BRANCH   6  10
ATOM     10  C   UNL     1      -2.355   4.080   0.046  0.00  0.00    +0.164 C 
BRANCH  10  11
ATOM     11  C   UNL     1      -1.196   3.116   0.030  0.00  0.00    +0.009 A 
ATOM     12  C   UNL     1      -1.213   1.761   0.017  0.00  0.00    +0.013 A 
ATOM     13  C   UNL     1      -0.013   1.076   0.008  0.00  0.00    +0.008 A 
ATOM     14  C   UNL     1       1.146   1.780   0.001  0.00  0.00    +0.045 A 
ATOM     15  S   UNL     1       0.555   3.464   0.015  0.00  0.00    -0.100 S 
ENDBRANCH  10  11
ENDBRANCH   6  10
ENDBRANCH   1   3
BRANCH   1  16
ATOM     16  C   UNL     1      -3.249   6.101   5.831  0.00  0.00    +0.157 C 
BRANCH  16  17
ATOM     17  S   UNL     1      -2.711   7.377   7.003  0.00  0.00    -0.078 S 
BRANCH  17  27
ATOM     18  C   UNL     1      -4.199   9.103  13.570  0.00  0.00    +0.066 C 
ATOM     19  C   UNL     1      -3.984   8.608  12.163  0.00  0.00    +0.044 A 
ATOM     20  C   UNL     1      -3.067   9.265  11.326  0.00  0.00    +0.044 A 
ATOM     21  C   UNL     1      -2.876   8.815  10.063  0.00  0.00    +0.028 A 
ATOM     22  N   UNL     1      -3.587   7.731   9.634  0.00  0.00    -0.259 N 
ATOM     23  C   UNL     1      -4.480   7.109  10.482  0.00  0.00    +0.257 A 
ATOM     24  N   UNL     1      -4.655   7.568  11.729  0.00  0.00    -0.216 NA
ATOM     25  N   UNL     1      -5.011   6.108   9.805  0.00  0.00    -0.108 NA
ATOM     26  N   UNL     1      -4.518   6.074   8.618  0.00  0.00    -0.120 NA
ATOM     27  C   UNL     1      -3.640   7.038   8.460  0.00  0.00    +0.198 A 
ATOM     28  C   UNL     1      -1.897   9.502   9.146  0.00  0.00    +0.064 C 
ENDBRANCH  17  27
ENDBRANCH  16  17
ENDBRANCH   1  16
TORSDOF 6
