REMARK  Name = ZINC19497009
REMARK  7 active torsions:
REMARK  status: ('A' for Active; 'I' for Inactive)
REMARK    1  A    between atoms: C_1  and  C_2
REMARK    2  A    between atoms: C_10  and  C_15
REMARK    3  A    between atoms: C_15  and  C_17
REMARK    4  A    between atoms: C_15  and  N_18
REMARK    5  A    between atoms: C_19  and  C_21
REMARK    6  A    between atoms: C_23  and  C_27
REMARK    7  A    between atoms: N_24  and  C_26
REMARK                            x       y       z     vdW  Elec       q    Type
REMARK                         _______ _______ _______ _____ _____    ______ ____
ROOT
ATOM      1  C   UNL     1      -6.004   2.846   2.677  0.00  0.00    +0.119 C 
ATOM      2  C   UNL     1      -6.636   1.638   3.371  0.00  0.00    +0.034 C 
ENDROOT
BRANCH   1  12
ATOM      3  C   UNL     1      -7.011   0.822  -5.827  0.00  0.00    +0.007 C 
ATOM      4  C   UNL     1      -7.514   1.259  -4.450  0.00  0.00    -0.011 C 
ATOM      5  C   UNL     1      -7.573   2.788  -4.389  0.00  0.00    +0.022 C 
ATOM      6  C   UNL     1      -8.018   3.220  -2.990  0.00  0.00    +0.108 C 
ATOM      7  N   UNL     1      -7.069   2.709  -1.992  0.00  0.00    -0.301 N 
ATOM      8  C   UNL     1      -7.031   1.241  -2.001  0.00  0.00    +0.108 C 
ATOM      9  C   UNL     1      -6.556   0.749  -3.370  0.00  0.00    +0.022 C 
ATOM     10  C   UNL     1      -7.369   3.190  -0.730  0.00  0.00    +0.199 A 
ATOM     11  N   UNL     1      -6.609   2.833   0.295  0.00  0.00    -0.219 NA
ATOM     12  C   UNL     1      -6.869   3.269   1.518  0.00  0.00    +0.070 A 
ATOM     13  C   UNL     1      -7.948   4.108   1.722  0.00  0.00    +0.095 A 
ATOM     14  C   UNL     1      -8.722   4.475   0.622  0.00  0.00    +0.253 A 
ATOM     15  N   UNL     1      -8.409   3.996  -0.576  0.00  0.00    -0.295 N 
ATOM     16  O   UNL     1      -9.787   5.299   0.775  0.00  0.00    -0.268 OA
ATOM     17  H   UNL     1      -9.022   4.276  -1.446  0.00  0.00    +0.172 HD
ENDBRANCH   1  12
BRANCH   1  18
ATOM     18  N   UNL     1      -4.671   2.486   2.186  0.00  0.00    -0.302 N 
ATOM     19  C   UNL     1      -3.606   2.563   3.009  0.00  0.00    +0.265 C 
ATOM     20  O   UNL     1      -3.751   2.932   4.158  0.00  0.00    -0.268 OA
ATOM     21  H   UNL     1      -4.540   2.151   1.147  0.00  0.00    +0.150 HD
BRANCH  19  22
ATOM     22  C   UNL     1      -2.263   2.200   2.514  0.00  0.00    +0.148 A 
ATOM     23  C   UNL     1      -1.057   2.230   3.253  0.00  0.00    +0.066 A 
ATOM     24  C   UNL     1      -0.096   1.817   2.393  0.00  0.00    +0.142 A 
ATOM     25  N   UNL     1      -0.698   1.558   1.213  0.00  0.00    -0.262 N 
ATOM     26  N   UNL     1      -1.959   1.791   1.298  0.00  0.00    -0.166 NA
ATOM     27  C   UNL     1      -0.013   1.086   0.008  0.00  0.00    +0.173 C 
BRANCH  24  28
ATOM     28  C   UNL     1       1.374   1.674   2.697  0.00  0.00    +0.434 C 
ATOM     29  F   UNL     1       2.028   2.879   2.415  0.00  0.00    -0.164 F 
ATOM     30  F   UNL     1       1.542   1.358   4.050  0.00  0.00    -0.164 F 
ATOM     31  F   UNL     1       1.916   0.654   1.909  0.00  0.00    -0.164 F 
ENDBRANCH  24  28
ENDBRANCH  19  22
ENDBRANCH   1  18
TORSDOF 4
