REMARK  Name = ZINC39676408
REMARK  9 active torsions:
REMARK  status: ('A' for Active; 'I' for Inactive)
REMARK    1  A    between atoms: C_1  and  O_2
REMARK    2  A    between atoms: O_2  and  C_3
REMARK    3  A    between atoms: C_6  and  C_11
REMARK    4  A    between atoms: C_7  and  O_9
REMARK    5  A    between atoms: O_9  and  C_10
REMARK    6  A    between atoms: C_15  and  C_24
REMARK    7  A    between atoms: N_26  and  C_27
REMARK    8  A    between atoms: C_27  and  C_28
REMARK    9  A    between atoms: C_28  and  C_29
REMARK                            x       y       z     vdW  Elec       q    Type
REMARK                         _______ _______ _______ _____ _____    ______ ____
ROOT
ATOM      1  C   UNL     1      -4.817  -2.464  -0.041  0.00  0.00    +0.250 C 
ATOM      2  O   UNL     1      -4.827  -3.680  -0.067  0.00  0.00    -0.270 OA
ATOM      3  N   UNL     1      -5.969  -1.784   0.122  0.00  0.00    -0.296 N 
ATOM      4  C   UNL     1      -6.173  -0.317   0.073  0.00  0.00    +0.121 C 
ATOM      5  C   UNL     1      -7.518  -0.134  -0.665  0.00  0.00    +0.100 C 
ATOM      6  C   UNL     1      -8.266  -1.460  -0.452  0.00  0.00    -0.004 C 
ATOM      7  C   UNL     1      -7.321  -2.335   0.384  0.00  0.00    +0.115 C 
ATOM      8  C   UNL     1      -8.547  -2.130  -1.794  0.00  0.00    -0.010 C 
ATOM      9  C   UNL     1      -9.341  -3.418  -1.560  0.00  0.00    -0.082 C 
ATOM     10  N   UNL     1     -10.601  -3.101  -0.875  0.00  0.00    +0.379 N 
ATOM     11  C   UNL     1     -10.322  -2.542   0.453  0.00  0.00    -0.082 C 
ATOM     12  C   UNL     1      -9.569  -1.217   0.304  0.00  0.00    -0.010 C 
ATOM     13  H   UNL     1     -11.118  -2.427  -1.420  0.00  0.00    -0.086 HD
ATOM     14  H   UNL     1     -11.150  -3.942  -0.777  0.00  0.00    -0.086 HD
ENDROOT
BRANCH   1  18
ATOM     15  C   UNL     1      -1.151  -0.361  -0.461  0.00  0.00    +0.124 A 
ATOM     16  C   UNL     1      -2.153   0.143   0.363  0.00  0.00    +0.046 A 
ATOM     17  C   UNL     1      -3.341  -0.535   0.501  0.00  0.00    +0.020 A 
ATOM     18  C   UNL     1      -3.546  -1.735  -0.187  0.00  0.00    +0.079 A 
ATOM     19  C   UNL     1      -2.534  -2.241  -1.017  0.00  0.00    +0.136 A 
ATOM     20  C   UNL     1      -1.345  -1.547  -1.153  0.00  0.00    +0.092 A 
BRANCH  15  22
ATOM     21  C   UNL     1       0.154   1.530   0.148  0.00  0.00    +0.277 C 
ATOM     22  O   UNL     1       0.019   0.315  -0.593  0.00  0.00    -0.495 OA
ENDBRANCH  15  22
BRANCH  19  23
ATOM     23  O   UNL     1      -2.724  -3.405  -1.688  0.00  0.00    -0.494 OA
ATOM     24  C   UNL     1      -1.650  -3.859  -2.515  0.00  0.00    +0.277 C 
ENDBRANCH  19  23
ENDBRANCH   1  18
BRANCH   5  25
ATOM     25  C   UNL     1      -8.293   1.011  -0.066  0.00  0.00    +0.218 C 
ATOM     26  O   UNL     1      -8.175   1.273   1.112  0.00  0.00    -0.275 OA
ATOM     27  N   UNL     1      -9.119   1.744  -0.840  0.00  0.00    -0.315 N 
ATOM     28  H   UNL     1      -9.213   1.534  -1.782  0.00  0.00    +0.149 HD
BRANCH  27  29
ATOM     29  C   UNL     1      -9.873   2.857  -0.258  0.00  0.00    +0.109 C 
BRANCH  29  30
ATOM     30  C   UNL     1     -10.726   3.517  -1.342  0.00  0.00    +0.056 C 
BRANCH  30  31
ATOM     31  C   UNL     1     -11.502   4.662  -0.743  0.00  0.00    -0.021 A 
ATOM     32  C   UNL     1     -11.025   6.034  -0.556  0.00  0.00    +0.004 A 
ATOM     33  C   UNL     1      -9.824   6.690  -0.835  0.00  0.00    +0.030 A 
ATOM     34  C   UNL     1      -9.691   8.026  -0.529  0.00  0.00    +0.042 A 
ATOM     35  C   UNL     1     -10.742   8.721   0.055  0.00  0.00    +0.022 A 
ATOM     36  C   UNL     1     -11.933   8.088   0.336  0.00  0.00    +0.027 A 
ATOM     37  C   UNL     1     -12.090   6.739   0.034  0.00  0.00    +0.047 A 
ATOM     38  N   UNL     1     -13.130   5.849   0.189  0.00  0.00    -0.360 N 
ATOM     39  C   UNL     1     -12.763   4.619  -0.285  0.00  0.00    +0.087 A 
ATOM     40 CL   UNL     1      -8.200   8.846  -0.873  0.00  0.00    -0.084 Cl
ATOM     41  H   UNL     1     -13.994   6.063   0.573  0.00  0.00    +0.165 HD
ENDBRANCH  30  31
ENDBRANCH  29  30
ENDBRANCH  27  29
ENDBRANCH   5  25
TORSDOF 7
