REMARK  Name = ZINC36016869
REMARK  12 active torsions:
REMARK  status: ('A' for Active; 'I' for Inactive)
REMARK    1  A    between atoms: C_1  and  C_2
REMARK    2  A    between atoms: C_2  and  C_3
REMARK    3  A    between atoms: C_3  and  N_4
REMARK    4  A    between atoms: N_10  and  C_13
REMARK    5  A    between atoms: C_13  and  C_14
REMARK    6  A    between atoms: C_15  and  C_29
REMARK    7  A    between atoms: C_16  and  C_24
REMARK    8  A    between atoms: N_21  and  C_22
REMARK    9  A    between atoms: C_22  and  C_23
REMARK   10  A    between atoms: C_29  and  O_31
REMARK   11  A    between atoms: O_31  and  C_32
REMARK   12  A    between atoms: C_32  and  C_33
REMARK                            x       y       z     vdW  Elec       q    Type
REMARK                         _______ _______ _______ _____ _____    ______ ____
ROOT
ATOM      1  C   UNL     1       0.157  -8.530   4.194  0.00  0.00    +0.041 C 
ATOM      2  C   UNL     1      -0.228  -8.716   5.475  0.00  0.00    +0.080 C 
ATOM      3  C   UNL     1       0.559  -9.705   6.311  0.00  0.00    +0.144 C 
ATOM      4  N   UNL     1       1.686 -10.387   5.653  0.00  0.00    -0.288 N 
ATOM      5  C   UNL     1       1.948 -10.095   4.364  0.00  0.00    +0.307 C 
ATOM      6  O   UNL     1       2.877 -10.652   3.811  0.00  0.00    -0.252 OA
ATOM      7  N   UNL     1       1.216  -9.215   3.669  0.00  0.00    -0.258 N 
ATOM      8  H   UNL     1       2.228 -11.030   6.136  0.00  0.00    +0.151 HD
ENDROOT
BRANCH   3   9
ATOM      9  C   UNL     1       1.097  -8.972   7.513  0.00  0.00    -0.015 A 
ATOM     10  C   UNL     1       0.468  -9.077   8.738  0.00  0.00    +0.013 A 
ATOM     11  C   UNL     1       0.978  -8.405   9.799  0.00  0.00    +0.045 A 
ATOM     12  S   UNL     1       2.392  -7.590   9.075  0.00  0.00    -0.105 S 
ATOM     13  C   UNL     1       2.210  -8.205   7.409  0.00  0.00    +0.051 A 
ENDBRANCH   3   9
BRANCH   7  14
ATOM     14  C   UNL     1       1.574  -8.968   2.270  0.00  0.00    +0.111 C 
ATOM     15  C   UNL     1       2.588  -7.825   2.197  0.00  0.00    +0.025 C 
ENDBRANCH   7  14
BRANCH   2  16
ATOM     16  C   UNL     1      -1.327  -8.011   6.018  0.00  0.00    +0.339 C 
ATOM     17  O   UNL     1      -1.138  -7.077   6.775  0.00  0.00    -0.245 OA
BRANCH  16  18
ATOM     18  O   UNL     1      -2.587  -8.373   5.696  0.00  0.00    -0.462 OA
BRANCH  18  19
ATOM     19  C   UNL     1      -3.649  -7.617   6.280  0.00  0.00    +0.229 C 
ATOM     20  C   UNL     1      -4.992  -8.172   5.802  0.00  0.00    +0.048 C 
ENDBRANCH  18  19
ENDBRANCH  16  18
ENDBRANCH   2  16
BRANCH   1  21
ATOM     21  C   UNL     1      -0.598  -7.555   3.327  0.00  0.00    +0.136 C 
BRANCH  21  28
ATOM     22  N   UNL     1       0.509  -1.702   1.854  0.00  0.00    -0.299 N 
ATOM     23  C   UNL     1       1.064  -2.412   2.856  0.00  0.00    +0.302 C 
ATOM     24  O   UNL     1       1.530  -1.839   3.822  0.00  0.00    -0.253 OA
ATOM     25  N   UNL     1       1.104  -3.757   2.786  0.00  0.00    -0.283 N 
ATOM     26  C   UNL     1       0.652  -4.465   1.579  0.00  0.00    +0.124 C 
ATOM     27  C   UNL     1      -0.348  -5.548   1.995  0.00  0.00    +0.104 C 
ATOM     28  N   UNL     1       0.261  -6.402   3.024  0.00  0.00    -0.294 NA
ATOM     29  C   UNL     1       0.563  -5.637   4.241  0.00  0.00    +0.104 C 
ATOM     30  C   UNL     1       1.606  -4.557   3.914  0.00  0.00    +0.124 C 
ATOM     31  H   UNL     1       0.201  -2.152   1.052  0.00  0.00    +0.150 HD
BRANCH  22  32
ATOM     32  C   UNL     1       0.369  -0.248   1.976  0.00  0.00    +0.105 C 
BRANCH  32  34
ATOM     33  C   UNL     1      -0.432   1.827   0.839  0.00  0.00    +0.005 C 
ATOM     34  C   UNL     1      -0.286   0.309   0.711  0.00  0.00    +0.015 C 
ENDBRANCH  32  34
ENDBRANCH  22  32
ENDBRANCH  21  28
ENDBRANCH   1  21
TORSDOF 9
