REMARK  Name = ZINC28289473
REMARK  9 active torsions:
REMARK  status: ('A' for Active; 'I' for Inactive)
REMARK    1  A    between atoms: C_1  and  C_2
REMARK    2  A    between atoms: C_2  and  C_3
REMARK    3  A    between atoms: C_12  and  C_14
REMARK    4  A    between atoms: N_16  and  C_17
REMARK    5  A    between atoms: C_17  and  C_18
REMARK    6  A    between atoms: C_18  and  C_20
REMARK    7  A    between atoms: C_18  and  N_28
REMARK    8  A    between atoms: C_23  and  O_26
REMARK    9  A    between atoms: O_26  and  C_27
REMARK                            x       y       z     vdW  Elec       q    Type
REMARK                         _______ _______ _______ _____ _____    ______ ____
ROOT
ATOM      1  C   UNL     1      -2.516  -2.740   0.130  0.00  0.00    +0.279 C 
ATOM      2  O   UNL     1      -2.588  -3.952   0.168  0.00  0.00    -0.267 OA
ATOM      3  N   UNL     1      -3.641  -1.999   0.093  0.00  0.00    -0.310 N 
ATOM      4  H   UNL     1      -3.576  -0.901   0.058  0.00  0.00    +0.149 HD
ENDROOT
BRANCH   1  14
ATOM      5  C   UNL     1       2.406   1.372   0.056  0.00  0.00    -0.047 A 
ATOM      6  C   UNL     1       1.192   2.044   0.020  0.00  0.00    +0.007 A 
ATOM      7  C   UNL     1       0.002   1.350   0.028  0.00  0.00    +0.047 A 
ATOM      8  C   UNL     1       0.012  -0.041   0.073  0.00  0.00    +0.139 A 
ATOM      9  C   UNL     1       1.245  -0.714   0.109  0.00  0.00    +0.064 A 
ATOM     10  C   UNL     1       2.439   0.006   0.100  0.00  0.00    +0.019 A 
ATOM     11  C   UNL     1       1.239  -2.188   0.156  0.00  0.00    +0.193 A 
ATOM     12  O   UNL     1       2.273  -2.831   0.189  0.00  0.00    -0.287 OA
ATOM     13  C   UNL     1      -0.077  -2.846   0.162  0.00  0.00    +0.103 A 
ATOM     14  C   UNL     1      -1.191  -2.076   0.124  0.00  0.00    +0.193 A 
ATOM     15  O   UNL     1      -1.141  -0.737   0.082  0.00  0.00    -0.450 OA
BRANCH   5  17
ATOM     16  C   UNL     1       4.148   2.372  -1.398  0.00  0.00    +0.009 C 
ATOM     17  C   UNL     1       3.695   2.153   0.047  0.00  0.00    +0.032 C 
ENDBRANCH   5  17
ENDBRANCH   1  14
BRANCH   3  18
ATOM     18  C   UNL     1      -4.951  -2.655   0.098  0.00  0.00    +0.094 C 
BRANCH  18  19
ATOM     19  C   UNL     1      -6.053  -1.595   0.051  0.00  0.00    -0.020 C 
BRANCH  19  20
ATOM     20  C   UNL     1      -7.395  -2.270  -0.066  0.00  0.00    -0.059 A 
ATOM     21  C   UNL     1      -8.488  -1.756   0.607  0.00  0.00    +0.005 A 
ATOM     22  C   UNL     1      -9.720  -2.369   0.496  0.00  0.00    +0.046 A 
ATOM     23  C   UNL     1      -9.859  -3.510  -0.282  0.00  0.00    +0.120 A 
ATOM     24  C   UNL     1      -8.759  -4.027  -0.952  0.00  0.00    +0.046 A 
ATOM     25  C   UNL     1      -7.530  -3.406  -0.843  0.00  0.00    +0.005 A 
BRANCH  23  26
ATOM     26  O   UNL     1     -11.069  -4.119  -0.388  0.00  0.00    -0.495 OA
ATOM     27  C   UNL     1     -12.156  -3.531   0.329  0.00  0.00    +0.277 C 
ENDBRANCH  23  26
ENDBRANCH  19  20
BRANCH  19  28
ATOM     28  N   UNL     1      -5.841  -0.720  -1.109  0.00  0.00    +0.385 N 
ATOM     29  C   UNL     1      -6.053  -1.460  -2.380  0.00  0.00    -0.078 C 
ATOM     30  C   UNL     1      -6.314  -0.331  -3.409  0.00  0.00    -0.020 C 
ATOM     31  C   UNL     1      -7.141   0.692  -2.597  0.00  0.00    -0.020 C 
ATOM     32  C   UNL     1      -6.819   0.390  -1.122  0.00  0.00    -0.078 C 
ATOM     33  H   UNL     1      -4.810  -0.348  -1.020  0.00  0.00    -0.081 HD
ENDBRANCH  19  28
ENDBRANCH  18  19
ENDBRANCH   3  18
TORSDOF 7
