REMARK  Name = ZINC46572549
REMARK  7 active torsions:
REMARK  status: ('A' for Active; 'I' for Inactive)
REMARK    1  A    between atoms: C_1  and  C_2
REMARK    2  A    between atoms: C_5  and  C_23
REMARK    3  A    between atoms: C_6  and  N_8
REMARK    4  A    between atoms: N_8  and  C_9
REMARK    5  A    between atoms: C_9  and  N_11
REMARK    6  A    between atoms: N_11  and  N_12
REMARK    7  A    between atoms: C_13  and  C_15
REMARK                            x       y       z     vdW  Elec       q    Type
REMARK                         _______ _______ _______ _____ _____    ______ ____
ROOT
ATOM      1  N   UNL     1       0.266  -2.819   4.717  0.00  0.00    -0.245 N 
ATOM      2  H   UNL     1       0.337  -2.342   5.558  0.00  0.00    +0.172 HD
ENDROOT
BRANCH   1   3
ATOM      3  N   UNL     1       0.285  -4.220   4.702  0.00  0.00    -0.231 N 
ATOM      4  C   UNL     1       0.401  -4.905   5.857  0.00  0.00    +0.260 C 
ATOM      5  O   UNL     1       0.489  -4.307   6.911  0.00  0.00    -0.269 OA
ATOM      6  H   UNL     1       0.214  -4.697   3.860  0.00  0.00    +0.173 HD
BRANCH   4   7
ATOM      7  C   UNL     1       0.421  -6.383   5.841  0.00  0.00    +0.042 A 
ATOM      8  C   UNL     1       0.325  -7.072   4.631  0.00  0.00    +0.051 A 
ATOM      9  C   UNL     1       0.344  -8.454   4.623  0.00  0.00    +0.125 A 
ATOM     10  C   UNL     1       0.459  -9.154   5.813  0.00  0.00    +0.053 A 
ATOM     11  C   UNL     1       0.554  -8.475   7.015  0.00  0.00    +0.021 A 
ATOM     12  C   UNL     1       0.541  -7.095   7.035  0.00  0.00    +0.028 A 
ATOM     13 BR   UNL     1       0.710  -9.441   8.634  0.00  0.00    -0.050 Br
ATOM     14  F   UNL     1       0.252  -9.123   3.453  0.00  0.00    -0.205 F 
ENDBRANCH   4   7
ENDBRANCH   1   3
BRANCH   1  15
ATOM     15  C   UNL     1       0.149  -2.135   3.562  0.00  0.00    +0.151 C 
ATOM     16  S   UNL     1       0.127  -0.423   3.580  0.00  0.00    -0.017 S 
BRANCH  15  17
ATOM     17  N   UNL     1       0.051  -2.797   2.392  0.00  0.00    -0.296 N 
ATOM     18  H   UNL     1      -0.016  -3.765   2.387  0.00  0.00    +0.154 HD
BRANCH  17  24
ATOM     19  C   UNL     1       1.920   0.767  -0.431  0.00  0.00    +0.044 C 
ATOM     20  C   UNL     1       0.941  -0.357  -0.210  0.00  0.00    -0.049 A 
ATOM     21  C   UNL     1       0.036  -0.690  -1.201  0.00  0.00    +0.004 A 
ATOM     22  C   UNL     1      -0.864  -1.721  -1.002  0.00  0.00    +0.005 A 
ATOM     23  C   UNL     1      -0.861  -2.422   0.188  0.00  0.00    -0.029 A 
ATOM     24  C   UNL     1       0.046  -2.090   1.185  0.00  0.00    +0.036 A 
ATOM     25  C   UNL     1       0.953  -1.057   0.980  0.00  0.00    +0.027 A 
ATOM     26  C   UNL     1      -1.843  -3.545   0.405  0.00  0.00    +0.045 C 
ENDBRANCH  17  24
ENDBRANCH  15  17
ENDBRANCH   1  15
TORSDOF 5
