REMARK  Name = ZINC25629159
REMARK  8 active torsions:
REMARK  status: ('A' for Active; 'I' for Inactive)
REMARK    1  A    between atoms: C_4  and  N_9
REMARK    2  A    between atoms: C_5  and  C_7
REMARK    3  A    between atoms: C_13  and  C_15
REMARK    4  A    between atoms: C_15  and  S_16
REMARK    5  A    between atoms: S_16  and  C_17
REMARK    6  A    between atoms: C_20  and  C_29
REMARK    7  A    between atoms: N_21  and  C_22
REMARK    8  A    between atoms: C_22  and  C_23
REMARK                            x       y       z     vdW  Elec       q    Type
REMARK                         _______ _______ _______ _____ _____    ______ ____
ROOT
ATOM      1  C   UNL     1       0.047   4.227  -0.007  0.00  0.00    +0.173 C 
ENDROOT
BRANCH   1   6
ATOM      2  N   UNL     1      -1.839   8.648   0.068  0.00  0.00    -0.268 N 
ATOM      3  C   UNL     1      -0.748   7.857   0.048  0.00  0.00    +0.310 C 
ATOM      4  O   UNL     1       0.361   8.352   0.043  0.00  0.00    -0.252 OA
ATOM      5  N   UNL     1      -0.888   6.516   0.031  0.00  0.00    -0.239 N 
ATOM      6  C   UNL     1       0.203   5.726   0.011  0.00  0.00    +0.231 C 
ATOM      7  O   UNL     1       1.310   6.220   0.007  0.00  0.00    -0.274 OA
ATOM      8  H   UNL     1      -2.843   8.203  -0.003  0.00  0.00    +0.156 HD
ATOM      9  H   UNL     1      -1.892   6.068   0.035  0.00  0.00    +0.159 HD
BRANCH   2  13
ATOM     10  C   UNL     1      -1.409  12.784   0.401  0.00  0.00    +0.001 A 
ATOM     11  C   UNL     1      -0.482  12.040  -0.311  0.00  0.00    +0.002 A 
ATOM     12  C   UNL     1      -0.619  10.670  -0.418  0.00  0.00    +0.024 A 
ATOM     13  C   UNL     1      -1.696  10.030   0.179  0.00  0.00    +0.052 A 
ATOM     14  C   UNL     1      -2.637  10.780   0.901  0.00  0.00    +0.073 A 
ATOM     15  C   UNL     1      -2.482  12.165   1.005  0.00  0.00    +0.021 A 
BRANCH  14  16
ATOM     16  C   UNL     1      -3.749  10.131   1.527  0.00  0.00    +0.101 C 
ATOM     17  N   UNL     1      -4.631   9.616   2.023  0.00  0.00    -0.191 NA
ENDBRANCH  14  16
ENDBRANCH   2  13
ENDBRANCH   1   6
BRANCH   1  18
ATOM     18  S   UNL     1       1.682   3.450  -0.033  0.00  0.00    -0.077 S 
BRANCH  18  19
ATOM     19  C   UNL     1       1.213   1.752  -0.051  0.00  0.00    +0.192 A 
ATOM     20  N   UNL     1      -0.013   1.282  -0.045  0.00  0.00    -0.122 NA
ATOM     21  N   UNL     1       0.004  -0.003  -0.062  0.00  0.00    -0.128 NA
ATOM     22  C   UNL     1       1.246  -0.434  -0.079  0.00  0.00    +0.172 A 
ATOM     23  N   UNL     1       2.059   0.677  -0.072  0.00  0.00    -0.299 N 
BRANCH  22  24
ATOM     24  C   UNL     1       1.685  -1.839  -0.101  0.00  0.00    +0.056 A 
ATOM     25  C   UNL     1       0.956  -2.968  -0.380  0.00  0.00    +0.019 A 
ATOM     26  C   UNL     1       1.591  -4.189  -0.341  0.00  0.00    +0.008 A 
ATOM     27  C   UNL     1       2.909  -4.241  -0.020  0.00  0.00    +0.046 A 
ATOM     28  S   UNL     1       3.301  -2.519   0.235  0.00  0.00    -0.094 S 
ENDBRANCH  22  24
BRANCH  23  29
ATOM     29  C   UNL     1       3.524   0.704  -0.085  0.00  0.00    +0.157 C 
BRANCH  29  30
ATOM     30  C   UNL     1       4.021   0.732  -1.532  0.00  0.00    +0.138 C 
ATOM     31  C   UNL     1       5.561   0.638  -1.558  0.00  0.00    +0.035 C 
ATOM     32  C   UNL     1       5.931   1.624  -2.702  0.00  0.00    +0.031 C 
ATOM     33  C   UNL     1       4.827   2.698  -2.534  0.00  0.00    +0.160 C 
ATOM     34  O   UNL     1       3.650   1.970  -2.149  0.00  0.00    -0.375 OA
ENDBRANCH  29  30
ENDBRANCH  23  29
ENDBRANCH  18  19
ENDBRANCH   1  18
TORSDOF 8
