REMARK  Name = ZINC39677201
REMARK  11 active torsions:
REMARK  status: ('A' for Active; 'I' for Inactive)
REMARK    1  A    between atoms: C_1  and  C_2
REMARK    2  A    between atoms: C_6  and  C_7
REMARK    3  A    between atoms: C_7  and  N_8
REMARK    4  A    between atoms: C_9  and  C_11
REMARK    5  A    between atoms: C_22  and  C_24
REMARK    6  A    between atoms: C_26  and  O_34
REMARK    7  A    between atoms: C_27  and  O_32
REMARK    8  A    between atoms: C_28  and  O_30
REMARK    9  A    between atoms: O_30  and  C_31
REMARK   10  A    between atoms: O_32  and  C_33
REMARK   11  A    between atoms: O_34  and  C_35
REMARK                            x       y       z     vdW  Elec       q    Type
REMARK                         _______ _______ _______ _____ _____    ______ ____
ROOT
ATOM      1  C   UNL     1      -3.684   0.578   4.756  0.00  0.00    +0.100 C 
ATOM      2  C   UNL     1      -4.104  -0.907   4.667  0.00  0.00    +0.121 C 
ATOM      3  N   UNL     1      -3.891  -1.439   6.033  0.00  0.00    -0.296 N 
ATOM      4  C   UNL     1      -4.336  -0.345   6.929  0.00  0.00    +0.115 C 
ATOM      5  C   UNL     1      -3.842   0.944   6.242  0.00  0.00    -0.004 C 
ATOM      6  C   UNL     1      -4.871   2.058   6.405  0.00  0.00    -0.010 C 
ATOM      7  C   UNL     1      -4.967   2.445   7.884  0.00  0.00    -0.082 C 
ATOM      8  N   UNL     1      -3.653   2.891   8.361  0.00  0.00    +0.379 N 
ATOM      9  C   UNL     1      -2.691   1.785   8.287  0.00  0.00    -0.082 C 
ATOM     10  C   UNL     1      -2.498   1.370   6.826  0.00  0.00    -0.010 C 
ATOM     11  C   UNL     1      -3.403  -2.646   6.383  0.00  0.00    +0.247 C 
ATOM     12  O   UNL     1      -2.961  -3.393   5.531  0.00  0.00    -0.270 OA
ATOM     13  H   UNL     1      -3.330   3.655   7.787  0.00  0.00    -0.086 HD
ATOM     14  H   UNL     1      -3.732   3.203   9.318  0.00  0.00    -0.086 HD
ENDROOT
BRANCH  11  15
ATOM     15  C   UNL     1      -3.404  -3.060   7.800  0.00  0.00    +0.044 A 
ATOM     16  C   UNL     1      -4.274  -2.450   8.706  0.00  0.00    +0.062 A 
ATOM     17  C   UNL     1      -4.274  -2.840  10.032  0.00  0.00    +0.166 A 
ATOM     18  C   UNL     1      -3.408  -3.841  10.465  0.00  0.00    +0.204 A 
ATOM     19  C   UNL     1      -2.540  -4.450   9.563  0.00  0.00    +0.166 A 
ATOM     20  C   UNL     1      -2.540  -4.068   8.235  0.00  0.00    +0.062 A 
BRANCH  19  21
ATOM     21  O   UNL     1      -1.695  -5.427   9.989  0.00  0.00    -0.491 OA
ATOM     22  C   UNL     1      -0.831  -6.010   9.010  0.00  0.00    +0.277 C 
ENDBRANCH  19  21
BRANCH  18  23
ATOM     23  O   UNL     1      -3.410  -4.222  11.769  0.00  0.00    -0.488 OA
ATOM     24  C   UNL     1      -4.296  -5.282  12.133  0.00  0.00    +0.277 C 
ENDBRANCH  18  23
BRANCH  17  25
ATOM     25  O   UNL     1      -5.121  -2.246  10.915  0.00  0.00    -0.491 OA
ATOM     26  C   UNL     1      -5.982  -1.227  10.403  0.00  0.00    +0.277 C 
ENDBRANCH  17  25
ENDBRANCH  11  15
BRANCH   1  28
ATOM     27  N   UNL     1      -1.819   1.936   3.865  0.00  0.00    -0.310 N 
ATOM     28  C   UNL     1      -2.251   0.745   4.324  0.00  0.00    +0.218 C 
ATOM     29  O   UNL     1      -1.484  -0.193   4.389  0.00  0.00    -0.275 OA
ATOM     30  H   UNL     1      -2.432   2.686   3.813  0.00  0.00    +0.149 HD
BRANCH  27  31
ATOM     31  C   UNL     1      -0.425   2.099   3.444  0.00  0.00    +0.147 C 
BRANCH  31  37
ATOM     32  C   UNL     1       0.459   4.482   5.169  0.00  0.00    +0.044 C 
ATOM     33  C   UNL     1       0.185   4.598   3.692  0.00  0.00    -0.039 A 
ATOM     34  C   UNL     1       0.332   5.811   3.044  0.00  0.00    +0.011 A 
ATOM     35  C   UNL     1       0.078   5.881   1.715  0.00  0.00    +0.046 A 
ATOM     36  S   UNL     1      -0.385   4.198   1.338  0.00  0.00    -0.100 S 
ATOM     37  C   UNL     1      -0.203   3.514   2.977  0.00  0.00    +0.010 A 
ENDBRANCH  31  37
ENDBRANCH  27  31
ENDBRANCH   1  28
TORSDOF 7
