REMARK  Name = ZINC39695027
REMARK  8 active torsions:
REMARK  status: ('A' for Active; 'I' for Inactive)
REMARK    1  A    between atoms: C_1  and  C_2
REMARK    2  A    between atoms: C_3  and  C_9
REMARK    3  A    between atoms: C_9  and  N_10
REMARK    4  A    between atoms: C_11  and  C_13
REMARK    5  A    between atoms: C_24  and  C_26
REMARK    6  A    between atoms: C_26  and  C_28
REMARK    7  A    between atoms: C_26  and  O_29
REMARK    8  A    between atoms: O_29  and  C_30
REMARK                            x       y       z     vdW  Elec       q    Type
REMARK                         _______ _______ _______ _____ _____    ______ ____
ROOT
ATOM      1  C   UNL     1       2.975   1.722  -4.214  0.00  0.00    +0.100 C 
ATOM      2  C   UNL     1       3.946   0.523  -4.304  0.00  0.00    +0.121 C 
ATOM      3  N   UNL     1       3.999   0.193  -5.748  0.00  0.00    -0.297 N 
ATOM      4  C   UNL     1       4.000   1.510  -6.428  0.00  0.00    +0.115 C 
ATOM      5  C   UNL     1       3.017   2.369  -5.608  0.00  0.00    -0.004 C 
ATOM      6  C   UNL     1       3.524   3.805  -5.510  0.00  0.00    -0.010 C 
ATOM      7  C   UNL     1       3.501   4.446  -6.900  0.00  0.00    -0.082 C 
ATOM      8  N   UNL     1       2.131   4.426  -7.428  0.00  0.00    +0.379 N 
ATOM      9  C   UNL     1       1.685   3.039  -7.607  0.00  0.00    -0.082 C 
ATOM     10  C   UNL     1       1.631   2.338  -6.247  0.00  0.00    -0.010 C 
ATOM     11  C   UNL     1       4.039  -1.029  -6.315  0.00  0.00    +0.256 C 
ATOM     12  O   UNL     1       3.937  -2.021  -5.625  0.00  0.00    -0.272 OA
ATOM     13  H   UNL     1       1.516   4.895  -6.780  0.00  0.00    -0.086 HD
ATOM     14  H   UNL     1       2.107   4.903  -8.316  0.00  0.00    -0.086 HD
ENDROOT
BRANCH   1  16
ATOM     15  N   UNL     1       0.742   2.035  -3.199  0.00  0.00    -0.311 N 
ATOM     16  C   UNL     1       1.581   1.246  -3.898  0.00  0.00    +0.218 C 
ATOM     17  O   UNL     1       1.214   0.152  -4.272  0.00  0.00    -0.275 OA
ATOM     18  H   UNL     1       1.035   2.910  -2.899  0.00  0.00    +0.149 HD
BRANCH  15  19
ATOM     19  C   UNL     1      -0.614   1.572  -2.891  0.00  0.00    +0.139 C 
BRANCH  19  22
ATOM     20  C   UNL     1      -1.775   3.837  -4.259  0.00  0.00    +0.045 C 
ATOM     21  C   UNL     1      -1.897   3.717  -2.762  0.00  0.00    -0.027 A 
ATOM     22  C   UNL     1      -1.342   2.634  -2.107  0.00  0.00    -0.026 A 
ATOM     23  C   UNL     1      -1.454   2.524  -0.734  0.00  0.00    +0.005 A 
ATOM     24  C   UNL     1      -2.121   3.497  -0.014  0.00  0.00    +0.002 A 
ATOM     25  C   UNL     1      -2.677   4.581  -0.667  0.00  0.00    +0.020 A 
ATOM     26  C   UNL     1      -2.561   4.694  -2.041  0.00  0.00    +0.044 A 
ATOM     27 CL   UNL     1      -3.253   6.059  -2.862  0.00  0.00    -0.083 Cl
ENDBRANCH  19  22
ENDBRANCH  15  19
ENDBRANCH   1  16
BRANCH  11  28
ATOM     28  C   UNL     1       4.212  -1.163  -7.806  0.00  0.00    +0.256 C 
ATOM     29  C   UNL     1       5.621  -0.715  -8.198  0.00  0.00    +0.062 C 
BRANCH  28  30
ATOM     30  O   UNL     1       4.022  -2.527  -8.187  0.00  0.00    -0.480 OA
BRANCH  30  31
ATOM     31  C   UNL     1       3.627  -2.761  -9.466  0.00  0.00    +0.122 A 
ATOM     32  C   UNL     1       3.305  -4.049  -9.869  0.00  0.00    +0.045 A 
ATOM     33  C   UNL     1       2.903  -4.285 -11.169  0.00  0.00    +0.004 A 
ATOM     34  C   UNL     1       2.822  -3.238 -12.069  0.00  0.00    +0.000 A 
ATOM     35  C   UNL     1       3.143  -1.954 -11.670  0.00  0.00    +0.004 A 
ATOM     36  C   UNL     1       3.540  -1.712 -10.369  0.00  0.00    +0.045 A 
ENDBRANCH  30  31
ENDBRANCH  28  30
ENDBRANCH  11  28
TORSDOF 6
