REMARK  Name = ZINC04222113
REMARK  12 active torsions:
REMARK  status: ('A' for Active; 'I' for Inactive)
REMARK    1  A    between atoms: C_1  and  C_2
REMARK    2  A    between atoms: C_2  and  N_3
REMARK    3  A    between atoms: N_3  and  C_4
REMARK    4  A    between atoms: C_4  and  C_5
REMARK    5  A    between atoms: C_6  and  C_8
REMARK    6  A    between atoms: C_8  and  C_10
REMARK    7  A    between atoms: C_8  and  C_11
REMARK    8  A    between atoms: C_15  and  C_42
REMARK    9  A    between atoms: C_23  and  C_25
REMARK   10  A    between atoms: C_31  and  C_33
REMARK   11  A    between atoms: C_34  and  C_41
REMARK   12  A    between atoms: C_38  and  O_40
REMARK                            x       y       z     vdW  Elec       q    Type
REMARK                         _______ _______ _______ _____ _____    ______ ____
ROOT
ATOM      1  C   UNL     1      -0.886   1.197  -1.089  0.00  0.00    +0.029 C 
ATOM      2  C   UNL     1      -0.993  -0.327  -1.027  0.00  0.00    +0.007 C 
ATOM      3  C   UNL     1      -0.301  -0.946  -2.246  0.00  0.00    +0.008 C 
ATOM      4  C   UNL     1      -0.960  -0.413  -3.516  0.00  0.00    -0.022 C 
ATOM      5  C   UNL     1      -0.348  -1.066  -4.757  0.00  0.00    +0.051 C 
ATOM      6  C   UNL     1       0.972  -0.464  -5.033  0.00  0.00    +0.015 A 
ATOM      7  C   UNL     1       1.501   0.660  -4.485  0.00  0.00    +0.057 A 
ATOM      8  N   UNL     1       2.725   0.987  -4.895  0.00  0.00    -0.229 NA
ATOM      9  C   UNL     1       3.386   0.267  -5.777  0.00  0.00    +0.165 A 
ATOM     10  S   UNL     1       2.260  -1.012  -6.121  0.00  0.00    -0.057 S 
ATOM     11  N   UNL     1       4.657   0.475  -6.298  0.00  0.00    -0.264 N 
ATOM     12  C   UNL     1       5.164  -0.386  -7.202  0.00  0.00    +0.222 C 
ATOM     13  O   UNL     1       4.511  -1.343  -7.561  0.00  0.00    -0.275 OA
ATOM     14  C   UNL     1       0.707   1.465  -3.466  0.00  0.00    +0.042 C 
ATOM     15  C   UNL     1      -0.779   1.107  -3.579  0.00  0.00    +0.033 C 
ATOM     16  C   UNL     1      -1.523   1.717  -2.380  0.00  0.00    +0.123 C 
ATOM     17  C   UNL     1       0.894   2.959  -3.739  0.00  0.00    +0.014 C 
ATOM     18  C   UNL     1      -2.454  -0.741  -3.483  0.00  0.00    +0.012 C 
ATOM     19  H   UNL     1       5.180   1.241  -6.012  0.00  0.00    +0.157 HD
ENDROOT
BRANCH  12  20
ATOM     20  C   UNL     1       6.543  -0.160  -7.768  0.00  0.00    +0.078 C 
ATOM     21  C   UNL     1       6.585   1.193  -8.482  0.00  0.00    +0.032 C 
ATOM     22  C   UNL     1       7.997   1.435  -9.025  0.00  0.00    +0.108 C 
ATOM     23  N   UNL     1       8.380   0.296  -9.870  0.00  0.00    -0.302 N 
ATOM     24  C   UNL     1       8.289  -1.060  -9.311  0.00  0.00    +0.108 C 
ATOM     25  C   UNL     1       6.874  -1.274  -8.764  0.00  0.00    +0.032 C 
ATOM     26  C   UNL     1       8.807   0.490 -11.133  0.00  0.00    +0.212 C 
ATOM     27  O   UNL     1       9.019  -0.461 -11.855  0.00  0.00    -0.276 OA
ATOM     28  C   UNL     1       9.022   1.890 -11.648  0.00  0.00    +0.109 C 
ENDBRANCH  12  20
BRANCH   1  29
ATOM     29  C   UNL     1      -1.607   1.807   0.115  0.00  0.00    +0.078 C 
ATOM     30  C   UNL     1      -1.487   3.331   0.063  0.00  0.00    +0.017 C 
BRANCH  29  32
ATOM     31  N   UNL     1      -1.573   1.536   2.573  0.00  0.00    -0.302 N 
ATOM     32  C   UNL     1      -0.981   1.296   1.387  0.00  0.00    +0.219 C 
ATOM     33  O   UNL     1       0.057   0.669   1.343  0.00  0.00    -0.275 OA
BRANCH  31  35
ATOM     34  C   UNL     1      -0.107   2.252   4.395  0.00  0.00    +0.024 C 
ATOM     35  C   UNL     1      -0.930   1.100   3.815  0.00  0.00    +0.104 C 
ENDBRANCH  31  35
BRANCH  31  36
ATOM     36  C   UNL     1      -2.861   2.233   2.621  0.00  0.00    +0.104 C 
ATOM     37  C   UNL     1      -3.993   1.228   2.400  0.00  0.00    +0.024 C 
ENDBRANCH  31  36
ENDBRANCH  29  32
ENDBRANCH   1  29
BRANCH  16  38
ATOM     38  O   UNL     1      -2.899   1.332  -2.424  0.00  0.00    -0.391 OA
ATOM     39  H   UNL     1      -3.429   1.683  -1.695  0.00  0.00    +0.210 HD
ENDBRANCH  16  38
TORSDOF 6
