REMARK  Name = ZINC02949129
REMARK  4 active torsions:
REMARK  status: ('A' for Active; 'I' for Inactive)
REMARK    1  A    between atoms: N_13  and  C_14
REMARK    2  A    between atoms: C_14  and  C_15
REMARK    3  A    between atoms: C_18  and  C_21
REMARK    4  A    between atoms: N_23  and  C_24
REMARK                            x       y       z     vdW  Elec       q    Type
REMARK                         _______ _______ _______ _____ _____    ______ ____
ROOT
ATOM      1  C   UNL     1       6.055   3.261  -0.040  0.00  0.00    +0.006 C 
ATOM      2  C   UNL     1       6.111   2.460   1.262  0.00  0.00    +0.006 C 
ATOM      3  C   UNL     1       7.336   1.544   1.245  0.00  0.00    +0.013 C 
ATOM      4  C   UNL     1       8.604   2.390   1.111  0.00  0.00    +0.075 C 
ATOM      5  C   UNL     1       8.547   3.190  -0.191  0.00  0.00    +0.013 C 
ATOM      6  C   UNL     1       7.322   4.107  -0.174  0.00  0.00    +0.006 C 
ENDROOT
BRANCH   4   7
ATOM      7  C   UNL     1       8.701   3.337   2.279  0.00  0.00    +0.216 C 
ATOM      8  O   UNL     1       8.724   4.534   2.089  0.00  0.00    -0.276 OA
ATOM      9  N   UNL     1       8.764   2.853   3.536  0.00  0.00    -0.312 N 
ATOM     10  H   UNL     1       8.743   1.767   3.709  0.00  0.00    +0.149 HD
BRANCH   9  11
ATOM     11  C   UNL     1       8.858   3.774   4.671  0.00  0.00    +0.073 C 
ATOM     12  C   UNL     1      10.323   4.152   4.901  0.00  0.00    +0.022 C 
ATOM     13  C   UNL     1      10.422   5.113   6.087  0.00  0.00    +0.002 C 
ATOM     14  C   UNL     1       9.868   4.435   7.341  0.00  0.00    +0.000 C 
ATOM     15  C   UNL     1       8.403   4.057   7.112  0.00  0.00    +0.002 C 
ATOM     16  C   UNL     1       8.304   3.095   5.926  0.00  0.00    +0.022 C 
ENDBRANCH   9  11
ENDBRANCH   4   7
BRANCH   1  17
ATOM     17  C   UNL     1       4.830   4.177  -0.023  0.00  0.00    +0.106 C 
BRANCH  17  30
ATOM     18  C   UNL     1      -0.013   1.076   0.008  0.00  0.00    +0.001 A 
ATOM     19  C   UNL     1      -1.226   1.748   0.017  0.00  0.00    +0.002 A 
ATOM     20  C   UNL     1      -1.268   3.127   0.032  0.00  0.00    +0.026 A 
ATOM     21  C   UNL     1      -0.083   3.850   0.024  0.00  0.00    +0.052 A 
ATOM     22  C   UNL     1       1.149   3.170   0.008  0.00  0.00    +0.038 A 
ATOM     23  C   UNL     1       1.174   1.776   0.000  0.00  0.00    +0.013 A 
ATOM     24  C   UNL     1       2.382   3.970   0.000  0.00  0.00    +0.131 A 
ATOM     25  N   UNL     1       2.278   5.290   0.008  0.00  0.00    -0.207 NA
ATOM     26  C   UNL     1       1.094   5.901   0.022  0.00  0.00    +0.179 A 
ATOM     27  S   UNL     1       1.057   7.612   0.032  0.00  0.00    -0.011 S 
ATOM     28  N   UNL     1      -0.073   5.233   0.031  0.00  0.00    -0.333 N 
ATOM     29  H   UNL     1      -1.021   5.790   0.044  0.00  0.00    +0.168 HD
ATOM     30  N   UNL     1       3.611   3.363  -0.015  0.00  0.00    -0.328 N 
ATOM     31  H   UNL     1       3.683   2.266  -0.022  0.00  0.00    +0.147 HD
ENDBRANCH  17  30
ENDBRANCH   1  17
TORSDOF 4
