REMARK  Name = ZINC60105843
REMARK  4 active torsions:
REMARK  status: ('A' for Active; 'I' for Inactive)
REMARK    1  A    between atoms: C_1  and  C_2
REMARK    2  A    between atoms: C_7  and  N_8
REMARK    3  A    between atoms: C_11  and  C_13
REMARK    4  A    between atoms: N_15  and  C_16
REMARK                            x       y       z     vdW  Elec       q    Type
REMARK                         _______ _______ _______ _____ _____    ______ ____
ROOT
ATOM      1  N   UNL     1       0.232   0.131   2.296  0.00  0.00    -0.235 N 
ATOM      2  C   UNL     1       0.555  -0.375   3.517  0.00  0.00    +0.049 A 
ATOM      3  C   UNL     1       0.591   0.665   4.378  0.00  0.00    +0.006 A 
ATOM      4  C   UNL     1       0.275   1.811   3.611  0.00  0.00    +0.151 A 
ATOM      5  N   UNL     1       0.078   1.404   2.372  0.00  0.00    -0.161 NA
ATOM      6  C   UNL     1       0.943   0.190   5.766  0.00  0.00    +0.040 C 
ATOM      7  C   UNL     1       0.703  -1.336   5.739  0.00  0.00    +0.011 C 
ATOM      8  C   UNL     1       0.882  -1.662   4.240  0.00  0.00    +0.056 C 
ENDROOT
BRANCH   1  15
ATOM      9  C   UNL     1      -2.074   0.559   0.683  0.00  0.00    +0.046 C 
ATOM     10  C   UNL     1      -1.017  -0.448   0.309  0.00  0.00    -0.025 A 
ATOM     11  C   UNL     1      -1.148  -1.192  -0.848  0.00  0.00    +0.005 A 
ATOM     12  C   UNL     1      -0.179  -2.116  -1.191  0.00  0.00    +0.000 A 
ATOM     13  C   UNL     1       0.925  -2.299  -0.378  0.00  0.00    +0.002 A 
ATOM     14  C   UNL     1       1.062  -1.559   0.780  0.00  0.00    +0.028 A 
ATOM     15  C   UNL     1       0.093  -0.626   1.125  0.00  0.00    +0.069 A 
ENDBRANCH   1  15
BRANCH   4  16
ATOM     16  C   UNL     1       0.187   3.200   4.104  0.00  0.00    +0.269 C 
ATOM     17  O   UNL     1       0.397   3.444   5.276  0.00  0.00    -0.268 OA
ATOM     18  N   UNL     1      -0.126   4.198   3.253  0.00  0.00    -0.278 N 
ATOM     19  H   UNL     1      -0.372   3.995   2.337  0.00  0.00    +0.155 HD
BRANCH  18  20
ATOM     20  C   UNL     1      -0.097   5.528   3.693  0.00  0.00    +0.072 A 
ATOM     21  C   UNL     1       0.628   5.869   4.827  0.00  0.00    +0.029 A 
ATOM     22  C   UNL     1       0.657   7.181   5.260  0.00  0.00    +0.043 A 
ATOM     23  C   UNL     1      -0.037   8.157   4.565  0.00  0.00    +0.161 A 
ATOM     24  C   UNL     1      -0.763   7.820   3.432  0.00  0.00    +0.195 A 
ATOM     25  C   UNL     1      -0.789   6.508   2.992  0.00  0.00    +0.182 A 
ATOM     26  F   UNL     1      -1.492   6.180   1.885  0.00  0.00    -0.200 F 
ATOM     27  F   UNL     1      -1.440   8.774   2.756  0.00  0.00    -0.199 F 
ATOM     28  F   UNL     1      -0.007   9.438   4.991  0.00  0.00    -0.202 F 
ENDBRANCH  18  20
ENDBRANCH   4  16
TORSDOF 3
