REMARK  Name = ZINC03066478
REMARK  6 active torsions:
REMARK  status: ('A' for Active; 'I' for Inactive)
REMARK    1  A    between atoms: C_1  and  C_2
REMARK    2  A    between atoms: C_9  and  C_11
REMARK    3  A    between atoms: C_13  and  N_18
REMARK    4  A    between atoms: C_16  and  O_17
REMARK    5  A    between atoms: C_19  and  C_20
REMARK    6  A    between atoms: C_25  and  O_26
REMARK                            x       y       z     vdW  Elec       q    Type
REMARK                         _______ _______ _______ _____ _____    ______ ____
ROOT
ATOM      1  C   UNL     1      -7.041   0.624   0.885  0.00  0.00    +0.080 A 
ATOM      2  C   UNL     1      -5.843   1.336   0.889  0.00  0.00    +0.044 A 
ATOM      3  C   UNL     1      -4.813   0.960   0.029  0.00  0.00    +0.065 A 
ATOM      4  C   UNL     1      -4.987  -0.125  -0.837  0.00  0.00    +0.031 A 
ATOM      5  C   UNL     1      -6.171  -0.831  -0.836  0.00  0.00    +0.048 A 
ATOM      6  C   UNL     1      -7.202  -0.464   0.017  0.00  0.00    +0.129 A 
ENDROOT
BRANCH   1  15
ATOM      7  C   UNL     1     -13.234   1.458   4.813  0.00  0.00    +0.044 C 
ATOM      8  C   UNL     1     -11.840   1.674   4.281  0.00  0.00    -0.048 A 
ATOM      9  C   UNL     1     -11.063   2.708   4.783  0.00  0.00    +0.007 A 
ATOM     10  C   UNL     1      -9.785   2.918   4.308  0.00  0.00    +0.049 A 
ATOM     11  C   UNL     1      -9.271   2.092   3.320  0.00  0.00    +0.156 A 
ATOM     12  C   UNL     1     -10.054   1.045   2.809  0.00  0.00    +0.110 A 
ATOM     13  C   UNL     1     -11.346   0.844   3.300  0.00  0.00    +0.035 A 
ATOM     14  N   UNL     1      -9.302   0.420   1.866  0.00  0.00    -0.209 NA
ATOM     15  C   UNL     1      -8.138   1.016   1.794  0.00  0.00    +0.232 A 
ATOM     16  O   UNL     1      -8.090   2.041   2.665  0.00  0.00    -0.435 OA
ENDBRANCH   1  15
BRANCH   6  17
ATOM     17  O   UNL     1      -8.368  -1.159   0.010  0.00  0.00    -0.506 OA
ATOM     18  H   UNL     1      -9.025  -0.819  -0.613  0.00  0.00    +0.292 HD
ENDBRANCH   6  17
BRANCH   3  19
ATOM     19  N   UNL     1      -3.634   1.655   0.028  0.00  0.00    -0.255 NA
ATOM     20  C   UNL     1      -2.499   1.013   0.019  0.00  0.00    +0.123 C 
BRANCH  20  21
ATOM     21  C   UNL     1      -1.232   1.760   0.018  0.00  0.00    +0.034 A 
ATOM     22  C   UNL     1      -0.013   1.076   0.008  0.00  0.00    +0.013 A 
ATOM     23  C   UNL     1       1.171   1.782   0.001  0.00  0.00    +0.001 A 
ATOM     24  C   UNL     1       1.158   3.167   0.008  0.00  0.00    +0.004 A 
ATOM     25  C   UNL     1      -0.040   3.856   0.023  0.00  0.00    +0.046 A 
ATOM     26  C   UNL     1      -1.240   3.163   0.031  0.00  0.00    +0.125 A 
BRANCH  26  27
ATOM     27  O   UNL     1      -2.417   3.838   0.047  0.00  0.00    -0.506 OA
ATOM     28  H   UNL     1      -2.767   4.039  -0.832  0.00  0.00    +0.292 HD
ENDBRANCH  26  27
ENDBRANCH  20  21
ENDBRANCH   3  19
TORSDOF 5
