REMARK  Name = ZINC39710906
REMARK  9 active torsions:
REMARK  status: ('A' for Active; 'I' for Inactive)
REMARK    1  A    between atoms: C_1  and  C_2
REMARK    2  A    between atoms: C_8  and  C_14
REMARK    3  A    between atoms: C_14  and  C_16
REMARK    4  A    between atoms: C_14  and  N_28
REMARK    5  A    between atoms: N_21  and  C_22
REMARK    6  A    between atoms: N_28  and  C_29
REMARK    7  A    between atoms: N_28  and  C_36
REMARK    8  A    between atoms: C_29  and  C_30
REMARK    9  A    between atoms: C_36  and  C_37
REMARK                            x       y       z     vdW  Elec       q    Type
REMARK                         _______ _______ _______ _____ _____    ______ ____
ROOT
ATOM      1  C   UNL     1      -1.104  -2.493   4.209  0.00  0.00    -0.009 C 
ENDROOT
BRANCH   1   9
ATOM      2  C   UNL     1       4.433  -1.904   6.792  0.00  0.00    +0.045 C 
ATOM      3  C   UNL     1       3.549  -0.907   6.087  0.00  0.00    -0.029 A 
ATOM      4  C   UNL     1       3.797   0.423   6.217  0.00  0.00    +0.005 A 
ATOM      5  C   UNL     1       3.019   1.398   5.592  0.00  0.00    +0.001 A 
ATOM      6  C   UNL     1       1.959   1.064   4.811  0.00  0.00    +0.009 A 
ATOM      7  C   UNL     1       1.636  -0.352   4.628  0.00  0.00    -0.007 A 
ATOM      8  C   UNL     1       0.581  -0.734   3.854  0.00  0.00    -0.006 C 
ATOM      9  C   UNL     1       0.320  -2.221   3.721  0.00  0.00    +0.088 C 
ATOM     10  C   UNL     1       1.249  -3.159   4.458  0.00  0.00    +0.223 C 
ATOM     11  O   UNL     1       1.085  -4.362   4.386  0.00  0.00    -0.275 OA
ATOM     12  N   UNL     1       2.241  -2.666   5.181  0.00  0.00    -0.284 N 
ATOM     13  C   UNL     1       2.478  -1.360   5.296  0.00  0.00    +0.043 A 
ATOM     14  H   UNL     1       2.825  -3.285   5.646  0.00  0.00    +0.155 HD
ENDBRANCH   1   9
BRANCH   1  15
ATOM     15  C   UNL     1      -2.106  -1.915   3.208  0.00  0.00    +0.205 C 
ATOM     16  N   UNL     1      -3.479  -2.072   3.707  0.00  0.00    -0.152 NA
ATOM     17  N   UNL     1      -4.112  -2.776   2.918  0.00  0.00    -0.070 NA
ATOM     18  N   UNL     1      -3.348  -3.192   1.828  0.00  0.00    -0.179 N 
ATOM     19  N   UNL     1      -2.078  -2.685   1.946  0.00  0.00    -0.185 NA
ATOM     20  H   UNL     1      -3.664  -3.751   1.101  0.00  0.00    +0.191 HD
BRANCH  19  21
ATOM     21  C   UNL     1      -1.083  -3.765   2.011  0.00  0.00    +0.080 C 
ATOM     22  C   UNL     1      -0.048  -3.572   0.902  0.00  0.00    +0.021 C 
ATOM     23  C   UNL     1       0.988  -4.696   0.969  0.00  0.00    +0.002 C 
ATOM     24  C   UNL     1       0.289  -6.045   0.786  0.00  0.00    +0.000 C 
ATOM     25  C   UNL     1      -0.747  -6.238   1.895  0.00  0.00    +0.002 C 
ATOM     26  C   UNL     1      -1.782  -5.113   1.828  0.00  0.00    +0.021 C 
ENDBRANCH  19  21
ENDBRANCH   1  15
BRANCH   1  27
ATOM     27  N   UNL     1      -1.302  -1.860   5.520  0.00  0.00    +0.390 N 
ATOM     28  H   UNL     1      -1.295  -0.857   5.413  0.00  0.00    -0.080 HD
BRANCH  27  29
ATOM     29  C   UNL     1      -0.218  -2.263   6.427  0.00  0.00    -0.042 C 
BRANCH  29  30
ATOM     30  C   UNL     1      -0.377  -1.553   7.746  0.00  0.00    -0.064 A 
ATOM     31  C   UNL     1      -0.087  -0.205   7.845  0.00  0.00    +0.002 A 
ATOM     32  C   UNL     1      -0.232   0.447   9.055  0.00  0.00    +0.000 A 
ATOM     33  C   UNL     1      -0.668  -0.249  10.167  0.00  0.00    +0.000 A 
ATOM     34  C   UNL     1      -0.960  -1.597  10.068  0.00  0.00    +0.000 A 
ATOM     35  C   UNL     1      -0.818  -2.248   8.857  0.00  0.00    +0.002 A 
ENDBRANCH  29  30
ENDBRANCH  27  29
BRANCH  27  36
ATOM     36  C   UNL     1      -2.592  -2.284   6.080  0.00  0.00    -0.040 C 
BRANCH  36  37
ATOM     37  C   UNL     1      -2.639  -3.788   6.150  0.00  0.00    -0.046 A 
ATOM     38  C   UNL     1      -2.846  -4.539   5.003  0.00  0.00    +0.005 A 
ATOM     39  C   UNL     1      -2.882  -5.920   5.115  0.00  0.00    +0.020 A 
ATOM     40  C   UNL     1      -2.711  -6.499   6.358  0.00  0.00    +0.111 A 
ATOM     41  N   UNL     1      -2.516  -5.754   7.428  0.00  0.00    -0.263 NA
ATOM     42  C   UNL     1      -2.470  -4.438   7.358  0.00  0.00    +0.112 A 
ENDBRANCH  36  37
ENDBRANCH  27  36
ENDBRANCH   1  27
TORSDOF 8
