REMARK  Name = ZINC19212923
REMARK  7 active torsions:
REMARK  status: ('A' for Active; 'I' for Inactive)
REMARK    1  A    between atoms: C_1  and  C_2
REMARK    2  A    between atoms: C_5  and  C_8
REMARK    3  A    between atoms: C_14  and  C_18
REMARK    4  A    between atoms: C_18  and  C_20
REMARK    5  A    between atoms: C_18  and  C_21
REMARK    6  A    between atoms: C_21  and  N_22
REMARK    7  A    between atoms: C_23  and  C_27
REMARK                            x       y       z     vdW  Elec       q    Type
REMARK                         _______ _______ _______ _____ _____    ______ ____
ROOT
ATOM      1  C   UNL     1       0.060  -4.255  -0.021  0.00  0.00    +0.044 A 
ATOM      2  C   UNL     1      -0.797  -5.096  -0.754  0.00  0.00    +0.145 A 
ATOM      3  N   UNL     1      -0.474  -6.338  -0.505  0.00  0.00    -0.170 NA
ATOM      4  N   UNL     1       0.599  -6.359   0.394  0.00  0.00    -0.180 N 
ATOM      5  C   UNL     1       0.928  -5.069   0.686  0.00  0.00    +0.146 A 
ATOM      6  N   UNL     1       1.964  -4.793   1.552  0.00  0.00    -0.342 N 
ATOM      7  C   UNL     1       2.670  -5.810   2.122  0.00  0.00    +0.027 A 
ATOM      8  C   UNL     1       2.353  -7.093   1.836  0.00  0.00    +0.093 A 
ATOM      9  C   UNL     1       1.288  -7.373   0.955  0.00  0.00    +0.275 A 
ATOM     10  O   UNL     1       0.999  -8.527   0.694  0.00  0.00    -0.266 OA
ATOM     11  H   UNL     1       2.192  -3.872   1.757  0.00  0.00    +0.167 HD
ENDROOT
BRANCH   1  16
ATOM     12  C   UNL     1      -0.018   1.503   0.010  0.00  0.00    +0.044 C 
ATOM     13  C   UNL     1       0.002  -0.004   0.002  0.00  0.00    -0.050 A 
ATOM     14  C   UNL     1       0.006  -0.686  -1.201  0.00  0.00    +0.004 A 
ATOM     15  C   UNL     1       0.024  -2.066  -1.215  0.00  0.00    +0.009 A 
ATOM     16  C   UNL     1       0.040  -2.772  -0.013  0.00  0.00    -0.013 A 
ATOM     17  C   UNL     1       0.037  -2.079   1.196  0.00  0.00    +0.009 A 
ATOM     18  C   UNL     1       0.023  -0.699   1.198  0.00  0.00    +0.004 A 
ENDBRANCH   1  16
BRANCH   7  19
ATOM     19  C   UNL     1       3.803  -5.505   3.067  0.00  0.00    +0.054 C 
ATOM     20  C   UNL     1       3.270  -4.712   4.263  0.00  0.00    +0.016 C 
BRANCH  19  21
ATOM     21  C   UNL     1       4.867  -4.680   2.341  0.00  0.00    +0.153 C 
BRANCH  21  22
ATOM     22  N   UNL     1       6.021  -4.485   3.222  0.00  0.00    -0.268 N 
ATOM     23  C   UNL     1       6.195  -3.466   4.088  0.00  0.00    +0.036 A 
ATOM     24  C   UNL     1       7.382  -3.651   4.710  0.00  0.00    +0.044 A 
ATOM     25  C   UNL     1       7.953  -4.824   4.206  0.00  0.00    +0.134 A 
ATOM     26  N   UNL     1       7.135  -5.328   3.318  0.00  0.00    -0.179 NA
ATOM     27  C   UNL     1       5.238  -2.325   4.322  0.00  0.00    +0.065 C 
ENDBRANCH  21  22
ENDBRANCH  19  21
ENDBRANCH   7  19
TORSDOF 4
