REMARK  Name = ZINC37820387
REMARK  5 active torsions:
REMARK  status: ('A' for Active; 'I' for Inactive)
REMARK    1  A    between atoms: C_3  and  C_16
REMARK    2  A    between atoms: C_8  and  C_10
REMARK    3  A    between atoms: C_16  and  N_17
REMARK    4  A    between atoms: N_17  and  S_18
REMARK    5  A    between atoms: S_18  and  N_21
REMARK                            x       y       z     vdW  Elec       q    Type
REMARK                         _______ _______ _______ _____ _____    ______ ____
ROOT
ATOM      1  C   UNL     1      -0.019   1.528   0.010  0.00  0.00    +0.019 C 
ATOM      2  C   UNL     1       1.419   2.053  -0.001  0.00  0.00    +0.008 C 
ATOM      3  C   UNL     1       2.124   1.587  -1.276  0.00  0.00    +0.022 C 
ATOM      4  C   UNL     1       2.170   0.056  -1.299  0.00  0.00    +0.112 C 
ATOM      5  N   UNL     1       0.803  -0.460  -1.143  0.00  0.00    -0.302 N 
ATOM      6  C   UNL     1       0.002  -0.004   0.002  0.00  0.00    +0.108 C 
ATOM      7  C   UNL     1       0.293  -1.334  -2.033  0.00  0.00    +0.202 C 
ATOM      8  O   UNL     1       0.964  -1.702  -2.973  0.00  0.00    -0.277 OA
ENDROOT
BRANCH   7   9
ATOM      9  C   UNL     1      -1.111  -1.854  -1.859  0.00  0.00    +0.027 C 
ATOM     10  C   UNL     1      -1.210  -2.551  -0.480  0.00  0.00    +0.060 C 
ATOM     11  S   UNL     1      -2.316  -3.967  -0.913  0.00  0.00    -0.181 S 
ATOM     12  C   UNL     1      -1.779  -4.119  -2.674  0.00  0.00    -0.011 C 
ATOM     13  N   UNL     1      -1.428  -2.717  -2.990  0.00  0.00    +0.393 N 
ATOM     14  H   UNL     1      -2.204  -2.307  -3.488  0.00  0.00    -0.084 HD
ATOM     15  H   UNL     1      -0.632  -2.726  -3.609  0.00  0.00    -0.084 HD
ENDBRANCH   7   9
BRANCH   3  16
ATOM     16  C   UNL     1       3.550   2.141  -1.302  0.00  0.00    +0.112 C 
BRANCH  16  17
ATOM     17  N   UNL     1       3.505   3.602  -1.397  0.00  0.00    -0.180 NA
ATOM     18  H   UNL     1       2.680   4.046  -1.649  0.00  0.00    +0.149 HD
BRANCH  17  19
ATOM     19  S   UNL     1       4.861   4.495  -1.073  0.00  0.00    +0.092 S 
ATOM     20  O   UNL     1       4.509   5.857  -1.275  0.00  0.00    -0.142 OA
ATOM     21  O   UNL     1       5.378   4.018   0.161  0.00  0.00    -0.142 OA
BRANCH  19  22
ATOM     22  N   UNL     1       5.983   4.120  -2.232  0.00  0.00    -0.193 NA
ATOM     23  H   UNL     1       5.767   3.477  -2.926  0.00  0.00    +0.145 HD
ATOM     24  H   UNL     1       6.856   4.543  -2.218  0.00  0.00    +0.145 HD
ENDBRANCH  19  22
ENDBRANCH  17  19
ENDBRANCH  16  17
ENDBRANCH   3  16
TORSDOF 5
