REMARK  Name = ZINC35908222
REMARK  11 active torsions:
REMARK  status: ('A' for Active; 'I' for Inactive)
REMARK    1  A    between atoms: C_1  and  C_2
REMARK    2  A    between atoms: C_2  and  C_3
REMARK    3  A    between atoms: C_12  and  C_13
REMARK    4  A    between atoms: C_13  and  C_15
REMARK    5  A    between atoms: C_13  and  C_30
REMARK    6  A    between atoms: C_15  and  C_16
REMARK    7  A    between atoms: N_18  and  C_19
REMARK    8  A    between atoms: N_18  and  C_23
REMARK    9  A    between atoms: C_19  and  C_20
REMARK   10  A    between atoms: C_20  and  C_21
REMARK   11  A    between atoms: C_23  and  C_24
REMARK                            x       y       z     vdW  Elec       q    Type
REMARK                         _______ _______ _______ _____ _____    ______ ____
ROOT
ATOM      1  C   UNL     1      -5.233  -1.635  -3.040  0.00  0.00    +0.063 C 
ENDROOT
BRANCH   1  11
ATOM      2  C   UNL     1      -1.412  -0.526   0.013  0.00  0.00    -0.024 A 
ATOM      3  C   UNL     1      -2.015  -0.863   1.205  0.00  0.00    +0.005 A 
ATOM      4  C   UNL     1      -3.316  -1.345   1.228  0.00  0.00    +0.001 A 
ATOM      5  C   UNL     1      -4.023  -1.492   0.067  0.00  0.00    +0.010 A 
ATOM      6  C   UNL     1      -3.432  -1.155  -1.151  0.00  0.00    +0.004 A 
ATOM      7  C   UNL     1      -2.114  -0.662  -1.180  0.00  0.00    +0.050 A 
ATOM      8  N   UNL     1      -1.802  -0.414  -2.498  0.00  0.00    -0.360 N 
ATOM      9  H   UNL     1      -0.952  -0.069  -2.814  0.00  0.00    +0.165 HD
ATOM     10  C   UNL     1      -2.869  -0.725  -3.295  0.00  0.00    +0.088 A 
ATOM     11  C   UNL     1      -3.883  -1.186  -2.545  0.00  0.00    -0.014 A 
BRANCH   2  13
ATOM     12  C   UNL     1      -0.019   1.526   0.010  0.00  0.00    +0.009 C 
ATOM     13  C   UNL     1       0.002  -0.004   0.002  0.00  0.00    +0.034 C 
ENDBRANCH   2  13
ENDBRANCH   1  11
BRANCH   1  14
ATOM     14  C   UNL     1      -5.908  -0.496  -3.761  0.00  0.00    +0.006 A 
ATOM     15  C   UNL     1      -5.315   0.062  -4.879  0.00  0.00    +0.008 A 
ATOM     16  C   UNL     1      -5.931   1.106  -5.543  0.00  0.00    +0.004 A 
ATOM     17  C   UNL     1      -7.143   1.597  -5.092  0.00  0.00    +0.049 A 
ATOM     18  C   UNL     1      -7.742   1.043  -3.973  0.00  0.00    +0.167 A 
ATOM     19  C   UNL     1      -7.124  -0.013  -3.307  0.00  0.00    +0.170 A 
ATOM     20  O   UNL     1      -7.907  -0.382  -2.252  0.00  0.00    -0.452 OA
ATOM     21  C   UNL     1      -8.811   0.719  -2.041  0.00  0.00    +0.466 C 
ATOM     22  O   UNL     1      -8.911   1.337  -3.333  0.00  0.00    -0.453 OA
ENDBRANCH   1  14
BRANCH   1  23
ATOM     23  C   UNL     1      -5.058  -2.814  -4.000  0.00  0.00    +0.109 C 
BRANCH  23  24
ATOM     24  C   UNL     1      -6.412  -3.341  -4.399  0.00  0.00    +0.217 C 
ATOM     25  O   UNL     1      -7.418  -2.825  -3.960  0.00  0.00    -0.276 OA
ATOM     26  N   UNL     1      -6.506  -4.386  -5.245  0.00  0.00    -0.296 N 
BRANCH  26  27
ATOM     27  C   UNL     1      -5.291  -5.010  -5.776  0.00  0.00    +0.123 C 
BRANCH  27  28
ATOM     28  C   UNL     1      -4.845  -6.135  -4.840  0.00  0.00    +0.137 C 
BRANCH  28  29
ATOM     29  C   UNL     1      -3.624  -6.762  -5.373  0.00  0.00    +0.064 C 
ATOM     30  N   UNL     1      -2.682  -7.245  -5.785  0.00  0.00    -0.197 NA
ENDBRANCH  28  29
ENDBRANCH  27  28
ENDBRANCH  26  27
BRANCH  26  31
ATOM     31  C   UNL     1      -7.822  -4.899  -5.633  0.00  0.00    +0.144 C 
BRANCH  31  32
ATOM     32  C   UNL     1      -8.296  -4.181  -6.870  0.00  0.00    -0.012 A 
ATOM     33  C   UNL     1      -9.037  -3.013  -6.763  0.00  0.00    +0.008 A 
ATOM     34  C   UNL     1      -9.452  -2.386  -7.928  0.00  0.00    +0.020 A 
ATOM     35  C   UNL     1      -9.116  -2.941  -9.148  0.00  0.00    +0.111 A 
ATOM     36  N   UNL     1      -8.410  -4.053  -9.212  0.00  0.00    -0.263 NA
ATOM     37  C   UNL     1      -7.993  -4.673  -8.125  0.00  0.00    +0.115 A 
ENDBRANCH  31  32
ENDBRANCH  26  31
ENDBRANCH  23  24
ENDBRANCH   1  23
TORSDOF 10
