REMARK  Name = ZINC20532177
REMARK  10 active torsions:
REMARK  status: ('A' for Active; 'I' for Inactive)
REMARK    1  A    between atoms: C_1  and  C_2
REMARK    2  A    between atoms: C_2  and  C_3
REMARK    3  A    between atoms: C_2  and  C_4
REMARK    4  A    between atoms: C_4  and  C_5
REMARK    5  A    between atoms: C_5  and  C_6
REMARK    6  A    between atoms: C_6  and  C_8
REMARK    7  A    between atoms: C_6  and  N_23
REMARK    8  A    between atoms: C_12  and  N_13
REMARK    9  A    between atoms: N_19  and  C_22
REMARK   10  A    between atoms: N_26  and  C_27
REMARK                            x       y       z     vdW  Elec       q    Type
REMARK                         _______ _______ _______ _____ _____    ______ ____
ROOT
ATOM      1  C   UNL     1       4.833  -3.964  -0.041  0.00  0.00    +0.108 C 
ENDROOT
BRANCH   1   2
ATOM      2  C   UNL     1       6.189  -4.569  -0.294  0.00  0.00    +0.007 A 
ATOM      3  C   UNL     1       7.340  -3.903   0.119  0.00  0.00    -0.034 A 
ATOM      4  C   UNL     1       8.529  -4.512  -0.146  0.00  0.00    -0.021 A 
ATOM      5  S   UNL     1       8.064  -6.011  -0.966  0.00  0.00    -0.077 S 
ATOM      6  C   UNL     1       6.294  -5.771  -0.922  0.00  0.00    +0.090 A 
ATOM      7  C   UNL     1       9.892  -4.002   0.190  0.00  0.00    -0.036 C 
ATOM      8  N   UNL     1       9.775  -2.574   0.544  0.00  0.00    +0.381 N 
ATOM      9  C   UNL     1       8.692  -2.368   1.516  0.00  0.00    -0.074 C 
ATOM     10  C   UNL     1       7.332  -2.557   0.840  0.00  0.00    +0.018 C 
ATOM     11  C   UNL     1      11.049  -2.053   1.057  0.00  0.00    -0.096 C 
ATOM     12  H   UNL     1       9.527  -2.010  -0.367  0.00  0.00    -0.082 HD
BRANCH   6  13
ATOM     13  N   UNL     1       5.279  -6.603  -1.409  0.00  0.00    -0.317 N 
ATOM     14  C   UNL     1       5.250  -7.184  -2.644  0.00  0.00    +0.092 A 
ATOM     15  C   UNL     1       4.118  -7.912  -2.741  0.00  0.00    +0.019 A 
ATOM     16  C   UNL     1       3.418  -7.768  -1.527  0.00  0.00    +0.019 A 
ATOM     17  C   UNL     1       4.150  -6.962  -0.731  0.00  0.00    +0.092 A 
ENDBRANCH   6  13
ENDBRANCH   1   2
BRANCH   1  18
ATOM     18  N   UNL     1       4.851  -2.549  -0.421  0.00  0.00    -0.292 N 
ATOM     19  C   UNL     1       3.760  -1.986  -0.977  0.00  0.00    +0.304 C 
ATOM     20  O   UNL     1       2.760  -2.653  -1.164  0.00  0.00    -0.252 OA
ATOM     21  N   UNL     1       3.777  -0.685  -1.327  0.00  0.00    -0.269 N 
ATOM     22  H   UNL     1       5.756  -1.946  -0.253  0.00  0.00    +0.151 HD
ATOM     23  H   UNL     1       4.704  -0.101  -1.230  0.00  0.00    +0.156 HD
BRANCH  21  24
ATOM     24  C   UNL     1       2.612  -0.075  -1.812  0.00  0.00    +0.038 A 
ATOM     25  C   UNL     1       2.339   1.250  -1.497  0.00  0.00    +0.027 A 
ATOM     26  C   UNL     1       1.190   1.851  -1.974  0.00  0.00    +0.051 A 
ATOM     27  C   UNL     1       0.308   1.135  -2.769  0.00  0.00    +0.162 A 
ATOM     28  C   UNL     1       0.580  -0.190  -3.089  0.00  0.00    +0.164 A 
ATOM     29  C   UNL     1       1.732  -0.793  -2.609  0.00  0.00    +0.072 A 
ATOM     30  O   UNL     1      -0.269  -0.906  -3.875  0.00  0.00    -0.485 OA
ATOM     31  C   UNL     1      -1.595  -0.387  -4.030  0.00  0.00    +0.270 C 
ATOM     32  C   UNL     1      -1.492   1.115  -4.325  0.00  0.00    +0.270 C 
ATOM     33  O   UNL     1      -0.823   1.742  -3.224  0.00  0.00    -0.485 OA
ENDBRANCH  21  24
ENDBRANCH   1  18
BRANCH   1  34
ATOM     34  C   UNL     1       4.487  -4.089   1.444  0.00  0.00    +0.027 C 
BRANCH  34  35
ATOM     35  C   UNL     1       3.061  -3.588   1.680  0.00  0.00    +0.005 C 
BRANCH  35  37
ATOM     36  C   UNL     1       1.338  -3.098   3.422  0.00  0.00    +0.007 C 
ATOM     37  C   UNL     1       2.716  -3.713   3.165  0.00  0.00    -0.017 C 
ATOM     38  C   UNL     1       2.697  -5.191   3.561  0.00  0.00    +0.007 C 
ENDBRANCH  35  37
ENDBRANCH  34  35
ENDBRANCH   1  34
TORSDOF 7
