REMARK  Name = ZINC09204614
REMARK  11 active torsions:
REMARK  status: ('A' for Active; 'I' for Inactive)
REMARK    1  A    between atoms: C_1  and  O_2
REMARK    2  A    between atoms: O_2  and  C_3
REMARK    3  A    between atoms: C_5  and  C_16
REMARK    4  A    between atoms: C_8  and  O_9
REMARK    5  A    between atoms: O_9  and  C_10
REMARK    6  A    between atoms: C_10  and  C_11
REMARK    7  A    between atoms: C_11  and  O_13
REMARK    8  A    between atoms: O_13  and  C_14
REMARK    9  A    between atoms: N_17  and  N_18
REMARK   10  A    between atoms: C_19  and  C_21
REMARK   11  A    between atoms: C_21  and  C_22
REMARK                            x       y       z     vdW  Elec       q    Type
REMARK                         _______ _______ _______ _____ _____    ______ ____
ROOT
ATOM      1  C   UNL     1      -1.447   2.061  -8.350  0.00  0.00    +0.163 A 
ATOM      2  C   UNL     1      -0.771   1.605  -7.233  0.00  0.00    +0.059 A 
ATOM      3  C   UNL     1      -1.243   1.924  -5.957  0.00  0.00    -0.001 A 
ATOM      4  C   UNL     1      -2.388   2.711  -5.816  0.00  0.00    +0.028 A 
ATOM      5  C   UNL     1      -3.054   3.167  -6.935  0.00  0.00    +0.064 A 
ATOM      6  C   UNL     1      -2.588   2.845  -8.202  0.00  0.00    +0.177 A 
ATOM      7 BR   UNL     1      -4.605   4.231  -6.742  0.00  0.00    -0.046 Br
ENDROOT
BRANCH   1   9
ATOM      8  C   UNL     1       0.182   0.940  -9.671  0.00  0.00    +0.277 C 
ATOM      9  O   UNL     1      -0.994   1.748  -9.593  0.00  0.00    -0.491 OA
ENDBRANCH   1   9
BRANCH   3  10
ATOM     10  C   UNL     1      -0.530   1.435  -4.763  0.00  0.00    +0.138 C 
ATOM     11  N   UNL     1      -0.966   1.736  -3.578  0.00  0.00    -0.188 NA
BRANCH  11  12
ATOM     12  N   UNL     1      -0.288   1.272  -2.443  0.00  0.00    -0.207 N 
ATOM     13  C   UNL     1      -0.742   1.585  -1.213  0.00  0.00    +0.237 C 
ATOM     14  O   UNL     1      -1.736   2.268  -1.088  0.00  0.00    -0.274 OA
ATOM     15  H   UNL     1       0.507   0.726  -2.543  0.00  0.00    +0.177 HD
BRANCH  13  16
ATOM     16  C   UNL     1      -0.013   1.086   0.008  0.00  0.00    +0.132 C 
BRANCH  16  17
ATOM     17  C   UNL     1      -0.718   1.572   1.248  0.00  0.00    -0.039 A 
ATOM     18  C   UNL     1      -0.360   2.779   1.819  0.00  0.00    +0.005 A 
ATOM     19  C   UNL     1      -1.010   3.227   2.953  0.00  0.00    +0.015 A 
ATOM     20  C   UNL     1      -2.012   2.463   3.523  0.00  0.00    +0.018 A 
ATOM     21  C   UNL     1      -2.366   1.253   2.955  0.00  0.00    +0.015 A 
ATOM     22  C   UNL     1      -1.719   0.808   1.818  0.00  0.00    +0.005 A 
ATOM     23 BR   UNL     1      -2.897   3.073   5.079  0.00  0.00    -0.050 Br
ENDBRANCH  16  17
ENDBRANCH  13  16
ENDBRANCH  11  12
ENDBRANCH   3  10
BRANCH   6  24
ATOM     24  O   UNL     1      -3.248   3.296  -9.302  0.00  0.00    -0.476 OA
BRANCH  24  25
ATOM     25  C   UNL     1      -2.842   4.561  -9.828  0.00  0.00    +0.349 C 
BRANCH  25  26
ATOM     26  C   UNL     1      -3.679   4.895 -11.037  0.00  0.00    +0.345 C 
ATOM     27  O   UNL     1      -4.535   4.127 -11.409  0.00  0.00    -0.247 OA
BRANCH  26  28
ATOM     28  O   UNL     1      -3.473   6.044 -11.699  0.00  0.00    -0.466 OA
ATOM     29  C   UNL     1      -4.316   6.299 -12.854  0.00  0.00    +0.280 C 
ENDBRANCH  26  28
ENDBRANCH  25  26
ENDBRANCH  24  25
ENDBRANCH   6  24
TORSDOF 9
