REMARK  Name = ZINC11228772
REMARK  9 active torsions:
REMARK  status: ('A' for Active; 'I' for Inactive)
REMARK    1  A    between atoms: C_6  and  N_7
REMARK    2  A    between atoms: C_8  and  C_29
REMARK    3  A    between atoms: C_11  and  S_12
REMARK    4  A    between atoms: S_12  and  C_13
REMARK    5  A    between atoms: C_13  and  C_14
REMARK    6  A    between atoms: C_14  and  C_16
REMARK    7  A    between atoms: C_17  and  N_28
REMARK    8  A    between atoms: N_18  and  C_25
REMARK    9  A    between atoms: C_29  and  N_61
REMARK                            x       y       z     vdW  Elec       q    Type
REMARK                         _______ _______ _______ _____ _____    ______ ____
ROOT
ATOM      1  N   UNL     1       9.936   0.682  -1.981  0.00  0.00    -0.276 N 
ATOM      2  C   UNL     1      10.791   1.707  -1.677  0.00  0.00    +0.122 A 
ATOM      3  N   UNL     1      10.080   2.659  -1.142  0.00  0.00    -0.135 NA
ATOM      4  N   UNL     1       8.843   2.313  -1.091  0.00  0.00    -0.122 NA
ATOM      5  C   UNL     1       8.697   1.106  -1.587  0.00  0.00    +0.196 A 
ENDROOT
BRANCH   1  11
ATOM      6  C   UNL     1      11.083  -1.445  -1.903  0.00  0.00    +0.029 A 
ATOM      7  C   UNL     1      11.400  -2.657  -2.486  0.00  0.00    +0.040 A 
ATOM      8  C   UNL     1      10.908  -2.972  -3.741  0.00  0.00    +0.124 A 
ATOM      9  C   UNL     1      10.094  -2.076  -4.413  0.00  0.00    +0.040 A 
ATOM     10  C   UNL     1       9.771  -0.866  -3.831  0.00  0.00    +0.029 A 
ATOM     11  C   UNL     1      10.263  -0.548  -2.573  0.00  0.00    +0.050 A 
ATOM     12  F   UNL     1      11.223  -4.156  -4.311  0.00  0.00    -0.205 F 
ENDBRANCH   1  11
BRANCH   5  13
ATOM     13  S   UNL     1       7.188   0.206  -1.726  0.00  0.00    -0.078 S 
BRANCH  13  14
ATOM     14  C   UNL     1       6.039   1.407  -1.009  0.00  0.00    +0.157 C 
BRANCH  14  15
ATOM     15  C   UNL     1       4.644   0.838  -1.023  0.00  0.00    +0.182 C 
ATOM     16  O   UNL     1       4.445  -0.273  -1.474  0.00  0.00    -0.291 OA
BRANCH  15  17
ATOM     17  C   UNL     1       3.568   1.594  -0.511  0.00  0.00    +0.120 A 
ATOM     18  C   UNL     1       2.277   1.045  -0.413  0.00  0.00    +0.116 A 
ATOM     19  N   UNL     1       1.268   1.817   0.089  0.00  0.00    -0.278 N 
ATOM     20  C   UNL     1       1.486   3.081   0.482  0.00  0.00    +0.331 A 
ATOM     21  O   UNL     1       0.553   3.728   0.917  0.00  0.00    -0.246 OA
ATOM     22  N   UNL     1       2.697   3.657   0.416  0.00  0.00    -0.274 N 
ATOM     23  H   UNL     1       2.813   4.600   0.728  0.00  0.00    +0.173 HD
ATOM     24  C   UNL     1       3.760   2.980  -0.065  0.00  0.00    +0.266 A 
ATOM     25  O   UNL     1       4.856   3.506  -0.126  0.00  0.00    -0.267 OA
BRANCH  19  26
ATOM     26  C   UNL     1      -0.081   1.254   0.195  0.00  0.00    +0.094 C 
ATOM     27  C   UNL     1      -1.242   2.101  -0.328  0.00  0.00    +0.027 C 
ATOM     28  C   UNL     1      -0.787   0.862  -1.104  0.00  0.00    +0.027 C 
ENDBRANCH  19  26
BRANCH  18  29
ATOM     29  N   UNL     1       2.038  -0.234  -0.811  0.00  0.00    -0.344 N 
ATOM     30  H   UNL     1       1.128  -0.569  -0.844  0.00  0.00    +0.144 HD
ATOM     31  H   UNL     1       2.776  -0.810  -1.061  0.00  0.00    +0.144 HD
ENDBRANCH  18  29
ENDBRANCH  15  17
ENDBRANCH  14  15
ENDBRANCH  13  14
ENDBRANCH   5  13
BRANCH   2  32
ATOM     32  C   UNL     1      12.278   1.731  -1.918  0.00  0.00    -0.001 C 
BRANCH  32  38
ATOM     33  C   UNL     1      12.034   1.403  -4.304  0.00  0.00    -0.078 C 
ATOM     34  C   UNL     1      12.204   2.079  -5.667  0.00  0.00    -0.019 C 
ATOM     35  C   UNL     1      13.687   2.374  -5.904  0.00  0.00    -0.004 C 
ATOM     36  C   UNL     1      14.212   3.256  -4.767  0.00  0.00    -0.019 C 
ATOM     37  C   UNL     1      13.984   2.546  -3.431  0.00  0.00    -0.078 C 
ATOM     38  N   UNL     1      12.535   2.313  -3.252  0.00  0.00    +0.384 N 
ATOM     39  H   UNL     1      12.042   3.210  -3.325  0.00  0.00    -0.081 HD
ENDBRANCH  32  38
ENDBRANCH   2  32
TORSDOF 9
