REMARK  Name = ZINC32049954
REMARK  12 active torsions:
REMARK  status: ('A' for Active; 'I' for Inactive)
REMARK    1  A    between atoms: C_1  and  C_2
REMARK    2  A    between atoms: C_2  and  C_34
REMARK    3  A    between atoms: C_8  and  O_11
REMARK    4  A    between atoms: O_11  and  C_12
REMARK    5  A    between atoms: C_12  and  C_13
REMARK    6  A    between atoms: C_13  and  N_14
REMARK    7  A    between atoms: C_15  and  C_17
REMARK    8  A    between atoms: C_20  and  O_32
REMARK    9  A    between atoms: C_21  and  S_23
REMARK   10  A    between atoms: S_23  and  N_26
REMARK   11  A    between atoms: N_26  and  C_27
REMARK   12  A    between atoms: O_32  and  C_33
REMARK                            x       y       z     vdW  Elec       q    Type
REMARK                         _______ _______ _______ _____ _____    ______ ____
ROOT
ATOM      1  N   UNL     1      -0.601   7.926   0.929  0.00  0.00    -0.308 N 
ATOM      2  C   UNL     1      -1.115   7.093   1.855  0.00  0.00    +0.244 C 
ATOM      3  O   UNL     1      -1.673   7.545   2.836  0.00  0.00    -0.270 OA
ATOM      4  H   UNL     1      -0.096   7.518   0.041  0.00  0.00    +0.149 HD
ENDROOT
BRANCH   2   5
ATOM      5  C   UNL     1      -1.002   5.632   1.678  0.00  0.00    +0.039 A 
ATOM      6  C   UNL     1      -0.360   5.111   0.551  0.00  0.00    +0.017 A 
ATOM      7  C   UNL     1      -0.251   3.748   0.392  0.00  0.00    +0.048 A 
ATOM      8  C   UNL     1      -0.787   2.890   1.346  0.00  0.00    +0.146 A 
ATOM      9  C   UNL     1      -1.426   3.404   2.468  0.00  0.00    +0.147 A 
ATOM     10  C   UNL     1      -1.535   4.767   2.636  0.00  0.00    +0.045 A 
BRANCH   9  11
ATOM     11  S   UNL     1      -2.098   2.312   3.676  0.00  0.00    +0.062 S 
ATOM     12  O   UNL     1      -1.081   1.366   3.978  0.00  0.00    -0.153 OA
ATOM     13  O   UNL     1      -2.700   3.128   4.672  0.00  0.00    -0.153 OA
BRANCH  11  14
ATOM     14  N   UNL     1      -3.325   1.471   2.948  0.00  0.00    -0.187 NA
ATOM     15  H   UNL     1      -4.368   1.731   3.183  0.00  0.00    +0.148 HD
BRANCH  14  16
ATOM     16  C   UNL     1      -3.030   0.550   1.848  0.00  0.00    +0.077 C 
ATOM     17  C   UNL     1      -3.288   1.243   0.494  0.00  0.00    +0.020 C 
ATOM     18  C   UNL     1      -3.879   0.123  -0.399  0.00  0.00    +0.002 C 
ATOM     19  C   UNL     1      -4.774  -0.665   0.590  0.00  0.00    +0.002 C 
ATOM     20  C   UNL     1      -3.974  -0.663   1.909  0.00  0.00    +0.020 C 
ENDBRANCH  14  16
ENDBRANCH  11  14
ENDBRANCH   9  11
BRANCH   8  21
ATOM     21  O   UNL     1      -0.682   1.547   1.184  0.00  0.00    -0.493 OA
ATOM     22  C   UNL     1      -0.013   1.086   0.008  0.00  0.00    +0.277 C 
ENDBRANCH   8  21
ENDBRANCH   2   5
BRANCH   1  23
ATOM     23  C   UNL     1      -0.713   9.376   1.105  0.00  0.00    +0.145 C 
BRANCH  23  24
ATOM     24  C   UNL     1      -0.052  10.086  -0.078  0.00  0.00    +0.248 C 
BRANCH  24  25
ATOM     25  O   UNL     1      -0.776   9.793  -1.275  0.00  0.00    -0.487 OA
BRANCH  25  33
ATOM     26  C   UNL     1      -3.690  10.818  -4.963  0.00  0.00    +0.056 C 
ATOM     27  C   UNL     1      -2.639   9.722  -5.151  0.00  0.00    +0.109 C 
ATOM     28  C   UNL     1      -1.413  10.265  -5.923  0.00  0.00    +0.086 C 
ATOM     29  C   UNL     1      -0.495  10.691  -4.793  0.00  0.00    +0.002 A 
ATOM     30  C   UNL     1       0.624  11.495  -4.765  0.00  0.00    +0.007 A 
ATOM     31  C   UNL     1       1.278  11.732  -3.569  0.00  0.00    +0.004 A 
ATOM     32  C   UNL     1       0.804  11.161  -2.402  0.00  0.00    +0.049 A 
ATOM     33  C   UNL     1      -0.317  10.351  -2.427  0.00  0.00    +0.162 A 
ATOM     34  C   UNL     1      -0.975  10.100  -3.634  0.00  0.00    +0.166 A 
ATOM     35  O   UNL     1      -2.074   9.336  -3.887  0.00  0.00    -0.482 OA
ATOM     36  C   UNL     1      -3.240   8.511  -5.869  0.00  0.00    +0.056 C 
ENDBRANCH  25  33
ENDBRANCH  24  25
ENDBRANCH  23  24
ENDBRANCH   1  23
TORSDOF 9
