REMARK  Name = ZINC42785780
REMARK  6 active torsions:
REMARK  status: ('A' for Active; 'I' for Inactive)
REMARK    1  A    between atoms: C_2  and  C_3
REMARK    2  A    between atoms: C_3  and  N_4
REMARK    3  A    between atoms: N_4  and  C_5
REMARK    4  A    between atoms: C_5  and  N_7
REMARK    5  A    between atoms: N_7  and  N_8
REMARK    6  A    between atoms: C_9  and  C_11
REMARK                            x       y       z     vdW  Elec       q    Type
REMARK                         _______ _______ _______ _____ _____    ______ ____
ROOT
ATOM      1  N   UNL     1      -1.322  -3.403  -3.250  0.00  0.00    -0.229 N 
ATOM      2  C   UNL     1      -1.345  -4.253  -4.295  0.00  0.00    +0.295 C 
ATOM      3  O   UNL     1      -2.309  -4.974  -4.472  0.00  0.00    -0.265 OA
ATOM      4  H   UNL     1      -0.554  -2.828  -3.109  0.00  0.00    +0.173 HD
ENDROOT
BRANCH   2   5
ATOM      5  C   UNL     1      -0.206  -4.310  -5.222  0.00  0.00    +0.192 A 
ATOM      6  C   UNL     1      -0.121  -5.121  -6.308  0.00  0.00    +0.063 A 
ATOM      7  C   UNL     1       1.175  -4.839  -6.924  0.00  0.00    +0.022 A 
ATOM      8  C   UNL     1       1.847  -5.330  -8.046  0.00  0.00    +0.027 A 
ATOM      9  C   UNL     1       3.085  -4.843  -8.361  0.00  0.00    +0.019 A 
ATOM     10  C   UNL     1       3.678  -3.865  -7.572  0.00  0.00    +0.019 A 
ATOM     11  C   UNL     1       3.031  -3.369  -6.461  0.00  0.00    +0.048 A 
ATOM     12  C   UNL     1       1.771  -3.848  -6.122  0.00  0.00    +0.136 A 
ATOM     13  O   UNL     1       0.912  -3.560  -5.125  0.00  0.00    -0.450 OA
ATOM     14 BR   UNL     1       3.997  -5.506  -9.879  0.00  0.00    -0.050 Br
ENDBRANCH   2   5
BRANCH   1  15
ATOM     15  N   UNL     1      -2.409  -3.349  -2.367  0.00  0.00    -0.246 N 
ATOM     16  H   UNL     1      -3.177  -3.923  -2.508  0.00  0.00    +0.172 HD
BRANCH  15  17
ATOM     17  C   UNL     1      -2.386  -2.498  -1.322  0.00  0.00    +0.147 C 
ATOM     18  S   UNL     1      -3.713  -2.432  -0.243  0.00  0.00    -0.017 S 
BRANCH  17  19
ATOM     19  N   UNL     1      -1.318  -1.700  -1.126  0.00  0.00    -0.322 N 
ATOM     20  H   UNL     1      -0.566  -1.737  -1.737  0.00  0.00    +0.148 HD
BRANCH  19  21
ATOM     21  C   UNL     1      -1.293  -0.775   0.010  0.00  0.00    +0.130 C 
BRANCH  21  23
ATOM     22  C   UNL     1      -0.016   1.306   0.009  0.00  0.00    +0.005 C 
ATOM     23  C   UNL     1       0.002  -0.004   0.002  0.00  0.00    -0.016 C 
ENDBRANCH  21  23
ENDBRANCH  19  21
ENDBRANCH  17  19
ENDBRANCH  15  17
ENDBRANCH   1  15
TORSDOF 6
