REMARK  Name = ZINC64672757
REMARK  7 active torsions:
REMARK  status: ('A' for Active; 'I' for Inactive)
REMARK    1  A    between atoms: C_1  and  C_2
REMARK    2  A    between atoms: C_3  and  C_13
REMARK    3  A    between atoms: C_5  and  C_7
REMARK    4  A    between atoms: N_15  and  N_16
REMARK    5  A    between atoms: C_17  and  C_19
REMARK    6  A    between atoms: C_19  and  C_20
REMARK    7  A    between atoms: C_20  and  C_21
REMARK                            x       y       z     vdW  Elec       q    Type
REMARK                         _______ _______ _______ _____ _____    ______ ____
ROOT
ATOM      1  C   UNL     1      -0.008  -0.258  -2.570  0.00  0.00    +0.269 C 
ATOM      2  O   UNL     1      -0.026   0.936  -2.807  0.00  0.00    -0.268 OA
ATOM      3  N   UNL     1      -0.001  -1.145  -3.584  0.00  0.00    -0.230 N 
ATOM      4  H   UNL     1       0.014  -2.097  -3.396  0.00  0.00    +0.173 HD
ENDROOT
BRANCH   1   7
ATOM      5  C   UNL     1      -0.018   1.503   0.010  0.00  0.00    +0.067 C 
ATOM      6  C   UNL     1       0.002  -0.004   0.002  0.00  0.00    +0.058 A 
ATOM      7  C   UNL     1       0.006  -0.730  -1.183  0.00  0.00    +0.098 A 
ATOM      8  S   UNL     1       0.033  -2.398  -0.546  0.00  0.00    -0.062 S 
ATOM      9  C   UNL     1       0.036  -2.021   1.095  0.00  0.00    +0.109 A 
ATOM     10  N   UNL     1       0.022  -0.699   1.109  0.00  0.00    -0.243 NA
BRANCH   9  11
ATOM     11  C   UNL     1       0.054  -2.948   2.246  0.00  0.00    +0.007 A 
ATOM     12  C   UNL     1       0.048  -2.447   3.549  0.00  0.00    +0.010 A 
ATOM     13  C   UNL     1       0.064  -3.318   4.619  0.00  0.00    +0.001 A 
ATOM     14  C   UNL     1       0.088  -4.684   4.403  0.00  0.00    +0.000 A 
ATOM     15  C   UNL     1       0.094  -5.187   3.114  0.00  0.00    +0.001 A 
ATOM     16  C   UNL     1       0.072  -4.328   2.035  0.00  0.00    +0.010 A 
ENDBRANCH   9  11
ENDBRANCH   1   7
BRANCH   3  17
ATOM     17  N   UNL     1      -0.014  -0.694  -4.911  0.00  0.00    -0.234 N 
ATOM     18  C   UNL     1      -0.007  -1.581  -5.925  0.00  0.00    +0.229 C 
ATOM     19  O   UNL     1       0.011  -2.771  -5.689  0.00  0.00    -0.274 OA
ATOM     20  H   UNL     1      -0.029   0.258  -5.099  0.00  0.00    +0.173 HD
BRANCH  18  21
ATOM     21  C   UNL     1      -0.021  -1.096  -7.351  0.00  0.00    +0.102 C 
BRANCH  21  22
ATOM     22  C   UNL     1      -0.009  -2.297  -8.299  0.00  0.00    +0.042 C 
BRANCH  22  23
ATOM     23  C   UNL     1      -0.024  -1.811  -9.726  0.00  0.00    -0.041 C 
ATOM     24  C   UNL     1       1.046  -1.628 -10.533  0.00  0.00    -0.001 A 
ATOM     25  C   UNL     1       2.487  -1.818 -10.332  0.00  0.00    +0.010 A 
ATOM     26  C   UNL     1       3.333  -1.544 -11.351  0.00  0.00    +0.001 A 
ATOM     27  C   UNL     1       2.869  -1.083 -12.591  0.00  0.00    +0.002 A 
ATOM     28  C   UNL     1       1.559  -0.884 -12.851  0.00  0.00    +0.026 A 
ATOM     29  C   UNL     1       0.581  -1.141 -11.852  0.00  0.00    +0.043 A 
ATOM     30  N   UNL     1      -0.725  -1.028 -11.859  0.00  0.00    -0.380 N 
ATOM     31  C   UNL     1      -1.238  -1.436 -10.546  0.00  0.00    +0.144 C 
ATOM     32  H   UNL     1      -1.263  -0.728 -12.608  0.00  0.00    +0.160 HD
ENDBRANCH  22  23
ENDBRANCH  21  22
ENDBRANCH  18  21
ENDBRANCH   3  17
TORSDOF 6
