REMARK  Name = ZINC47309540
REMARK  11 active torsions:
REMARK  status: ('A' for Active; 'I' for Inactive)
REMARK    1  A    between atoms: C_1  and  C_2
REMARK    2  A    between atoms: C_2  and  C_3
REMARK    3  A    between atoms: C_3  and  C_4
REMARK    4  A    between atoms: C_4  and  C_5
REMARK    5  A    between atoms: C_12  and  N_28
REMARK    6  A    between atoms: C_13  and  C_26
REMARK    7  A    between atoms: C_14  and  C_16
REMARK    8  A    between atoms: C_21  and  O_22
REMARK    9  A    between atoms: O_22  and  C_23
REMARK   10  A    between atoms: C_23  and  C_24
REMARK   11  A    between atoms: C_23  and  C_25
REMARK                            x       y       z     vdW  Elec       q    Type
REMARK                         _______ _______ _______ _____ _____    ______ ____
ROOT
ATOM      1  C   UNL     1       1.398  -3.084  -2.088  0.00  0.00    +0.044 A 
ATOM      2  C   UNL     1       2.716  -2.933  -2.290  0.00  0.00    +0.049 A 
ATOM      3  C   UNL     1       3.008  -3.349  -3.608  0.00  0.00    +0.245 A 
ATOM      4  N   UNL     1       1.897  -3.734  -4.164  0.00  0.00    -0.135 NA
ATOM      5  N   UNL     1       0.863  -3.583  -3.226  0.00  0.00    -0.278 N 
ATOM      6  H   UNL     1      -0.072  -3.798  -3.370  0.00  0.00    +0.189 HD
ATOM      7  O   UNL     1       4.271  -3.310  -4.112  0.00  0.00    -0.421 OA
ATOM      8  C   UNL     1       5.195  -2.614  -3.421  0.00  0.00    +0.201 C 
ATOM      9  C   UNL     1       5.033  -2.175  -2.155  0.00  0.00    +0.098 C 
ATOM     10  C   UNL     1       3.780  -2.422  -1.353  0.00  0.00    +0.105 C 
ENDROOT
BRANCH  10  11
ATOM     11  C   UNL     1       4.055  -3.451  -0.286  0.00  0.00    +0.007 A 
ATOM     12  C   UNL     1       4.390  -4.743  -0.642  0.00  0.00    +0.008 A 
ATOM     13  C   UNL     1       4.642  -5.687   0.336  0.00  0.00    +0.001 A 
ATOM     14  C   UNL     1       4.559  -5.341   1.673  0.00  0.00    +0.004 A 
ATOM     15  C   UNL     1       4.224  -4.050   2.033  0.00  0.00    +0.046 A 
ATOM     16  C   UNL     1       3.976  -3.100   1.054  0.00  0.00    +0.125 A 
BRANCH  16  17
ATOM     17  O   UNL     1       3.652  -1.828   1.406  0.00  0.00    -0.489 OA
BRANCH  17  18
ATOM     18  C   UNL     1       3.568  -1.543   2.804  0.00  0.00    +0.167 C 
ATOM     19  C   UNL     1       4.967  -1.252   3.350  0.00  0.00    +0.051 C 
ATOM     20  C   UNL     1       2.671  -0.323   3.022  0.00  0.00    +0.051 C 
ENDBRANCH  17  18
ENDBRANCH  16  17
ENDBRANCH  10  11
BRANCH   8  21
ATOM     21  N   UNL     1       6.383  -2.331  -4.048  0.00  0.00    -0.328 N 
ATOM     22  H   UNL     1       6.534  -2.630  -4.958  0.00  0.00    +0.145 HD
ATOM     23  H   UNL     1       7.071  -1.832  -3.580  0.00  0.00    +0.145 HD
ENDBRANCH   8  21
BRANCH   9  24
ATOM     24  C   UNL     1       6.101  -1.442  -1.544  0.00  0.00    +0.101 C 
ATOM     25  N   UNL     1       6.948  -0.860  -1.060  0.00  0.00    -0.191 NA
ENDBRANCH   9  24
BRANCH   1  26
ATOM     26  C   UNL     1       0.650  -2.762  -0.820  0.00  0.00    +0.055 C 
BRANCH  26  27
ATOM     27  C   UNL     1       0.353  -1.262  -0.770  0.00  0.00    +0.006 C 
BRANCH  27  29
ATOM     28  C   UNL     1      -0.505   0.595   0.664  0.00  0.00    +0.004 C 
ATOM     29  C   UNL     1      -0.322  -0.920   0.560  0.00  0.00    -0.003 C 
ENDBRANCH  27  29
ENDBRANCH  26  27
ENDBRANCH   1  26
TORSDOF 8
