REMARK  Name = ZINC40233973
REMARK  9 active torsions:
REMARK  status: ('A' for Active; 'I' for Inactive)
REMARK    1  A    between atoms: C_1  and  C_2
REMARK    2  A    between atoms: C_5  and  S_8
REMARK    3  A    between atoms: S_8  and  O_11
REMARK    4  A    between atoms: O_11  and  C_12
REMARK    5  A    between atoms: C_14  and  O_35
REMARK    6  A    between atoms: C_16  and  N_25
REMARK    7  A    between atoms: N_25  and  C_26
REMARK    8  A    between atoms: C_26  and  C_28
REMARK    9  A    between atoms: C_26  and  C_29
REMARK                            x       y       z     vdW  Elec       q    Type
REMARK                         _______ _______ _______ _____ _____    ______ ____
ROOT
ATOM      1  C   UNL     1       2.183  -4.809   1.225  0.00  0.00    +0.232 C 
ATOM      2  C   UNL     1       3.197  -5.942   1.413  0.00  0.00    +0.139 C 
ATOM      3  C   UNL     1       4.050  -5.656   2.654  0.00  0.00    -0.008 C 
ATOM      4  C   UNL     1       4.624  -4.235   2.537  0.00  0.00    +0.136 C 
ATOM      5  C   UNL     1       5.176  -4.067   1.102  0.00  0.00    +0.193 C 
ATOM      6  O   UNL     1       4.068  -3.559   0.336  0.00  0.00    -0.346 OA
ATOM      7  C   UNL     1       2.925  -3.464   1.257  0.00  0.00    +0.284 C 
ATOM      8  O   UNL     1       3.503  -3.317   2.573  0.00  0.00    -0.345 OA
ENDROOT
BRANCH   3   9
ATOM      9  N   UNL     1       3.217  -5.758   3.860  0.00  0.00    +0.389 N 
ATOM     10  H   UNL     1       3.759  -5.490   4.667  0.00  0.00    -0.084 HD
ATOM     11  H   UNL     1       2.421  -5.145   3.771  0.00  0.00    -0.084 HD
BRANCH   9  12
ATOM     12  C   UNL     1       2.754  -7.143   4.019  0.00  0.00    -0.043 C 
ATOM     13  C   UNL     1       3.954  -8.056   4.278  0.00  0.00    -0.009 C 
BRANCH  12  14
ATOM     14  C   UNL     1       1.801  -7.223   5.184  0.00  0.00    -0.062 A 
ATOM     15  C   UNL     1       2.053  -6.499   6.334  0.00  0.00    +0.002 A 
ATOM     16  C   UNL     1       1.179  -6.573   7.402  0.00  0.00    +0.000 A 
ATOM     17  C   UNL     1       0.053  -7.370   7.320  0.00  0.00    +0.000 A 
ATOM     18  C   UNL     1      -0.200  -8.094   6.170  0.00  0.00    +0.000 A 
ATOM     19  C   UNL     1       0.672  -8.017   5.100  0.00  0.00    +0.002 A 
ENDBRANCH  12  14
ENDBRANCH   9  12
ENDBRANCH   3   9
BRANCH   2  20
ATOM     20  O   UNL     1       4.040  -6.023   0.262  0.00  0.00    -0.391 OA
ATOM     21  H   UNL     1       3.566  -6.199  -0.562  0.00  0.00    +0.210 HD
ENDBRANCH   2  20
BRANCH   1  22
ATOM     22  O   UNL     1       1.522  -4.962  -0.033  0.00  0.00    -0.223 OA
BRANCH  22  23
ATOM     23  S   UNL     1       0.063  -4.530  -0.023  0.00  0.00    +0.112 S 
ATOM     24  O   UNL     1      -0.476  -4.950   1.223  0.00  0.00    -0.142 OA
ATOM     25  O   UNL     1      -0.490  -4.937  -1.267  0.00  0.00    -0.142 OA
BRANCH  23  30
ATOM     26  C   UNL     1      -0.018   1.503   0.010  0.00  0.00    +0.044 C 
ATOM     27  C   UNL     1       0.002  -0.004   0.002  0.00  0.00    -0.050 A 
ATOM     28  C   UNL     1       0.006  -0.689  -1.199  0.00  0.00    +0.005 A 
ATOM     29  C   UNL     1       0.025  -2.071  -1.206  0.00  0.00    +0.030 A 
ATOM     30  C   UNL     1       0.040  -2.768  -0.013  0.00  0.00    +0.117 A 
ATOM     31  C   UNL     1       0.037  -2.084   1.188  0.00  0.00    +0.030 A 
ATOM     32  C   UNL     1       0.023  -0.702   1.195  0.00  0.00    +0.005 A 
ENDBRANCH  23  30
ENDBRANCH  22  23
ENDBRANCH   1  22
TORSDOF 7
