REMARK  Name = ZINC20442678
REMARK  5 active torsions:
REMARK  status: ('A' for Active; 'I' for Inactive)
REMARK    1  A    between atoms: C_1  and  C_2
REMARK    2  A    between atoms: C_2  and  C_3
REMARK    3  A    between atoms: C_6  and  C_9
REMARK    4  A    between atoms: C_19  and  C_21
REMARK    5  A    between atoms: C_21  and  C_22
REMARK                            x       y       z     vdW  Elec       q    Type
REMARK                         _______ _______ _______ _____ _____    ______ ____
ROOT
ATOM      1  C   UNL     1      -5.388  -1.993   0.043  0.00  0.00    +0.024 C 
ATOM      2  C   UNL     1      -6.073  -2.131  -1.130  0.00  0.00    +0.079 C 
ATOM      3  C   UNL     1      -7.509  -2.532  -1.158  0.00  0.00    +0.132 C 
ATOM      4  N   UNL     1      -8.366  -2.198  -0.231  0.00  0.00    -0.385 N 
ATOM      5  N   UNL     1      -7.851  -3.309  -2.286  0.00  0.00    -0.154 N 
ATOM      6  C   UNL     1      -7.054  -3.193  -3.404  0.00  0.00    +0.181 C 
ATOM      7  N   UNL     1      -5.942  -2.511  -3.525  0.00  0.00    -0.152 NA
ATOM      8  C   UNL     1      -5.431  -1.883  -2.446  0.00  0.00    +0.273 C 
ATOM      9  O   UNL     1      -4.469  -1.139  -2.545  0.00  0.00    -0.268 OA
ATOM     10  S   UNL     1      -7.912  -4.207  -4.579  0.00  0.00    -0.038 S 
ATOM     11  C   UNL     1      -9.201  -4.791  -3.487  0.00  0.00    +0.104 C 
ATOM     12  N   UNL     1      -8.924  -4.170  -2.376  0.00  0.00    -0.169 NA
ATOM     13  H   UNL     1      -8.078  -1.661   0.524  0.00  0.00    +0.157 HD
ATOM     14  H   UNL     1      -9.290  -2.486  -0.298  0.00  0.00    +0.157 HD
ENDROOT
BRANCH   1  18
ATOM     15  C   UNL     1      -1.196  -1.368  -0.013  0.00  0.00    -0.048 A 
ATOM     16  C   UNL     1      -1.975  -0.725   0.933  0.00  0.00    +0.004 A 
ATOM     17  C   UNL     1      -3.339  -0.922   0.959  0.00  0.00    +0.008 A 
ATOM     18  C   UNL     1      -3.937  -1.776   0.023  0.00  0.00    -0.024 A 
ATOM     19  C   UNL     1      -3.141  -2.422  -0.931  0.00  0.00    +0.008 A 
ATOM     20  C   UNL     1      -1.779  -2.209  -0.945  0.00  0.00    +0.004 A 
BRANCH  15  22
ATOM     21  C   UNL     1       0.620   0.046  -0.936  0.00  0.00    +0.009 C 
ATOM     22  C   UNL     1       0.294  -1.145  -0.033  0.00  0.00    +0.032 C 
ENDBRANCH  15  22
ENDBRANCH   1  18
BRANCH  11  23
ATOM     23  C   UNL     1     -10.322  -5.755  -3.777  0.00  0.00    +0.099 C 
BRANCH  23  24
ATOM     24  C   UNL     1     -11.161  -5.939  -2.539  0.00  0.00    -0.041 A 
ATOM     25  C   UNL     1     -10.844  -6.932  -1.631  0.00  0.00    +0.005 A 
ATOM     26  C   UNL     1     -11.612  -7.101  -0.495  0.00  0.00    +0.020 A 
ATOM     27  C   UNL     1     -12.699  -6.276  -0.266  0.00  0.00    +0.041 A 
ATOM     28  C   UNL     1     -13.015  -5.282  -1.174  0.00  0.00    +0.020 A 
ATOM     29  C   UNL     1     -12.243  -5.110  -2.307  0.00  0.00    +0.005 A 
ATOM     30 CL   UNL     1     -13.665  -6.488   1.161  0.00  0.00    -0.084 Cl
ENDBRANCH  23  24
ENDBRANCH  11  23
TORSDOF 4
