REMARK  Name = ZINC29124679
REMARK  9 active torsions:
REMARK  status: ('A' for Active; 'I' for Inactive)
REMARK    1  A    between atoms: C_1  and  C_2
REMARK    2  A    between atoms: N_5  and  C_11
REMARK    3  A    between atoms: C_7  and  C_10
REMARK    4  A    between atoms: C_14  and  C_32
REMARK    5  A    between atoms: C_15  and  N_17
REMARK    6  A    between atoms: N_17  and  S_18
REMARK    7  A    between atoms: S_18  and  C_21
REMARK    8  A    between atoms: C_24  and  C_26
REMARK    9  A    between atoms: C_32  and  C_34
REMARK                            x       y       z     vdW  Elec       q    Type
REMARK                         _______ _______ _______ _____ _____    ______ ____
ROOT
ATOM      1  C   UNL     1      -3.001   6.472  -2.738  0.00  0.00    +0.031 A 
ATOM      2  C   UNL     1      -2.637   6.223  -4.062  0.00  0.00    +0.024 A 
ATOM      3  C   UNL     1      -1.440   6.664  -4.543  0.00  0.00    +0.015 A 
ATOM      4  C   UNL     1      -0.567   7.379  -3.709  0.00  0.00    +0.042 A 
ATOM      5  C   UNL     1      -0.928   7.627  -2.370  0.00  0.00    +0.086 A 
ATOM      6  C   UNL     1      -2.148   7.172  -1.895  0.00  0.00    +0.050 A 
ENDROOT
BRANCH   1  10
ATOM      7  C   UNL     1      -7.097   4.112  -3.845  0.00  0.00    -0.012 C 
ATOM      8  C   UNL     1      -6.337   4.888  -2.768  0.00  0.00    -0.057 C 
ATOM      9  C   UNL     1      -4.966   5.304  -3.309  0.00  0.00    +0.089 C 
ATOM     10  N   UNL     1      -4.224   6.016  -2.260  0.00  0.00    -0.333 N 
ATOM     11  C   UNL     1      -4.042   5.163  -1.077  0.00  0.00    +0.089 C 
ATOM     12  C   UNL     1      -5.412   4.748  -0.536  0.00  0.00    -0.057 C 
ATOM     13  N   UNL     1      -6.155   4.036  -1.585  0.00  0.00    +0.384 N 
ATOM     14  C   UNL     1      -5.226   3.828   0.672  0.00  0.00    -0.012 C 
ATOM     15  H   UNL     1      -7.139   3.746  -1.187  0.00  0.00    -0.085 HD
ATOM     16  H   UNL     1      -5.593   3.133  -1.866  0.00  0.00    -0.085 HD
ENDBRANCH   1  10
BRANCH   4  17
ATOM     17  C   UNL     1       0.714   7.859  -4.226  0.00  0.00    +0.162 C 
ATOM     18  O   UNL     1       1.470   8.472  -3.501  0.00  0.00    -0.292 OA
ATOM     19  C   UNL     1       1.097   7.591  -5.659  0.00  0.00    +0.091 C 
ENDBRANCH   4  17
BRANCH   5  20
ATOM     20  N   UNL     1      -0.071   8.328  -1.534  0.00  0.00    -0.097 NA
BRANCH  20  21
ATOM     21  S   UNL     1       0.034   7.926   0.069  0.00  0.00    +0.098 S 
ATOM     22  O   UNL     1      -1.292   7.949   0.581  0.00  0.00    -0.148 OA
ATOM     23  O   UNL     1       1.076   8.720   0.619  0.00  0.00    -0.148 OA
BRANCH  21  24
ATOM     24  C   UNL     1       0.577   6.252   0.153  0.00  0.00    +0.148 A 
ATOM     25  C   UNL     1       1.845   5.768   0.209  0.00  0.00    +0.037 A 
ATOM     26  C   UNL     1       2.041   4.407   0.277  0.00  0.00    +0.019 A 
ATOM     27  C   UNL     1       0.946   3.583   0.272  0.00  0.00    +0.039 A 
ATOM     28  S   UNL     1      -0.397   4.756   0.185  0.00  0.00    -0.067 S 
BRANCH  27  29
ATOM     29  C   UNL     1       0.891   2.108   0.330  0.00  0.00    +0.078 A 
ATOM     30  C   UNL     1      -0.346   1.460   0.320  0.00  0.00    +0.029 A 
ATOM     31  C   UNL     1      -0.381   0.079   0.375  0.00  0.00    +0.004 A 
ATOM     32  C   UNL     1       0.822  -0.613   0.439  0.00  0.00    +0.020 A 
ATOM     33  C   UNL     1       2.011   0.091   0.445  0.00  0.00    +0.111 A 
ATOM     34  N   UNL     1       2.018   1.408   0.392  0.00  0.00    -0.254 NA
ENDBRANCH  27  29
ENDBRANCH  21  24
ENDBRANCH  20  21
ENDBRANCH   5  20
TORSDOF 6
