REMARK  Name = ZINC12360329
REMARK  4 active torsions:
REMARK  status: ('A' for Active; 'I' for Inactive)
REMARK    1  A    between atoms: C_9  and  O_24
REMARK    2  A    between atoms: C_10  and  C_11
REMARK    3  A    between atoms: N_12  and  C_13
REMARK    4  A    between atoms: C_14  and  C_22
REMARK                            x       y       z     vdW  Elec       q    Type
REMARK                         _______ _______ _______ _____ _____    ______ ____
ROOT
ATOM      1  C   UNL     1       5.007   0.045   0.189  0.00  0.00    +0.124 C 
ATOM      2  N   UNL     1       6.110  -0.568  -0.162  0.00  0.00    -0.246 NA
ENDROOT
BRANCH   1  12
ATOM      3  C   UNL     1       4.026  -3.481   3.817  0.00  0.00    +0.001 A 
ATOM      4  C   UNL     1       5.160  -2.761   3.451  0.00  0.00    +0.001 A 
ATOM      5  C   UNL     1       5.120  -1.870   2.419  0.00  0.00    +0.009 A 
ATOM      6  C   UNL     1       3.925  -1.676   1.718  0.00  0.00    -0.006 A 
ATOM      7  C   UNL     1       2.770  -2.407   2.087  0.00  0.00    -0.017 A 
ATOM      8  C   UNL     1       2.847  -3.316   3.155  0.00  0.00    +0.008 A 
ATOM      9  C   UNL     1       1.570  -2.211   1.381  0.00  0.00    +0.012 A 
ATOM     10  C   UNL     1       1.504  -1.329   0.348  0.00  0.00    +0.046 A 
ATOM     11  C   UNL     1       2.613  -0.586  -0.055  0.00  0.00    +0.126 A 
ATOM     12  C   UNL     1       3.838  -0.731   0.604  0.00  0.00    +0.042 A 
BRANCH  11  13
ATOM     13  O   UNL     1       2.502   0.281  -1.092  0.00  0.00    -0.506 OA
ATOM     14  H   UNL     1       2.169   1.154  -0.841  0.00  0.00    +0.292 HD
ENDBRANCH  11  13
ENDBRANCH   1  12
BRANCH   2  15
ATOM     15  C   UNL     1       6.104  -1.901  -0.371  0.00  0.00    +0.119 A 
ATOM     16  C   UNL     1       7.181  -2.763  -0.608  0.00  0.00    +0.088 A 
ATOM     17  C   UNL     1       6.917  -4.131  -0.798  0.00  0.00    -0.018 A 
ATOM     18  C   UNL     1       5.619  -4.520  -0.739  0.00  0.00    -0.004 A 
ATOM     19  S   UNL     1       4.719  -3.028  -0.411  0.00  0.00    -0.073 S 
ATOM     20  C   UNL     1       5.077  -5.905  -0.907  0.00  0.00    +0.043 C 
ATOM     21  C   UNL     1       6.173  -6.783  -1.527  0.00  0.00    +0.005 C 
ATOM     22  C   UNL     1       7.478  -6.552  -0.760  0.00  0.00    +0.005 C 
ATOM     23  C   UNL     1       8.019  -5.155  -1.062  0.00  0.00    +0.037 C 
BRANCH  16  24
ATOM     24  C   UNL     1       8.522  -2.263  -0.655  0.00  0.00    +0.102 C 
ATOM     25  N   UNL     1       9.586  -1.866  -0.692  0.00  0.00    -0.191 NA
ENDBRANCH  16  24
ENDBRANCH   2  15
TORSDOF 4
