REMARK  Name = ZINC31384540
REMARK  4 active torsions:
REMARK  status: ('A' for Active; 'I' for Inactive)
REMARK    1  A    between atoms: C_1  and  C_2
REMARK    2  A    between atoms: C_8  and  N_10
REMARK    3  A    between atoms: N_10  and  C_11
REMARK    4  A    between atoms: C_12  and  C_14
REMARK                            x       y       z     vdW  Elec       q    Type
REMARK                         _______ _______ _______ _____ _____    ______ ____
ROOT
ATOM      1  N   UNL     1      -4.550   5.014   0.176  0.00  0.00    -0.296 N 
ATOM      2  C   UNL     1      -4.010   6.375   0.179  0.00  0.00    +0.132 C 
ATOM      3  C   UNL     1      -3.760   3.976  -0.162  0.00  0.00    +0.267 C 
ATOM      4  O   UNL     1      -4.221   2.852  -0.213  0.00  0.00    -0.268 OA
ENDROOT
BRANCH   3   5
ATOM      5  C   UNL     1      -2.336   4.203  -0.468  0.00  0.00    +0.155 A 
ATOM      6  C   UNL     1      -1.322   3.178  -0.750  0.00  0.00    +0.032 A 
ATOM      7  C   UNL     1      -1.309   1.789  -0.833  0.00  0.00    +0.012 A 
ATOM      8  C   UNL     1      -0.140   1.143  -1.123  0.00  0.00    +0.001 A 
ATOM      9  C   UNL     1       1.028   1.862  -1.346  0.00  0.00    +0.002 A 
ATOM     10  C   UNL     1       1.035   3.227  -1.274  0.00  0.00    +0.028 A 
ATOM     11  C   UNL     1      -0.139   3.910  -0.975  0.00  0.00    +0.066 A 
ATOM     12  N   UNL     1      -0.476   5.230  -0.829  0.00  0.00    -0.276 N 
ATOM     13  H   UNL     1       0.288   6.010  -0.958  0.00  0.00    +0.189 HD
ATOM     14  N   UNL     1      -1.721   5.364  -0.543  0.00  0.00    -0.168 NA
ENDBRANCH   3   5
BRANCH   1  21
ATOM     15  C   UNL     1      -6.617   5.050  -1.854  0.00  0.00    +0.009 C 
ATOM     16  C   UNL     1      -6.861   5.542  -0.426  0.00  0.00    +0.006 C 
ATOM     17  C   UNL     1      -8.323   5.298  -0.046  0.00  0.00    +0.005 C 
ATOM     18  C   UNL     1      -8.568   5.790   1.382  0.00  0.00    +0.000 C 
ATOM     19  C   UNL     1      -7.657   5.028   2.347  0.00  0.00    +0.002 C 
ATOM     20  C   UNL     1      -6.195   5.272   1.967  0.00  0.00    +0.023 C 
ATOM     21  C   UNL     1      -5.950   4.780   0.539  0.00  0.00    +0.079 C 
ENDBRANCH   1  21
TORSDOF 2
