REMARK  Name = ZINC09828976
REMARK  13 active torsions:
REMARK  status: ('A' for Active; 'I' for Inactive)
REMARK    1  A    between atoms: C_1  and  O_2
REMARK    2  A    between atoms: O_2  and  C_3
REMARK    3  A    between atoms: C_6  and  N_9
REMARK    4  A    between atoms: C_14  and  C_16
REMARK    5  A    between atoms: C_14  and  C_33
REMARK    6  A    between atoms: C_14  and  N_71
REMARK    7  A    between atoms: C_16  and  N_17
REMARK    8  A    between atoms: C_18  and  C_20
REMARK    9  A    between atoms: N_22  and  C_23
REMARK   10  A    between atoms: C_23  and  C_24
REMARK   11  A    between atoms: C_24  and  C_25
REMARK   12  A    between atoms: C_30  and  O_31
REMARK   13  A    between atoms: O_31  and  C_32
REMARK                            x       y       z     vdW  Elec       q    Type
REMARK                         _______ _______ _______ _____ _____    ______ ____
ROOT
ATOM      1  C   UNL     1       0.002  -0.004   0.002  0.00  0.00    +0.017 C 
ENDROOT
BRANCH   1   7
ATOM      2  N   UNL     1       1.197   3.973  -0.774  0.00  0.00    -0.333 N 
ATOM      3  C   UNL     1       1.957   3.208   0.224  0.00  0.00    +0.086 C 
ATOM      4  C   UNL     1       1.711   1.712   0.013  0.00  0.00    -0.059 C 
ATOM      5  C   UNL     1      -0.488   2.200  -0.873  0.00  0.00    -0.059 C 
ATOM      6  C   UNL     1      -0.242   3.696  -0.662  0.00  0.00    +0.086 C 
ATOM      7  N   UNL     1       0.264   1.444   0.150  0.00  0.00    +0.389 N 
ATOM      8  H   UNL     1      -0.045   1.745   1.081  0.00  0.00    -0.081 HD
BRANCH   2  12
ATOM      9  C   UNL     1       1.962   8.056  -0.426  0.00  0.00    +0.120 A 
ATOM     10  C   UNL     1       1.084   7.595  -1.396  0.00  0.00    +0.047 A 
ATOM     11  C   UNL     1       0.830   6.243  -1.512  0.00  0.00    +0.027 A 
ATOM     12  C   UNL     1       1.454   5.344  -0.657  0.00  0.00    +0.030 A 
ATOM     13  C   UNL     1       2.328   5.806   0.318  0.00  0.00    +0.027 A 
ATOM     14  C   UNL     1       2.585   7.159   0.429  0.00  0.00    +0.047 A 
BRANCH   9  16
ATOM     15  C   UNL     1       3.125   9.792   0.710  0.00  0.00    +0.277 C 
ATOM     16  O   UNL     1       2.211   9.388  -0.312  0.00  0.00    -0.495 OA
ENDBRANCH   9  16
ENDBRANCH   2  12
ENDBRANCH   1   7
BRANCH   1  17
ATOM     17  C   UNL     1       0.482  -0.493  -1.340  0.00  0.00    +0.093 A 
ATOM     18  C   UNL     1       1.235  -1.586  -1.556  0.00  0.00    +0.043 A 
ATOM     19  C   UNL     1       1.449  -1.667  -2.951  0.00  0.00    +0.041 A 
ATOM     20  C   UNL     1       0.815  -0.618  -3.505  0.00  0.00    +0.195 A 
ATOM     21  O   UNL     1       0.226   0.087  -2.525  0.00  0.00    -0.469 OA
ENDBRANCH   1  17
BRANCH   1  22
ATOM     22  C   UNL     1      -1.502  -0.253   0.128  0.00  0.00    +0.097 C 
BRANCH  22  23
ATOM     23  N   UNL     1      -1.991   0.328   1.380  0.00  0.00    -0.309 N 
ATOM     24  C   UNL     1      -3.295   0.230   1.705  0.00  0.00    +0.299 C 
ATOM     25  O   UNL     1      -4.065  -0.340   0.960  0.00  0.00    -0.265 OA
ATOM     26  H   UNL     1      -1.375   0.783   1.976  0.00  0.00    +0.149 HD
BRANCH  24  27
ATOM     27  C   UNL     1      -3.793   0.823   2.983  0.00  0.00    +0.299 C 
ATOM     28  O   UNL     1      -3.024   1.393   3.729  0.00  0.00    -0.265 OA
ATOM     29  N   UNL     1      -5.098   0.725   3.308  0.00  0.00    -0.307 N 
ATOM     30  H   UNL     1      -5.713   0.269   2.712  0.00  0.00    +0.149 HD
BRANCH  29  31
ATOM     31  C   UNL     1      -5.586   1.306   4.561  0.00  0.00    +0.109 C 
BRANCH  31  32
ATOM     32  C   UNL     1      -7.091   1.056   4.686  0.00  0.00    +0.057 C 
BRANCH  32  33
ATOM     33  C   UNL     1      -7.593   1.654   5.975  0.00  0.00    -0.004 A 
ATOM     34  C   UNL     1      -7.708   0.866   7.104  0.00  0.00    +0.007 A 
ATOM     35  C   UNL     1      -8.165   1.415   8.288  0.00  0.00    +0.000 A 
ATOM     36  C   UNL     1      -8.517   2.752   8.343  0.00  0.00    +0.004 A 
ATOM     37  C   UNL     1      -8.409   3.542   7.215  0.00  0.00    +0.046 A 
ATOM     38  C   UNL     1      -7.946   2.995   6.027  0.00  0.00    +0.123 A 
BRANCH  38  39
ATOM     39  O   UNL     1      -7.839   3.771   4.917  0.00  0.00    -0.495 OA
ATOM     40  C   UNL     1      -8.220   5.142   5.044  0.00  0.00    +0.277 C 
ENDBRANCH  38  39
ENDBRANCH  32  33
ENDBRANCH  31  32
ENDBRANCH  29  31
ENDBRANCH  24  27
ENDBRANCH  22  23
ENDBRANCH   1  22
TORSDOF 11
