REMARK  Name = ZINC20835610
REMARK  7 active torsions:
REMARK  status: ('A' for Active; 'I' for Inactive)
REMARK    1  A    between atoms: C_1  and  C_2
REMARK    2  A    between atoms: C_2  and  C_21
REMARK    3  A    between atoms: N_3  and  N_4
REMARK    4  A    between atoms: C_7  and  S_10
REMARK    5  A    between atoms: S_10  and  C_11
REMARK    6  A    between atoms: C_11  and  C_12
REMARK    7  A    between atoms: C_15  and  C_17
REMARK                            x       y       z     vdW  Elec       q    Type
REMARK                         _______ _______ _______ _____ _____    ______ ____
ROOT
ATOM      1  N   UNL     1       6.010   6.032  -0.023  0.00  0.00    -0.205 N 
ATOM      2  C   UNL     1       5.990   7.419  -0.016  0.00  0.00    +0.232 A 
ATOM      3  N   UNL     1       7.084   8.239  -0.022  0.00  0.00    -0.186 NA
ATOM      4  C   UNL     1       6.644   9.531  -0.013  0.00  0.00    +0.211 A 
ATOM      5  N   UNL     1       5.332   9.513  -0.001  0.00  0.00    -0.144 NA
ATOM      6  N   UNL     1       4.918   8.174  -0.009  0.00  0.00    -0.245 N 
ATOM      7  H   UNL     1       6.970   5.495  -0.034  0.00  0.00    +0.177 HD
ATOM      8  H   UNL     1       3.920   7.712  -0.009  0.00  0.00    +0.192 HD
ENDROOT
BRANCH   1  11
ATOM      9  C   UNL     1       6.141   3.280  -0.037  0.00  0.00    +0.068 C 
ATOM     10  C   UNL     1       4.826   4.015  -0.021  0.00  0.00    +0.063 C 
ATOM     11  N   UNL     1       4.807   5.314  -0.015  0.00  0.00    -0.184 NA
BRANCH  10  12
ATOM     12  C   UNL     1       3.560   3.260  -0.013  0.00  0.00    -0.002 A 
ATOM     13  C   UNL     1       3.586   1.852  -0.021  0.00  0.00    +0.010 A 
ATOM     14  C   UNL     1       2.434   1.135  -0.014  0.00  0.00    +0.009 A 
ATOM     15  C   UNL     1       1.192   1.798   0.000  0.00  0.00    -0.018 A 
ATOM     16  C   UNL     1      -0.013   1.076   0.008  0.00  0.00    +0.008 A 
ATOM     17  C   UNL     1      -1.199   1.743   0.017  0.00  0.00    +0.001 A 
ATOM     18  C   UNL     1      -1.239   3.136   0.030  0.00  0.00    +0.001 A 
ATOM     19  C   UNL     1      -0.093   3.870   0.023  0.00  0.00    +0.008 A 
ATOM     20  C   UNL     1       1.152   3.215   0.008  0.00  0.00    -0.017 A 
ATOM     21  C   UNL     1       2.353   3.941   0.001  0.00  0.00    +0.018 A 
ENDBRANCH  10  12
ENDBRANCH   1  11
BRANCH   4  22
ATOM     22  S   UNL     1       7.659  10.972  -0.016  0.00  0.00    -0.075 S 
BRANCH  22  23
ATOM     23  C   UNL     1       6.473  12.344   0.001  0.00  0.00    +0.175 C 
BRANCH  23  24
ATOM     24  C   UNL     1       7.220  13.653  -0.000  0.00  0.00    +0.228 A 
ATOM     25  N   UNL     1       7.592  14.327  -1.051  0.00  0.00    -0.111 NA
ATOM     26  N   UNL     1       8.206  15.395  -0.678  0.00  0.00    -0.103 NA
ATOM     27  C   UNL     1       8.246  15.438   0.623  0.00  0.00    +0.322 A 
ATOM     28  O   UNL     1       7.620  14.342   1.082  0.00  0.00    -0.416 OA
BRANCH  27  29
ATOM     29  C   UNL     1       8.874  16.523   1.461  0.00  0.00    +0.471 C 
ATOM     30  F   UNL     1       9.320  17.555   0.628  0.00  0.00    -0.162 F 
ATOM     31  F   UNL     1       7.928  17.024   2.360  0.00  0.00    -0.162 F 
ATOM     32  F   UNL     1       9.958  15.995   2.170  0.00  0.00    -0.162 F 
ENDBRANCH  27  29
ENDBRANCH  23  24
ENDBRANCH  22  23
ENDBRANCH   4  22
TORSDOF 6
