REMARK  Name = ZINC09262614
REMARK  7 active torsions:
REMARK  status: ('A' for Active; 'I' for Inactive)
REMARK    1  A    between atoms: C_1  and  C_2
REMARK    2  A    between atoms: C_2  and  C_3
REMARK    3  A    between atoms: C_2  and  C_4
REMARK    4  A    between atoms: C_7  and  N_10
REMARK    5  A    between atoms: C_14  and  C_15
REMARK    6  A    between atoms: C_18  and  C_20
REMARK    7  A    between atoms: C_25  and  C_26
REMARK                            x       y       z     vdW  Elec       q    Type
REMARK                         _______ _______ _______ _____ _____    ______ ____
ROOT
ATOM      1  N   UNL     1       3.760   2.368   1.226  0.00  0.00    -0.217 N 
ATOM      2  C   UNL     1       3.689   3.659   0.839  0.00  0.00    +0.262 C 
ATOM      3  O   UNL     1       2.676   4.309   1.014  0.00  0.00    -0.269 OA
ATOM      4  C   UNL     1       4.873   4.260   0.202  0.00  0.00    +0.103 C 
ATOM      5  C   UNL     1       4.876   5.586  -0.219  0.00  0.00    +0.064 C 
ATOM      6  C   UNL     1       6.053   3.395   0.026  0.00  0.00    +0.255 C 
ATOM      7  O   UNL     1       7.067   3.820  -0.495  0.00  0.00    -0.270 OA
ATOM      8  N   UNL     1       5.979   2.120   0.458  0.00  0.00    -0.263 N 
ATOM      9  C   UNL     1       4.868   1.639   1.034  0.00  0.00    +0.150 C 
ATOM     10  S   UNL     1       4.864   0.007   1.552  0.00  0.00    -0.018 S 
ATOM     11  H   UNL     1       6.747   1.537   0.350  0.00  0.00    +0.157 HD
ENDROOT
BRANCH   1  15
ATOM     12  C   UNL     1       0.451   0.605   3.045  0.00  0.00    -0.045 A 
ATOM     13  C   UNL     1       0.860   0.178   1.796  0.00  0.00    +0.006 A 
ATOM     14  C   UNL     1       1.956   0.760   1.190  0.00  0.00    +0.024 A 
ATOM     15  C   UNL     1       2.647   1.776   1.838  0.00  0.00    +0.043 A 
ATOM     16  C   UNL     1       2.234   2.203   3.092  0.00  0.00    +0.024 A 
ATOM     17  C   UNL     1       1.136   1.617   3.692  0.00  0.00    +0.006 A 
BRANCH  12  19
ATOM     18  C   UNL     1      -0.323  -0.663   5.031  0.00  0.00    +0.012 C 
ATOM     19  C   UNL     1      -0.746  -0.032   3.703  0.00  0.00    +0.013 C 
ATOM     20  C   UNL     1      -1.813   1.033   3.962  0.00  0.00    +0.012 C 
ENDBRANCH  12  19
ENDBRANCH   1  15
BRANCH   5  21
ATOM     21  C   UNL     1       3.686   6.329  -0.207  0.00  0.00    +0.129 A 
ATOM     22  C   UNL     1       3.556   7.654   0.188  0.00  0.00    +0.050 A 
ATOM     23  C   UNL     1       2.212   7.988   0.042  0.00  0.00    +0.050 A 
ATOM     24  C   UNL     1       1.565   6.864  -0.433  0.00  0.00    +0.137 A 
ATOM     25  O   UNL     1       2.469   5.880  -0.581  0.00  0.00    -0.455 OA
BRANCH  24  26
ATOM     26  C   UNL     1       0.127   6.763  -0.734  0.00  0.00    +0.035 A 
ATOM     27  C   UNL     1      -0.818   7.179   0.206  0.00  0.00    +0.013 A 
ATOM     28  C   UNL     1      -2.164   7.082  -0.081  0.00  0.00    +0.001 A 
ATOM     29  C   UNL     1      -2.589   6.573  -1.298  0.00  0.00    +0.001 A 
ATOM     30  C   UNL     1      -1.671   6.156  -2.241  0.00  0.00    +0.019 A 
ATOM     31  C   UNL     1      -0.306   6.250  -1.974  0.00  0.00    +0.062 A 
BRANCH  31  32
ATOM     32  C   UNL     1       0.651   5.825  -2.951  0.00  0.00    +0.100 C 
ATOM     33  N   UNL     1       1.410   5.488  -3.727  0.00  0.00    -0.191 NA
ENDBRANCH  31  32
ENDBRANCH  24  26
ENDBRANCH   5  21
TORSDOF 5
