REMARK  Name = ZINC39686666
REMARK  11 active torsions:
REMARK  status: ('A' for Active; 'I' for Inactive)
REMARK    1  A    between atoms: C_1  and  C_2
REMARK    2  A    between atoms: C_4  and  C_7
REMARK    3  A    between atoms: C_8  and  C_13
REMARK    4  A    between atoms: C_9  and  C_12
REMARK    5  A    between atoms: C_17  and  C_26
REMARK    6  A    between atoms: N_28  and  C_29
REMARK    7  A    between atoms: C_29  and  C_31
REMARK    8  A    between atoms: C_29  and  C_32
REMARK    9  A    between atoms: C_32  and  C_33
REMARK   10  A    between atoms: C_38  and  O_39
REMARK   11  A    between atoms: O_39  and  C_40
REMARK                            x       y       z     vdW  Elec       q    Type
REMARK                         _______ _______ _______ _____ _____    ______ ____
ROOT
ATOM      1  C   UNL     1       0.428  -5.170   0.000  0.00  0.00    +0.252 C 
ATOM      2  O   UNL     1       1.029  -5.338   1.044  0.00  0.00    -0.270 OA
ATOM      3  N   UNL     1       1.057  -5.353  -1.177  0.00  0.00    -0.296 N 
ATOM      4  C   UNL     1       0.498  -5.191  -2.540  0.00  0.00    +0.121 C 
ATOM      5  C   UNL     1       1.637  -4.536  -3.353  0.00  0.00    +0.100 C 
ATOM      6  C   UNL     1       2.925  -4.916  -2.603  0.00  0.00    -0.004 C 
ATOM      7  C   UNL     1       2.466  -5.756  -1.402  0.00  0.00    +0.115 C 
ATOM      8  C   UNL     1       3.840  -5.738  -3.505  0.00  0.00    -0.010 C 
ATOM      9  C   UNL     1       5.138  -6.054  -2.756  0.00  0.00    -0.082 C 
ATOM     10  N   UNL     1       5.797  -4.802  -2.366  0.00  0.00    +0.379 N 
ATOM     11  C   UNL     1       4.949  -4.061  -1.425  0.00  0.00    -0.082 C 
ATOM     12  C   UNL     1       3.643  -3.661  -2.117  0.00  0.00    -0.010 C 
ATOM     13  H   UNL     1       6.681  -5.012  -1.927  0.00  0.00    -0.086 HD
ATOM     14  H   UNL     1       5.958  -4.239  -3.187  0.00  0.00    -0.086 HD
ENDROOT
BRANCH   1  16
ATOM     15  C   UNL     1      -1.472  -3.465   0.033  0.00  0.00    +0.201 A 
ATOM     16  C   UNL     1      -0.988  -4.765   0.024  0.00  0.00    +0.108 A 
ATOM     17  C   UNL     1      -2.109  -5.632   0.040  0.00  0.00    +0.093 A 
ATOM     18  N   UNL     1      -3.185  -4.902   0.058  0.00  0.00    -0.082 NA
ATOM     19  O   UNL     1      -2.812  -3.538   0.060  0.00  0.00    -0.352 OA
ATOM     20  C   UNL     1      -2.063  -7.138   0.036  0.00  0.00    +0.070 C 
BRANCH  15  24
ATOM     21  C   UNL     1      -0.185   1.443   0.030  0.00  0.00    +0.089 C 
ATOM     22  C   UNL     1      -0.111  -0.062   0.023  0.00  0.00    +0.135 A 
ATOM     23  C   UNL     1      -1.161  -0.902   0.039  0.00  0.00    +0.079 A 
ATOM     24  C   UNL     1      -0.662  -2.228   0.023  0.00  0.00    +0.152 A 
ATOM     25  N   UNL     1       0.649  -2.162  -0.002  0.00  0.00    -0.075 NA
ATOM     26  O   UNL     1       1.013  -0.793  -0.007  0.00  0.00    -0.359 OA
ENDBRANCH  15  24
ENDBRANCH   1  16
BRANCH   5  27
ATOM     27  C   UNL     1       1.664  -5.086  -4.756  0.00  0.00    +0.218 C 
ATOM     28  O   UNL     1       1.342  -6.237  -4.963  0.00  0.00    -0.275 OA
ATOM     29  N   UNL     1       2.045  -4.298  -5.782  0.00  0.00    -0.312 N 
ATOM     30  H   UNL     1       2.302  -3.378  -5.617  0.00  0.00    +0.149 HD
BRANCH  29  31
ATOM     31  C   UNL     1       2.070  -4.833  -7.146  0.00  0.00    +0.074 C 
ATOM     32  C   UNL     1       0.676  -4.716  -7.766  0.00  0.00    +0.028 C 
BRANCH  31  33
ATOM     33  C   UNL     1       3.071  -4.037  -7.986  0.00  0.00    +0.060 C 
BRANCH  33  34
ATOM     34  C   UNL     1       4.462  -4.252  -7.448  0.00  0.00    -0.004 A 
ATOM     35  C   UNL     1       5.000  -3.354  -6.546  0.00  0.00    +0.007 A 
ATOM     36  C   UNL     1       6.277  -3.550  -6.052  0.00  0.00    +0.000 A 
ATOM     37  C   UNL     1       7.017  -4.645  -6.458  0.00  0.00    +0.004 A 
ATOM     38  C   UNL     1       6.484  -5.545  -7.359  0.00  0.00    +0.046 A 
ATOM     39  C   UNL     1       5.201  -5.354  -7.853  0.00  0.00    +0.123 A 
BRANCH  39  40
ATOM     40  O   UNL     1       4.671  -6.242  -8.735  0.00  0.00    -0.495 OA
ATOM     41  C   UNL     1       5.489  -7.353  -9.107  0.00  0.00    +0.277 C 
ENDBRANCH  39  40
ENDBRANCH  33  34
ENDBRANCH  31  33
ENDBRANCH  29  31
ENDBRANCH   5  27
TORSDOF 7
