REMARK  Name = ZINC42326332
REMARK  5 active torsions:
REMARK  status: ('A' for Active; 'I' for Inactive)
REMARK    1  A    between atoms: C_1  and  C_2
REMARK    2  A    between atoms: C_2  and  C_3
REMARK    3  A    between atoms: C_3  and  N_4
REMARK    4  A    between atoms: C_10  and  C_13
REMARK    5  A    between atoms: C_10  and  C_19
REMARK                            x       y       z     vdW  Elec       q    Type
REMARK                         _______ _______ _______ _____ _____    ______ ____
ROOT
ATOM      1  N   UNL     1       1.945  -1.969   3.238  0.00  0.00    -0.299 N 
ATOM      2  C   UNL     1       1.361  -2.647   2.229  0.00  0.00    +0.302 C 
ATOM      3  O   UNL     1       0.740  -2.048   1.374  0.00  0.00    -0.253 OA
ATOM      4  N   UNL     1       1.467  -3.989   2.170  0.00  0.00    -0.286 N 
ATOM      5  C   UNL     1       0.937  -4.732   1.018  0.00  0.00    +0.111 C 
ATOM      6  C   UNL     1       2.051  -5.614   0.446  0.00  0.00    +0.042 C 
ATOM      7  C   UNL     1       2.616  -6.500   1.559  0.00  0.00    +0.100 C 
ATOM      8  C   UNL     1       3.214  -5.621   2.659  0.00  0.00    +0.042 C 
ATOM      9  C   UNL     1       2.119  -4.738   3.253  0.00  0.00    +0.111 C 
ATOM     10  H   UNL     1       2.377  -2.451   3.960  0.00  0.00    +0.150 HD
ENDROOT
BRANCH   7  11
ATOM     11  C   UNL     1       3.689  -7.395   0.992  0.00  0.00    -0.030 A 
ATOM     12  C   UNL     1       4.017  -7.317  -0.349  0.00  0.00    +0.005 A 
ATOM     13  C   UNL     1       5.001  -8.137  -0.868  0.00  0.00    +0.000 A 
ATOM     14  C   UNL     1       5.657  -9.035  -0.047  0.00  0.00    +0.000 A 
ATOM     15  C   UNL     1       5.330  -9.112   1.294  0.00  0.00    +0.000 A 
ATOM     16  C   UNL     1       4.349  -8.289   1.814  0.00  0.00    +0.005 A 
ENDBRANCH   7  11
BRANCH   7  17
ATOM     17  C   UNL     1       1.511  -7.346   2.137  0.00  0.00    +0.366 C 
ATOM     18  O   UNL     1       0.620  -7.761   1.416  0.00  0.00    -0.245 OA
ATOM     19  O   UNL     1       1.509  -7.616   3.326  0.00  0.00    -0.245 OA
ENDBRANCH   7  17
BRANCH   1  20
ATOM     20  C   UNL     1       1.926  -0.504   3.243  0.00  0.00    +0.105 C 
BRANCH  20  22
ATOM     21  C   UNL     1       2.632   1.541   4.493  0.00  0.00    +0.005 C 
ATOM     22  C   UNL     1       2.652   0.011   4.487  0.00  0.00    +0.015 C 
ENDBRANCH  20  22
ENDBRANCH   1  20
TORSDOF 4
