REMARK  Name = ZINC09427688
REMARK  8 active torsions:
REMARK  status: ('A' for Active; 'I' for Inactive)
REMARK    1  A    between atoms: C_1  and  C_2
REMARK    2  A    between atoms: C_9  and  N_30
REMARK    3  A    between atoms: C_10  and  C_13
REMARK    4  A    between atoms: N_17  and  C_21
REMARK    5  A    between atoms: C_21  and  C_23
REMARK    6  A    between atoms: C_21  and  C_24
REMARK    7  A    between atoms: C_32  and  C_39
REMARK    8  A    between atoms: C_35  and  C_38
REMARK                            x       y       z     vdW  Elec       q    Type
REMARK                         _______ _______ _______ _____ _____    ______ ____
ROOT
ATOM      1  C   UNL     1      10.166   3.570   6.950  0.00  0.00    +0.047 C 
ATOM      2  C   UNL     1       9.303   2.849   5.947  0.00  0.00    -0.007 A 
ATOM      3  C   UNL     1       9.673   1.622   5.480  0.00  0.00    +0.008 A 
ATOM      4  C   UNL     1       8.860   0.964   4.547  0.00  0.00    +0.019 A 
ATOM      5  C   UNL     1       7.718   1.544   4.114  0.00  0.00    +0.096 A 
ATOM      6  N   UNL     1       7.340   2.770   4.575  0.00  0.00    -0.267 N 
ATOM      7  C   UNL     1       8.112   3.437   5.485  0.00  0.00    +0.145 A 
ATOM      8  N   UNL     1       7.759   4.636   5.947  0.00  0.00    -0.213 NA
ATOM      9  C   UNL     1       6.650   5.239   5.543  0.00  0.00    +0.136 A 
ATOM     10  C   UNL     1       5.809   4.594   4.606  0.00  0.00    +0.081 A 
ATOM     11  C   UNL     1       6.193   3.321   4.122  0.00  0.00    +0.267 A 
ATOM     12  O   UNL     1       5.501   2.732   3.309  0.00  0.00    -0.267 OA
ENDROOT
BRANCH  10  13
ATOM     13  C   UNL     1       4.616   5.210   4.159  0.00  0.00    +0.037 C 
ATOM     14  C   UNL     1       4.504   5.620   2.862  0.00  0.00    +0.077 C 
ATOM     15  C   UNL     1       5.446   5.525   1.797  0.00  0.00    +0.259 C 
ATOM     16  O   UNL     1       6.540   5.018   1.972  0.00  0.00    -0.269 OA
ATOM     17  N   UNL     1       5.098   6.002   0.615  0.00  0.00    -0.248 N 
ATOM     18  C   UNL     1       3.886   6.568   0.422  0.00  0.00    +0.121 C 
ATOM     19  S   UNL     1       3.235   7.250  -1.007  0.00  0.00    -0.027 S 
ATOM     20  S   UNL     1       3.137   6.423   2.037  0.00  0.00    -0.061 S 
BRANCH  17  21
ATOM     21  C   UNL     1       6.043   5.920  -0.502  0.00  0.00    +0.110 C 
ATOM     22  C   UNL     1       6.452   7.332  -0.928  0.00  0.00    +0.033 C 
BRANCH  21  23
ATOM     23  C   UNL     1       5.390   5.214  -1.662  0.00  0.00    -0.027 A 
ATOM     24  C   UNL     1       4.572   4.123  -1.436  0.00  0.00    +0.005 A 
ATOM     25  C   UNL     1       3.973   3.476  -2.500  0.00  0.00    +0.000 A 
ATOM     26  C   UNL     1       4.193   3.918  -3.791  0.00  0.00    +0.000 A 
ATOM     27  C   UNL     1       5.012   5.008  -4.018  0.00  0.00    +0.000 A 
ATOM     28  C   UNL     1       5.611   5.656  -2.953  0.00  0.00    +0.005 A 
ENDBRANCH  21  23
ENDBRANCH  17  21
ENDBRANCH  10  13
BRANCH   9  29
ATOM     29  N   UNL     1       6.316   6.481   6.036  0.00  0.00    -0.314 N 
ATOM     30  C   UNL     1       6.335   7.492   4.971  0.00  0.00    +0.109 C 
ATOM     31  C   UNL     1       5.821   8.824   5.521  0.00  0.00    +0.004 C 
ATOM     32  C   UNL     1       6.710   9.267   6.686  0.00  0.00    +0.009 C 
ATOM     33  C   UNL     1       6.712   8.176   7.760  0.00  0.00    +0.004 C 
ATOM     34  C   UNL     1       7.200   6.862   7.145  0.00  0.00    +0.109 C 
ATOM     35  C   UNL     1       7.645   8.583   8.902  0.00  0.00    +0.009 C 
ATOM     36  C   UNL     1       4.382   8.653   6.013  0.00  0.00    +0.009 C 
ENDBRANCH   9  29
TORSDOF 4
