REMARK  Name = ZINC45800759
REMARK  11 active torsions:
REMARK  status: ('A' for Active; 'I' for Inactive)
REMARK    1  A    between atoms: C_1  and  C_2
REMARK    2  A    between atoms: C_3  and  C_8
REMARK    3  A    between atoms: C_4  and  C_7
REMARK    4  A    between atoms: C_8  and  S_9
REMARK    5  A    between atoms: S_9  and  C_10
REMARK    6  A    between atoms: C_10  and  C_11
REMARK    7  A    between atoms: C_11  and  O_13
REMARK    8  A    between atoms: O_13  and  C_14
REMARK    9  A    between atoms: C_14  and  C_15
REMARK   10  A    between atoms: C_16  and  C_26
REMARK   11  A    between atoms: C_18  and  C_20
REMARK                            x       y       z     vdW  Elec       q    Type
REMARK                         _______ _______ _______ _____ _____    ______ ____
ROOT
ATOM      1  O   UNL     1       2.978   1.078  -6.744  0.00  0.00    -0.458 OA
ENDROOT
BRANCH   1   2
ATOM      2  C   UNL     1       2.871   0.654  -5.474  0.00  0.00    +0.317 C 
ATOM      3  O   UNL     1       3.866   0.449  -4.821  0.00  0.00    -0.250 OA
BRANCH   2   4
ATOM      4  C   UNL     1       1.510   0.435  -4.865  0.00  0.00    +0.189 C 
BRANCH   4   5
ATOM      5  S   UNL     1       1.699  -0.133  -3.152  0.00  0.00    -0.145 S 
BRANCH   5   6
ATOM      6  C   UNL     1      -0.005  -0.348  -2.571  0.00  0.00    +0.110 C 
BRANCH   6   9
ATOM      7  C   UNL     1      -0.018   1.503   0.010  0.00  0.00    +0.069 C 
ATOM      8  C   UNL     1       0.002  -0.004   0.002  0.00  0.00    +0.085 A 
ATOM      9  C   UNL     1       0.008  -0.824  -1.141  0.00  0.00    +0.027 A 
ATOM     10  C   UNL     1       0.027  -2.108  -0.735  0.00  0.00    +0.138 A 
ATOM     11  O   UNL     1       0.034  -2.119   0.606  0.00  0.00    -0.359 OA
ATOM     12  N   UNL     1       0.023  -0.775   1.052  0.00  0.00    -0.083 NA
ATOM     13  C   UNL     1       0.039  -3.320  -1.631  0.00  0.00    +0.089 C 
ENDBRANCH   6   9
ENDBRANCH   5   6
ENDBRANCH   4   5
ENDBRANCH   2   4
ENDBRANCH   1   2
BRANCH   1  14
ATOM     14  C   UNL     1       4.298   1.265  -7.256  0.00  0.00    +0.291 C 
BRANCH  14  15
ATOM     15  C   UNL     1       4.220   1.740  -8.685  0.00  0.00    +0.120 A 
ATOM     16  C   UNL     1       4.186   0.957  -9.779  0.00  0.00    +0.129 A 
ATOM     17  O   UNL     1       4.117   1.771 -10.851  0.00  0.00    -0.440 OA
ATOM     18  C   UNL     1       4.109   3.038 -10.402  0.00  0.00    +0.228 A 
ATOM     19  N   UNL     1       4.166   3.017  -9.091  0.00  0.00    -0.210 NA
ATOM     20  C   UNL     1       4.220  -0.549  -9.802  0.00  0.00    +0.088 C 
BRANCH  18  21
ATOM     21  C   UNL     1       4.042   4.252 -11.243  0.00  0.00    +0.037 A 
ATOM     22  C   UNL     1       4.048   5.516 -10.652  0.00  0.00    +0.013 A 
ATOM     23  C   UNL     1       3.986   6.645 -11.443  0.00  0.00    +0.001 A 
ATOM     24  C   UNL     1       3.918   6.525 -12.819  0.00  0.00    +0.000 A 
ATOM     25  C   UNL     1       3.913   5.275 -13.412  0.00  0.00    +0.001 A 
ATOM     26  C   UNL     1       3.979   4.139 -12.633  0.00  0.00    +0.013 A 
ENDBRANCH  18  21
ENDBRANCH  14  15
ENDBRANCH   1  14
TORSDOF 8
