REMARK  Name = ZINC39467226
REMARK  6 active torsions:
REMARK  status: ('A' for Active; 'I' for Inactive)
REMARK    1  A    between atoms: C_1  and  S_2
REMARK    2  A    between atoms: S_2  and  C_3
REMARK    3  A    between atoms: P_12  and  C_28
REMARK    4  A    between atoms: C_20  and  C_21
REMARK    5  A    between atoms: C_21  and  C_22
REMARK    6  A    between atoms: C_33  and  O_34
REMARK                            x       y       z     vdW  Elec       q    Type
REMARK                         _______ _______ _______ _____ _____    ______ ____
ROOT
ATOM      1  C   UNL     1       0.877  -0.427   1.472  0.00  0.00    +0.007 C 
ATOM      2  C   UNL     1       1.335   0.537   2.286  0.00  0.00    -0.008 C 
ATOM      3  C   UNL     1       2.065   0.137   3.539  0.00  0.00    +0.017 C 
ATOM      4  C   UNL     1       2.020   1.240   4.591  0.00  0.00    -0.003 C 
ATOM      5  C   UNL     1       2.744   0.766   5.860  0.00  0.00    -0.020 C 
ATOM      6  C   UNL     1       2.649   1.900   6.888  0.00  0.00    +0.157 C 
ATOM      7  O   UNL     1       3.391   1.537   8.068  0.00  0.00    -0.316 OA
ATOM      8  P   UNL     1       3.099   0.077   8.726  0.00  0.00    +0.291 P 
ATOM      9  O   UNL     1       1.875   0.125   9.557  0.00  0.00    -0.269 OA
ATOM     10  N   UNL     1       2.881  -0.941   7.445  0.00  0.00    -0.288 NA
ATOM     11  N   UNL     1       2.142  -0.460   6.383  0.00  0.00    +0.398 N 
ATOM     12  C   UNL     1       2.148  -1.536   5.376  0.00  0.00    -0.046 C 
ATOM     13  C   UNL     1       1.388  -1.107   4.129  0.00  0.00    +0.005 C 
ATOM     14  C   UNL     1       1.350  -2.185   3.082  0.00  0.00    -0.020 C 
ATOM     15  C   UNL     1       1.105  -1.844   1.819  0.00  0.00    -0.034 C 
ATOM     16  H   UNL     1       3.251  -1.838   7.448  0.00  0.00    +0.111 HD
ATOM     17  H   UNL     1       1.194  -0.273   6.673  0.00  0.00    -0.055 HD
ENDROOT
BRANCH   8  18
ATOM     18  C   UNL     1       4.516  -0.456   9.725  0.00  0.00    +0.091 A 
ATOM     19  C   UNL     1       5.537  -1.184   9.143  0.00  0.00    +0.018 A 
ATOM     20  C   UNL     1       6.617  -1.592   9.904  0.00  0.00    +0.001 A 
ATOM     21  C   UNL     1       6.678  -1.272  11.248  0.00  0.00    +0.004 A 
ATOM     22  C   UNL     1       5.661  -0.544  11.834  0.00  0.00    +0.046 A 
ATOM     23  C   UNL     1       4.578  -0.130  11.071  0.00  0.00    +0.131 A 
BRANCH  23  24
ATOM     24  O   UNL     1       3.578   0.591  11.644  0.00  0.00    -0.506 OA
ATOM     25  H   UNL     1       2.865   0.051  12.011  0.00  0.00    +0.292 HD
ENDBRANCH  23  24
ENDBRANCH   8  18
BRANCH   1  27
ATOM     26  C   UNL     1      -0.022   1.810   0.012  0.00  0.00    +0.090 C 
ATOM     27  S   UNL     1       0.002  -0.004   0.002  0.00  0.00    -0.129 S 
ENDBRANCH   1  27
BRANCH  15  28
ATOM     28  C   UNL     1       1.067  -2.902   0.747  0.00  0.00    +0.071 C 
BRANCH  28  29
ATOM     29  C   UNL     1      -0.358  -3.338   0.522  0.00  0.00    -0.043 A 
ATOM     30  C   UNL     1      -0.884  -4.385   1.257  0.00  0.00    +0.004 A 
ATOM     31  C   UNL     1      -2.191  -4.785   1.051  0.00  0.00    +0.000 A 
ATOM     32  C   UNL     1      -2.972  -4.138   0.111  0.00  0.00    +0.000 A 
ATOM     33  C   UNL     1      -2.446  -3.092  -0.623  0.00  0.00    +0.000 A 
ATOM     34  C   UNL     1      -1.140  -2.689  -0.414  0.00  0.00    +0.004 A 
ENDBRANCH  28  29
ENDBRANCH  15  28
TORSDOF 5
