REMARK  Name = ZINC04230236
REMARK  7 active torsions:
REMARK  status: ('A' for Active; 'I' for Inactive)
REMARK    1  A    between atoms: C_4  and  C_31
REMARK    2  A    between atoms: C_5  and  C_7
REMARK    3  A    between atoms: N_8  and  N_9
REMARK    4  A    between atoms: C_10  and  C_12
REMARK    5  A    between atoms: N_14  and  C_15
REMARK    6  A    between atoms: C_20  and  C_21
REMARK    7  A    between atoms: N_23  and  C_24
REMARK                            x       y       z     vdW  Elec       q    Type
REMARK                         _______ _______ _______ _____ _____    ______ ____
ROOT
ATOM      1  C   UNL     1      -7.376   0.987  -0.519  0.00  0.00    +0.305 C 
ATOM      2  O   UNL     1      -7.436  -0.090  -1.075  0.00  0.00    -0.265 OA
ATOM      3  N   UNL     1      -8.473   1.504   0.070  0.00  0.00    -0.277 N 
ATOM      4  H   UNL     1      -8.409   2.333   0.570  0.00  0.00    +0.155 HD
ENDROOT
BRANCH   3   5
ATOM      5  C   UNL     1      -9.695   0.848  -0.037  0.00  0.00    +0.046 A 
ATOM      6  C   UNL     1      -9.742  -0.540  -0.055  0.00  0.00    +0.024 A 
ATOM      7  C   UNL     1     -10.957  -1.189  -0.157  0.00  0.00    +0.002 A 
ATOM      8  C   UNL     1     -12.133  -0.464  -0.252  0.00  0.00    +0.001 A 
ATOM      9  C   UNL     1     -12.105   0.914  -0.242  0.00  0.00    +0.015 A 
ATOM     10  C   UNL     1     -10.885   1.585  -0.134  0.00  0.00    +0.058 A 
BRANCH  10  11
ATOM     11  C   UNL     1     -10.847   3.059  -0.123  0.00  0.00    +0.250 C 
ATOM     12  O   UNL     1      -9.779   3.640  -0.128  0.00  0.00    -0.270 OA
ATOM     13  N   UNL     1     -11.996   3.763  -0.107  0.00  0.00    -0.281 N 
ATOM     14  H   UNL     1     -12.848   3.302  -0.170  0.00  0.00    +0.155 HD
BRANCH  13  15
ATOM     15  C   UNL     1     -11.962   5.157  -0.001  0.00  0.00    +0.034 A 
ATOM     16  C   UNL     1     -12.953   5.826   0.706  0.00  0.00    +0.025 A 
ATOM     17  C   UNL     1     -12.913   7.202   0.814  0.00  0.00    +0.022 A 
ATOM     18  C   UNL     1     -11.894   7.916   0.209  0.00  0.00    +0.041 A 
ATOM     19  C   UNL     1     -10.908   7.253  -0.502  0.00  0.00    +0.022 A 
ATOM     20  C   UNL     1     -10.940   5.876  -0.608  0.00  0.00    +0.025 A 
ATOM     21 CL   UNL     1     -11.851   9.646   0.340  0.00  0.00    -0.084 Cl
ENDBRANCH  13  15
ENDBRANCH  10  11
ENDBRANCH   3   5
BRANCH   1  23
ATOM     22  N   UNL     1      -4.993   1.224  -1.079  0.00  0.00    -0.199 N 
ATOM     23  C   UNL     1      -6.089   1.740  -0.490  0.00  0.00    +0.318 C 
ATOM     24  O   UNL     1      -6.029   2.818   0.066  0.00  0.00    -0.263 OA
ATOM     25  H   UNL     1      -5.041   0.362  -1.523  0.00  0.00    +0.178 HD
BRANCH  22  27
ATOM     26  C   UNL     1      -2.727   1.433  -1.620  0.00  0.00    +0.138 C 
ATOM     27  N   UNL     1      -3.784   1.931  -1.052  0.00  0.00    -0.187 NA
BRANCH  26  32
ATOM     28  C   UNL     1       0.869   2.349  -2.175  0.00  0.00    +0.001 A 
ATOM     29  C   UNL     1       0.934   3.578  -1.542  0.00  0.00    +0.001 A 
ATOM     30  C   UNL     1      -0.188   4.109  -0.930  0.00  0.00    +0.013 A 
ATOM     31  C   UNL     1      -1.380   3.415  -0.947  0.00  0.00    +0.063 A 
ATOM     32  C   UNL     1      -1.455   2.177  -1.591  0.00  0.00    +0.006 A 
ATOM     33  C   UNL     1      -0.316   1.645  -2.201  0.00  0.00    +0.010 A 
BRANCH  31  34
ATOM     34  C   UNL     1      -2.601   3.994  -0.281  0.00  0.00    +0.418 C 
ATOM     35  F   UNL     1      -2.280   5.234   0.283  0.00  0.00    -0.166 F 
ATOM     36  F   UNL     1      -3.615   4.162  -1.229  0.00  0.00    -0.166 F 
ATOM     37  F   UNL     1      -3.041   3.125   0.724  0.00  0.00    -0.166 F 
ENDBRANCH  31  34
ENDBRANCH  26  32
ENDBRANCH  22  27
ENDBRANCH   1  23
TORSDOF 7
