REMARK  Name = ZINC11951729
REMARK  12 active torsions:
REMARK  status: ('A' for Active; 'I' for Inactive)
REMARK    1  A    between atoms: C_1  and  N_64
REMARK    2  A    between atoms: C_2  and  C_3
REMARK    3  A    between atoms: C_2  and  N_64
REMARK    4  A    between atoms: C_3  and  C_5
REMARK    5  A    between atoms: C_3  and  O_23
REMARK    6  A    between atoms: C_5  and  O_6
REMARK    7  A    between atoms: O_6  and  C_7
REMARK    8  A    between atoms: C_12  and  C_13
REMARK    9  A    between atoms: C_13  and  N_66
REMARK   10  A    between atoms: C_14  and  C_17
REMARK   11  A    between atoms: C_14  and  N_66
REMARK   12  A    between atoms: C_24  and  N_64
REMARK                            x       y       z     vdW  Elec       q    Type
REMARK                         _______ _______ _______ _____ _____    ______ ____
ROOT
ATOM      1  C   UNL     1       4.073  -1.338  -1.232  0.00  0.00    +0.122 A 
ATOM      2  C   UNL     1       5.319  -1.941  -1.139  0.00  0.00    +0.046 A 
ATOM      3  C   UNL     1       6.200  -1.554  -0.149  0.00  0.00    +0.004 A 
ATOM      4  C   UNL     1       5.843  -0.565   0.749  0.00  0.00    +0.000 A 
ATOM      5  C   UNL     1       4.604   0.042   0.655  0.00  0.00    +0.005 A 
ATOM      6  C   UNL     1       3.716  -0.346  -0.330  0.00  0.00    -0.023 A 
ENDROOT
BRANCH   1   7
ATOM      7  O   UNL     1       3.203  -1.717  -2.205  0.00  0.00    -0.489 OA
BRANCH   7   8
ATOM      8  C   UNL     1       3.638  -2.744  -3.099  0.00  0.00    +0.258 C 
BRANCH   8   9
ATOM      9  C   UNL     1       2.534  -3.035  -4.117  0.00  0.00    +0.135 C 
BRANCH   9  10
ATOM     10  O   UNL     1       1.395  -3.576  -3.445  0.00  0.00    -0.390 OA
ATOM     11  H   UNL     1       1.573  -4.401  -2.973  0.00  0.00    +0.210 HD
ENDBRANCH   9  10
BRANCH   9  12
ATOM     12  C   UNL     1       3.044  -4.043  -5.149  0.00  0.00    -0.044 C 
BRANCH  12  14
ATOM     13  C   UNL     1       1.840  -3.000  -6.972  0.00  0.00    -0.096 C 
ATOM     14  N   UNL     1       2.004  -4.238  -6.180  0.00  0.00    +0.381 N 
ATOM     15  H   UNL     1       1.113  -4.458  -5.719  0.00  0.00    -0.082 HD
BRANCH  14  16
ATOM     16  C   UNL     1       2.376  -5.360  -7.068  0.00  0.00    -0.069 C 
ATOM     17  C   UNL     1       3.661  -5.036  -7.832  0.00  0.00    -0.015 C 
ATOM     18  C   UNL     1       4.022  -6.211  -8.743  0.00  0.00    -0.002 C 
ATOM     19  C   UNL     1       2.885  -6.454  -9.737  0.00  0.00    -0.000 C 
ATOM     20  C   UNL     1       1.600  -6.778  -8.973  0.00  0.00    -0.002 C 
ATOM     21  C   UNL     1       1.238  -5.603  -8.062  0.00  0.00    -0.015 C 
ENDBRANCH  14  16
ENDBRANCH  12  14
ENDBRANCH   9  12
ENDBRANCH   8   9
ENDBRANCH   7   8
ENDBRANCH   1   7
BRANCH   6  22
ATOM     22  C   UNL     1       2.364   0.312  -0.428  0.00  0.00    -0.042 C 
BRANCH  22  23
ATOM     23  N   UNL     1       1.353  -0.567   0.189  0.00  0.00    +0.388 N 
ATOM     24  H   UNL     1       1.547  -0.654   1.194  0.00  0.00    -0.084 HD
ATOM     25  H   UNL     1       1.397  -1.494  -0.249  0.00  0.00    -0.084 HD
BRANCH  23  26
ATOM     26  C   UNL     1       0.002  -0.004   0.002  0.00  0.00    -0.042 C 
ATOM     27  C   UNL     1      -0.129   1.516  -0.106  0.00  0.00    -0.009 C 
ATOM     28  C   UNL     1      -0.320   0.641  -1.348  0.00  0.00    -0.009 C 
BRANCH  26  29
ATOM     29  C   UNL     1      -1.107  -0.750   0.698  0.00  0.00    -0.058 A 
ATOM     30  C   UNL     1      -2.409  -0.297   0.606  0.00  0.00    +0.002 A 
ATOM     31  C   UNL     1      -3.427  -0.985   1.240  0.00  0.00    +0.000 A 
ATOM     32  C   UNL     1      -3.140  -2.119   1.977  0.00  0.00    +0.000 A 
ATOM     33  C   UNL     1      -1.837  -2.569   2.074  0.00  0.00    +0.000 A 
ATOM     34  C   UNL     1      -0.820  -1.885   1.435  0.00  0.00    +0.002 A 
ENDBRANCH  26  29
ENDBRANCH  23  26
ENDBRANCH  22  23
ENDBRANCH   6  22
TORSDOF 11
