REMARK  Name = ZINC39669738
REMARK  9 active torsions:
REMARK  status: ('A' for Active; 'I' for Inactive)
REMARK    1  A    between atoms: C_1  and  C_2
REMARK    2  A    between atoms: C_2  and  C_3
REMARK    3  A    between atoms: C_2  and  C_4
REMARK    4  A    between atoms: C_2  and  N_34
REMARK    5  A    between atoms: C_4  and  N_5
REMARK    6  A    between atoms: C_6  and  C_8
REMARK    7  A    between atoms: C_19  and  C_21
REMARK    8  A    between atoms: C_26  and  S_27
REMARK    9  A    between atoms: S_27  and  C_28
REMARK                            x       y       z     vdW  Elec       q    Type
REMARK                         _______ _______ _______ _____ _____    ______ ____
ROOT
ATOM      1  C   UNL     1      -2.130  -4.691   1.519  0.00  0.00    +0.100 C 
ATOM      2  C   UNL     1      -1.324  -5.171   0.291  0.00  0.00    +0.121 C 
ATOM      3  N   UNL     1      -2.051  -6.370  -0.188  0.00  0.00    -0.296 N 
ATOM      4  C   UNL     1      -3.483  -6.021  -0.029  0.00  0.00    +0.115 C 
ATOM      5  C   UNL     1      -3.547  -5.249   1.304  0.00  0.00    -0.004 C 
ATOM      6  C   UNL     1      -4.556  -4.109   1.205  0.00  0.00    -0.010 C 
ATOM      7  C   UNL     1      -5.964  -4.690   1.051  0.00  0.00    -0.082 C 
ATOM      8  N   UNL     1      -6.272  -5.544   2.204  0.00  0.00    +0.379 N 
ATOM      9  C   UNL     1      -5.355  -6.690   2.238  0.00  0.00    -0.082 C 
ATOM     10  C   UNL     1      -3.921  -6.193   2.443  0.00  0.00    -0.010 C 
ATOM     11  C   UNL     1      -1.529  -7.519  -0.661  0.00  0.00    +0.249 C 
ATOM     12  O   UNL     1      -2.261  -8.381  -1.108  0.00  0.00    -0.270 OA
ATOM     13  H   UNL     1      -6.171  -5.009   3.054  0.00  0.00    -0.086 HD
ATOM     14  H   UNL     1      -7.221  -5.877   2.131  0.00  0.00    -0.086 HD
ENDROOT
BRANCH  11  15
ATOM     15  C   UNL     1      -0.070  -7.730  -0.637  0.00  0.00    +0.069 A 
ATOM     16  C   UNL     1       0.808  -6.662  -0.853  0.00  0.00    +0.017 A 
ATOM     17  C   UNL     1       2.168  -6.913  -0.820  0.00  0.00    +0.020 A 
ATOM     18  C   UNL     1       2.619  -8.199  -0.576  0.00  0.00    +0.112 A 
ATOM     19  N   UNL     1       1.776  -9.192  -0.375  0.00  0.00    -0.248 NA
ATOM     20  C   UNL     1       0.464  -9.007  -0.391  0.00  0.00    +0.114 A 
BRANCH  20  21
ATOM     21  S   UNL     1      -0.617 -10.370  -0.108  0.00  0.00    -0.069 S 
BRANCH  21  22
ATOM     22  C   UNL     1       0.469 -11.698   0.295  0.00  0.00    +0.014 A 
ATOM     23  C   UNL     1       0.753 -11.986   1.624  0.00  0.00    +0.015 A 
ATOM     24  C   UNL     1       1.604 -13.028   1.937  0.00  0.00    +0.001 A 
ATOM     25  C   UNL     1       2.173 -13.784   0.928  0.00  0.00    +0.000 A 
ATOM     26  C   UNL     1       1.893 -13.500  -0.396  0.00  0.00    +0.001 A 
ATOM     27  C   UNL     1       1.038 -12.463  -0.715  0.00  0.00    +0.015 A 
ENDBRANCH  21  22
ENDBRANCH  20  21
ENDBRANCH  11  15
BRANCH   1  29
ATOM     28  N   UNL     1      -2.293  -2.552   2.751  0.00  0.00    -0.313 N 
ATOM     29  C   UNL     1      -2.162  -3.185   1.569  0.00  0.00    +0.218 C 
ATOM     30  O   UNL     1      -2.070  -2.542   0.544  0.00  0.00    -0.275 OA
ATOM     31  H   UNL     1      -2.367  -3.066   3.571  0.00  0.00    +0.149 HD
BRANCH  28  32
ATOM     32  C   UNL     1      -2.324  -1.088   2.800  0.00  0.00    +0.126 C 
BRANCH  32  34
ATOM     33  C   UNL     1      -1.079  -1.049   4.966  0.00  0.00    +0.029 C 
ATOM     34  C   UNL     1      -2.368  -0.627   4.258  0.00  0.00    +0.032 C 
ATOM     35  C   UNL     1      -2.502   0.896   4.307  0.00  0.00    +0.029 C 
BRANCH  34  36
ATOM     36  N   UNL     1      -3.520  -1.241   4.931  0.00  0.00    -0.291 NA
ATOM     37  C   UNL     1      -4.778  -0.869   4.268  0.00  0.00    +0.113 C 
ATOM     38  C   UNL     1      -5.944  -1.577   4.963  0.00  0.00    +0.175 C 
ATOM     39  O   UNL     1      -5.943  -1.235   6.351  0.00  0.00    -0.377 OA
ATOM     40  C   UNL     1      -4.733  -1.584   7.029  0.00  0.00    +0.175 C 
ATOM     41  C   UNL     1      -3.555  -0.876   6.355  0.00  0.00    +0.113 C 
ENDBRANCH  34  36
ENDBRANCH  32  34
ENDBRANCH  28  32
ENDBRANCH   1  29
TORSDOF 7
