REMARK  Name = ZINC12551532
REMARK  7 active torsions:
REMARK  status: ('A' for Active; 'I' for Inactive)
REMARK    1  A    between atoms: C_1  and  C_2
REMARK    2  A    between atoms: C_4  and  N_23
REMARK    3  A    between atoms: C_6  and  C_7
REMARK    4  A    between atoms: N_9  and  C_10
REMARK    5  A    between atoms: C_10  and  C_12
REMARK    6  A    between atoms: C_10  and  C_13
REMARK    7  A    between atoms: C_24  and  C_26
REMARK                            x       y       z     vdW  Elec       q    Type
REMARK                         _______ _______ _______ _____ _____    ______ ____
ROOT
ATOM      1  C   UNL     1      -0.014   1.214   0.009  0.00  0.00    +0.252 C 
ATOM      2  O   UNL     1       0.002  -0.004   0.002  0.00  0.00    -0.270 OA
ATOM      3  N   UNL     1      -1.191   1.871   0.018  0.00  0.00    -0.301 N 
ATOM      4  H   UNL     1      -1.204   2.841   0.023  0.00  0.00    +0.150 HD
ENDROOT
BRANCH   1  10
ATOM      5  C   UNL     1       2.832   0.001  -0.012  0.00  0.00    +0.045 C 
ATOM      6  C   UNL     1       2.543   1.480  -0.009  0.00  0.00    -0.029 A 
ATOM      7  C   UNL     1       3.553   2.404  -0.019  0.00  0.00    +0.035 A 
ATOM      8  C   UNL     1       3.228   3.744  -0.009  0.00  0.00    +0.073 A 
ATOM      9  S   UNL     1       1.494   3.727   0.008  0.00  0.00    -0.069 S 
ATOM     10  C   UNL     1       1.241   1.961   0.001  0.00  0.00    +0.078 A 
BRANCH   8  11
ATOM     11  N   UNL     1       4.080   4.839  -0.010  0.00  0.00    -0.273 N 
ATOM     12  C   UNL     1       3.573   6.088   0.003  0.00  0.00    +0.284 C 
ATOM     13  O   UNL     1       2.368   6.255   0.015  0.00  0.00    -0.266 OA
ATOM     14  H   UNL     1       5.041   4.705  -0.020  0.00  0.00    +0.156 HD
BRANCH  12  15
ATOM     15  C   UNL     1       4.474   7.244   0.001  0.00  0.00    +0.189 A 
ATOM     16  C   UNL     1       4.095   8.556   0.013  0.00  0.00    +0.054 A 
ATOM     17  C   UNL     1       5.274   9.317   0.007  0.00  0.00    +0.042 A 
ATOM     18  C   UNL     1       6.309   8.447  -0.008  0.00  0.00    +0.196 A 
ATOM     19  O   UNL     1       5.822   7.199  -0.006  0.00  0.00    -0.458 OA
ENDBRANCH  12  15
ENDBRANCH   8  11
ENDBRANCH   1  10
BRANCH   3  20
ATOM     20  C   UNL     1      -2.449   1.122   0.020  0.00  0.00    +0.136 C 
ATOM     21  C   UNL     1      -2.830   0.761  -1.417  0.00  0.00    +0.036 C 
BRANCH  20  22
ATOM     22  C   UNL     1      -3.537   1.968   0.630  0.00  0.00    +0.128 A 
ATOM     23  N   UNL     1      -4.659   1.483   1.228  0.00  0.00    -0.340 N 
ATOM     24  H   UNL     1      -4.902   0.519   1.337  0.00  0.00    +0.167 HD
ATOM     25  C   UNL     1      -5.398   2.567   1.655  0.00  0.00    +0.066 A 
ATOM     26  C   UNL     1      -6.610   2.711   2.317  0.00  0.00    +0.028 A 
ATOM     27  C   UNL     1      -7.085   3.973   2.606  0.00  0.00    +0.002 A 
ATOM     28  C   UNL     1      -6.360   5.098   2.239  0.00  0.00    +0.002 A 
ATOM     29  C   UNL     1      -5.166   4.976   1.587  0.00  0.00    +0.030 A 
ATOM     30  C   UNL     1      -4.665   3.707   1.284  0.00  0.00    +0.089 A 
ATOM     31  N   UNL     1      -3.538   3.268   0.667  0.00  0.00    -0.231 NA
ENDBRANCH  20  22
ENDBRANCH   3  20
TORSDOF 5
