REMARK  Name = ZINC04045956
REMARK  10 active torsions:
REMARK  status: ('A' for Active; 'I' for Inactive)
REMARK    1  A    between atoms: C_1  and  N_55
REMARK    2  A    between atoms: C_8  and  O_25
REMARK    3  A    between atoms: C_10  and  C_12
REMARK    4  A    between atoms: C_12  and  C_13
REMARK    5  A    between atoms: C_13  and  C_16
REMARK    6  A    between atoms: N_14  and  O_15
REMARK    7  A    between atoms: C_16  and  C_17
REMARK    8  A    between atoms: C_22  and  O_23
REMARK    9  A    between atoms: O_23  and  C_24
REMARK   10  A    between atoms: O_25  and  C_26
REMARK                            x       y       z     vdW  Elec       q    Type
REMARK                         _______ _______ _______ _____ _____    ______ ____
ROOT
ATOM      1  C   UNL     1       0.807  -0.659   3.387  0.00  0.00    -0.095 C 
ATOM      2  C   UNL     1       1.743  -1.525   5.448  0.00  0.00    -0.074 C 
ATOM      3  C   UNL     1       1.336  -2.245   6.734  0.00  0.00    +0.017 C 
ATOM      4  C   UNL     1       0.400  -1.378   7.535  0.00  0.00    -0.040 A 
ATOM      5  C   UNL     1       0.197  -1.686   8.872  0.00  0.00    +0.053 A 
ATOM      6  C   UNL     1      -0.659  -0.923   9.648  0.00  0.00    +0.170 A 
ATOM      7  C   UNL     1      -1.321   0.161   9.081  0.00  0.00    +0.208 A 
ATOM      8  C   UNL     1      -1.116   0.468   7.744  0.00  0.00    +0.167 A 
ATOM      9  C   UNL     1      -0.253  -0.303   6.970  0.00  0.00    -0.012 A 
ATOM     10  C   UNL     1      -0.060   0.072   5.524  0.00  0.00    -0.028 C 
ATOM     11  O   UNL     1      -2.100   0.746  10.038  0.00  0.00    -0.449 OA
ATOM     12  C   UNL     1      -1.595   0.259  11.295  0.00  0.00    +0.467 C 
ATOM     13  O   UNL     1      -1.021  -1.018  10.961  0.00  0.00    -0.452 OA
ATOM     14  N   UNL     1       0.509  -1.063   4.779  0.00  0.00    +0.383 N 
ATOM     15  H   UNL     1      -0.173  -1.831   4.765  0.00  0.00    -0.081 HD
ENDROOT
BRANCH   8  16
ATOM     16  O   UNL     1      -1.761   1.527   7.186  0.00  0.00    -0.491 OA
ATOM     17  C   UNL     1      -1.167   2.814   7.361  0.00  0.00    +0.277 C 
ENDBRANCH   8  16
BRANCH  10  18
ATOM     18  C   UNL     1      -1.415   0.435   4.912  0.00  0.00    +0.044 C 
BRANCH  18  19
ATOM     19  C   UNL     1      -2.389  -0.691   5.143  0.00  0.00    +0.061 C 
ATOM     20  N   UNL     1      -2.009  -1.750   5.752  0.00  0.00    -0.096 NA
BRANCH  20  21
ATOM     21  O   UNL     1      -2.885  -2.858   5.860  0.00  0.00    -0.409 OA
ATOM     22  H   UNL     1      -2.509  -3.611   6.337  0.00  0.00    +0.328 HD
ENDBRANCH  20  21
BRANCH  19  23
ATOM     23  C   UNL     1      -3.810  -0.570   4.658  0.00  0.00    +0.093 C 
BRANCH  23  24
ATOM     24  C   UNL     1      -4.675  -0.029   5.767  0.00  0.00    -0.000 A 
ATOM     25  C   UNL     1      -5.372  -0.896   6.586  0.00  0.00    +0.007 A 
ATOM     26  C   UNL     1      -6.171  -0.400   7.600  0.00  0.00    +0.001 A 
ATOM     27  C   UNL     1      -6.269   0.964   7.800  0.00  0.00    +0.004 A 
ATOM     28  C   UNL     1      -5.571   1.835   6.988  0.00  0.00    +0.046 A 
ATOM     29  C   UNL     1      -4.769   1.340   5.969  0.00  0.00    +0.124 A 
BRANCH  29  30
ATOM     30  O   UNL     1      -4.080   2.195   5.168  0.00  0.00    -0.495 OA
ATOM     31  C   UNL     1      -4.228   3.592   5.431  0.00  0.00    +0.277 C 
ENDBRANCH  29  30
ENDBRANCH  23  24
ENDBRANCH  19  23
ENDBRANCH  18  19
ENDBRANCH  10  18
TORSDOF 7
