REMARK  Name = ZINC39635864
REMARK  10 active torsions:
REMARK  status: ('A' for Active; 'I' for Inactive)
REMARK    1  A    between atoms: C_1  and  C_2
REMARK    2  A    between atoms: C_8  and  N_10
REMARK    3  A    between atoms: C_11  and  C_13
REMARK    4  A    between atoms: C_24  and  C_26
REMARK    5  A    between atoms: C_28  and  O_36
REMARK    6  A    between atoms: C_29  and  O_34
REMARK    7  A    between atoms: C_30  and  O_32
REMARK    8  A    between atoms: O_32  and  C_33
REMARK    9  A    between atoms: O_34  and  C_35
REMARK   10  A    between atoms: O_36  and  C_37
REMARK                            x       y       z     vdW  Elec       q    Type
REMARK                         _______ _______ _______ _____ _____    ______ ____
ROOT
ATOM      1  C   UNL     1       0.440   1.005   4.492  0.00  0.00    +0.100 C 
ATOM      2  C   UNL     1      -0.263   2.381   4.508  0.00  0.00    +0.121 C 
ATOM      3  N   UNL     1      -0.066   2.886   5.887  0.00  0.00    -0.296 N 
ATOM      4  C   UNL     1       1.320   2.488   6.231  0.00  0.00    +0.115 C 
ATOM      5  C   UNL     1       1.479   1.079   5.623  0.00  0.00    -0.004 C 
ATOM      6  C   UNL     1       1.189   0.015   6.677  0.00  0.00    -0.010 C 
ATOM      7  C   UNL     1       2.268   0.071   7.763  0.00  0.00    -0.082 C 
ATOM      8  N   UNL     1       3.586  -0.156   7.157  0.00  0.00    +0.379 N 
ATOM      9  C   UNL     1       3.896   0.923   6.213  0.00  0.00    -0.082 C 
ATOM     10  C   UNL     1       2.886   0.903   5.062  0.00  0.00    -0.010 C 
ATOM     11  C   UNL     1      -0.947   3.557   6.655  0.00  0.00    +0.247 C 
ATOM     12  O   UNL     1      -2.095   3.700   6.280  0.00  0.00    -0.270 OA
ATOM     13  H   UNL     1       4.288  -0.179   7.882  0.00  0.00    -0.086 HD
ATOM     14  H   UNL     1       3.582  -1.039   6.668  0.00  0.00    -0.086 HD
ENDROOT
BRANCH  11  15
ATOM     15  C   UNL     1      -0.518   4.119   7.951  0.00  0.00    +0.044 A 
ATOM     16  C   UNL     1       0.836   4.355   8.197  0.00  0.00    +0.062 A 
ATOM     17  C   UNL     1       1.235   4.882   9.412  0.00  0.00    +0.166 A 
ATOM     18  C   UNL     1       0.288   5.176  10.389  0.00  0.00    +0.204 A 
ATOM     19  C   UNL     1      -1.062   4.941  10.146  0.00  0.00    +0.166 A 
ATOM     20  C   UNL     1      -1.467   4.421   8.931  0.00  0.00    +0.062 A 
BRANCH  19  21
ATOM     21  O   UNL     1      -1.985   5.229  11.103  0.00  0.00    -0.491 OA
ATOM     22  C   UNL     1      -3.353   4.963  10.786  0.00  0.00    +0.277 C 
ENDBRANCH  19  21
BRANCH  18  23
ATOM     23  O   UNL     1       0.683   5.694  11.582  0.00  0.00    -0.488 OA
ATOM     24  C   UNL     1       0.751   7.117  11.681  0.00  0.00    +0.277 C 
ENDBRANCH  18  23
BRANCH  17  25
ATOM     25  O   UNL     1       2.554   5.112   9.652  0.00  0.00    -0.491 OA
ATOM     26  C   UNL     1       3.471   4.787   8.606  0.00  0.00    +0.277 C 
ENDBRANCH  17  25
ENDBRANCH  11  15
BRANCH   1  28
ATOM     27  N   UNL     1       1.260  -0.470   2.684  0.00  0.00    -0.312 N 
ATOM     28  C   UNL     1       1.122   0.780   3.167  0.00  0.00    +0.218 C 
ATOM     29  O   UNL     1       1.548   1.724   2.536  0.00  0.00    -0.275 OA
ATOM     30  H   UNL     1       0.919  -1.226   3.188  0.00  0.00    +0.149 HD
BRANCH  27  37
ATOM     31  C   UNL     1      -0.084  -1.929   0.573  0.00  0.00    +0.009 C 
ATOM     32  C   UNL     1       1.429  -2.002   0.785  0.00  0.00    +0.006 C 
ATOM     33  C   UNL     1       2.122  -2.231  -0.560  0.00  0.00    +0.005 C 
ATOM     34  C   UNL     1       3.635  -2.304  -0.348  0.00  0.00    +0.000 C 
ATOM     35  C   UNL     1       4.129  -0.991   0.263  0.00  0.00    +0.002 C 
ATOM     36  C   UNL     1       3.436  -0.762   1.608  0.00  0.00    +0.022 C 
ATOM     37  C   UNL     1       1.923  -0.689   1.396  0.00  0.00    +0.076 C 
ENDBRANCH  27  37
ENDBRANCH   1  28
TORSDOF 6
