REMARK  Name = ZINC14120184
REMARK  8 active torsions:
REMARK  status: ('A' for Active; 'I' for Inactive)
REMARK    1  A    between atoms: C_1  and  C_2
REMARK    2  A    between atoms: C_2  and  C_3
REMARK    3  A    between atoms: C_3  and  C_4
REMARK    4  A    between atoms: C_4  and  N_5
REMARK    5  A    between atoms: C_6  and  N_35
REMARK    6  A    between atoms: C_7  and  N_14
REMARK    7  A    between atoms: N_14  and  C_15
REMARK    8  A    between atoms: C_16  and  C_18
REMARK                            x       y       z     vdW  Elec       q    Type
REMARK                         _______ _______ _______ _____ _____    ______ ____
ROOT
ATOM      1  N   UNL     1      -0.019   0.126  -0.444  0.00  0.00    -0.263 N 
ATOM      2  C   UNL     1       1.204  -0.632  -0.720  0.00  0.00    +0.139 C 
ATOM      3  C   UNL     1       0.058   1.338   0.140  0.00  0.00    +0.251 C 
ATOM      4  O   UNL     1       1.132   1.765   0.517  0.00  0.00    -0.270 OA
ENDROOT
BRANCH   3   5
ATOM      5  C   UNL     1      -1.166   2.153   0.317  0.00  0.00    +0.039 A 
ATOM      6  C   UNL     1      -2.407   1.518   0.460  0.00  0.00    +0.014 A 
ATOM      7  C   UNL     1      -3.545   2.250   0.636  0.00  0.00    +0.016 A 
ATOM      8  C   UNL     1      -3.475   3.642   0.660  0.00  0.00    +0.065 A 
ATOM      9  C   UNL     1      -2.236   4.298   0.499  0.00  0.00    +0.079 A 
ATOM     10  C   UNL     1      -1.076   3.538   0.338  0.00  0.00    +0.041 A 
ATOM     11  N   UNL     1      -2.218   5.648   0.474  0.00  0.00    -0.233 NA
ATOM     12  C   UNL     1      -3.310   6.370   0.532  0.00  0.00    +0.113 A 
ATOM     13  N   UNL     1      -4.527   5.823   0.746  0.00  0.00    -0.296 N 
ATOM     14  C   UNL     1      -4.667   4.479   0.851  0.00  0.00    +0.262 A 
ATOM     15  O   UNL     1      -5.756   3.986   1.090  0.00  0.00    -0.267 OA
ATOM     16  C   UNL     1      -5.755   6.628   0.890  0.00  0.00    +0.126 C 
ATOM     17  C   UNL     1      -6.156   7.152  -0.493  0.00  0.00    +0.022 C 
ATOM     18  C   UNL     1      -5.555   8.528  -0.756  0.00  0.00    +0.002 C 
ATOM     19  C   UNL     1      -5.123   9.330   0.459  0.00  0.00    +0.000 C 
ATOM     20  C   UNL     1      -3.968   8.702   1.238  0.00  0.00    +0.008 C 
ATOM     21  C   UNL     1      -3.131   7.842   0.284  0.00  0.00    +0.074 C 
ENDBRANCH   3   5
BRANCH   1  24
ATOM     22  N   UNL     1      -2.952  -2.083  -0.563  0.00  0.00    -0.280 N 
ATOM     23  C   UNL     1      -1.719  -1.585  -0.210  0.00  0.00    +0.127 A 
ATOM     24  C   UNL     1      -1.275  -0.412  -0.788  0.00  0.00    +0.140 A 
ATOM     25  C   UNL     1      -2.097   0.233  -1.732  0.00  0.00    +0.277 A 
ATOM     26  O   UNL     1      -1.727   1.268  -2.261  0.00  0.00    -0.266 OA
ATOM     27  N   UNL     1      -3.293  -0.300  -2.046  0.00  0.00    -0.273 N 
ATOM     28  H   UNL     1      -3.878   0.158  -2.716  0.00  0.00    +0.173 HD
ATOM     29  C   UNL     1      -3.711  -1.441  -1.469  0.00  0.00    +0.331 A 
ATOM     30  O   UNL     1      -4.796  -1.900  -1.771  0.00  0.00    -0.246 OA
BRANCH  23  31
ATOM     31  N   UNL     1      -0.941  -2.244   0.711  0.00  0.00    -0.343 N 
ATOM     32  H   UNL     1      -0.113  -1.845   1.020  0.00  0.00    +0.144 HD
ATOM     33  H   UNL     1      -1.220  -3.108   1.051  0.00  0.00    +0.144 HD
ENDBRANCH  23  31
BRANCH  22  34
ATOM     34  C   UNL     1      -3.438  -3.323   0.047  0.00  0.00    +0.128 C 
BRANCH  34  35
ATOM     35  C   UNL     1      -2.990  -4.517  -0.799  0.00  0.00    +0.021 C 
BRANCH  35  37
ATOM     36  C   UNL     1      -3.049  -7.006  -1.007  0.00  0.00    +0.004 C 
ATOM     37  C   UNL     1      -3.497  -5.812  -0.162  0.00  0.00    -0.002 C 
ENDBRANCH  35  37
ENDBRANCH  34  35
ENDBRANCH  22  34
ENDBRANCH   1  24
TORSDOF 6
