REMARK  Name = ZINC11448894
REMARK  9 active torsions:
REMARK  status: ('A' for Active; 'I' for Inactive)
REMARK    1  A    between atoms: C_1  and  C_2
REMARK    2  A    between atoms: C_5  and  S_9
REMARK    3  A    between atoms: C_7  and  C_8
REMARK    4  A    between atoms: S_9  and  N_12
REMARK    5  A    between atoms: N_12  and  C_13
REMARK    6  A    between atoms: C_13  and  C_14
REMARK    7  A    between atoms: N_16  and  C_17
REMARK    8  A    between atoms: C_17  and  C_18
REMARK    9  A    between atoms: C_27  and  C_31
REMARK                            x       y       z     vdW  Elec       q    Type
REMARK                         _______ _______ _______ _____ _____    ______ ____
ROOT
ATOM      1  C   UNL     1      -7.044   4.852   0.094  0.00  0.00    +0.229 C 
ATOM      2  O   UNL     1      -7.061   6.065   0.100  0.00  0.00    -0.274 OA
ATOM      3  N   UNL     1      -5.867   4.195   0.079  0.00  0.00    -0.306 N 
ATOM      4  H   UNL     1      -5.854   3.225   0.074  0.00  0.00    +0.149 HD
ENDROOT
BRANCH   1   5
ATOM      5  C   UNL     1      -8.338   4.080   0.102  0.00  0.00    +0.201 C 
BRANCH   5   6
ATOM      6  N   UNL     1      -9.465   5.017   0.118  0.00  0.00    -0.181 NA
ATOM      7  H   UNL     1      -9.318   5.949   0.339  0.00  0.00    +0.149 HD
BRANCH   6   8
ATOM      8  S   UNL     1     -10.991   4.482  -0.242  0.00  0.00    +0.059 S 
ATOM      9  O   UNL     1     -11.854   5.604  -0.116  0.00  0.00    -0.153 OA
ATOM     10  O   UNL     1     -10.886   3.732  -1.444  0.00  0.00    -0.153 OA
BRANCH   8  15
ATOM     11  C   UNL     1     -12.582   0.589   4.084  0.00  0.00    +0.044 C 
ATOM     12  C   UNL     1     -12.185   1.561   3.004  0.00  0.00    -0.047 A 
ATOM     13  C   UNL     1     -11.537   1.108   1.870  0.00  0.00    +0.005 A 
ATOM     14  C   UNL     1     -11.177   1.999   0.876  0.00  0.00    +0.029 A 
ATOM     15  C   UNL     1     -11.456   3.345   1.022  0.00  0.00    +0.106 A 
ATOM     16  C   UNL     1     -12.103   3.799   2.155  0.00  0.00    +0.032 A 
ATOM     17  C   UNL     1     -12.468   2.906   3.146  0.00  0.00    -0.046 A 
ATOM     18  C   UNL     1     -13.175   3.401   4.382  0.00  0.00    +0.044 C 
ENDBRANCH   8  15
ENDBRANCH   6   8
ENDBRANCH   5   6
ENDBRANCH   1   5
BRANCH   3  19
ATOM     19  C   UNL     1      -4.609   4.945   0.071  0.00  0.00    +0.200 C 
BRANCH  19  20
ATOM     20  C   UNL     1      -3.450   3.982   0.055  0.00  0.00    +0.236 C 
ATOM     21  O   UNL     1      -3.655   2.787   0.051  0.00  0.00    -0.274 OA
ATOM     22  N   UNL     1      -2.186   4.449   0.045  0.00  0.00    -0.263 N 
ATOM     23  C   UNL     1      -1.117   3.561   0.030  0.00  0.00    +0.165 A 
ATOM     24  N   UNL     1      -1.135   2.244   0.019  0.00  0.00    -0.229 NA
ATOM     25  C   UNL     1      -0.019   1.520   0.010  0.00  0.00    +0.054 A 
ATOM     26  C   UNL     1       1.145   2.220   0.003  0.00  0.00    +0.015 A 
ATOM     27  S   UNL     1       0.588   3.903   0.016  0.00  0.00    -0.057 S 
ATOM     28  C   UNL     1       2.536   1.683  -0.012  0.00  0.00    +0.047 C 
ATOM     29  C   UNL     1       2.479   0.190   0.350  0.00  0.00    -0.009 C 
ATOM     30  C   UNL     1       1.376  -0.475  -0.478  0.00  0.00    +0.010 C 
ATOM     31  C   UNL     1       0.002  -0.004   0.002  0.00  0.00    +0.056 C 
ATOM     32  C   UNL     1       3.825  -0.466   0.034  0.00  0.00    +0.008 C 
ATOM     33  H   UNL     1      -2.022   5.405   0.049  0.00  0.00    +0.157 HD
ENDBRANCH  19  20
ENDBRANCH   3  19
TORSDOF 6
