REMARK  Name = ZINC43737450
REMARK  10 active torsions:
REMARK  status: ('A' for Active; 'I' for Inactive)
REMARK    1  A    between atoms: C_1  and  C_2
REMARK    2  A    between atoms: C_2  and  C_3
REMARK    3  A    between atoms: C_2  and  C_4
REMARK    4  A    between atoms: C_4  and  O_6
REMARK    5  A    between atoms: O_6  and  C_7
REMARK    6  A    between atoms: C_7  and  C_9
REMARK    7  A    between atoms: C_7  and  C_26
REMARK    8  A    between atoms: C_9  and  N_10
REMARK    9  A    between atoms: C_26  and  O_27
REMARK   10  A    between atoms: O_27  and  C_28
REMARK                            x       y       z     vdW  Elec       q    Type
REMARK                         _______ _______ _______ _____ _____    ______ ____
ROOT
ATOM      1  C   UNL     1      -3.127  -3.613  -0.709  0.00  0.00    -0.030 C 
ENDROOT
BRANCH   1   2
ATOM      2  N   UNL     1      -2.673  -3.460  -2.097  0.00  0.00    +0.383 N 
ATOM      3  C   UNL     1      -2.670  -4.769  -2.756  0.00  0.00    -0.073 C 
ATOM      4  C   UNL     1      -2.207  -4.657  -4.201  0.00  0.00    -0.007 C 
ATOM      5  C   UNL     1      -3.077  -3.660  -4.972  0.00  0.00    +0.011 C 
ATOM      6  C   UNL     1      -3.015  -2.323  -4.224  0.00  0.00    +0.020 C 
ATOM      7  C   UNL     1      -3.577  -2.546  -2.810  0.00  0.00    -0.069 C 
ATOM      8  C   UNL     1      -1.570  -1.898  -4.090  0.00  0.00    +0.023 A 
ATOM      9  C   UNL     1      -1.311  -0.565  -4.024  0.00  0.00    +0.022 A 
ATOM     10  C   UNL     1      -0.004  -0.104  -3.835  0.00  0.00    +0.007 A 
ATOM     11  C   UNL     1       1.002  -1.014  -3.694  0.00  0.00    +0.070 A 
ATOM     12  C   UNL     1       0.700  -2.381  -3.763  0.00  0.00    +0.251 A 
ATOM     13  O   UNL     1       1.581  -3.205  -3.576  0.00  0.00    -0.268 OA
ATOM     14  N   UNL     1      -0.561  -2.798  -4.035  0.00  0.00    -0.312 N 
ATOM     15  C   UNL     1      -0.755  -4.222  -4.296  0.00  0.00    +0.126 C 
ATOM     16  H   UNL     1      -1.738  -3.080  -2.104  0.00  0.00    -0.082 HD
ENDBRANCH   1   2
BRANCH   1  17
ATOM     17  C   UNL     1      -3.004  -2.272   0.018  0.00  0.00    +0.197 C 
BRANCH  17  18
ATOM     18  O   UNL     1      -1.639  -1.849   0.008  0.00  0.00    -0.460 OA
BRANCH  18  19
ATOM     19  C   UNL     1      -1.412  -0.526   0.013  0.00  0.00    +0.310 C 
ATOM     20  O   UNL     1      -2.341   0.247   0.026  0.00  0.00    -0.251 OA
BRANCH  19  22
ATOM     21  C   UNL     1      -0.019   1.526   0.010  0.00  0.00    +0.019 C 
ATOM     22  C   UNL     1       0.002  -0.004   0.002  0.00  0.00    +0.092 C 
ATOM     23  C   UNL     1       0.742  -0.511   1.242  0.00  0.00    +0.019 C 
ENDBRANCH  19  22
ENDBRANCH  18  19
ENDBRANCH  17  18
BRANCH  17  24
ATOM     24  C   UNL     1      -3.477  -2.431   1.465  0.00  0.00    +0.271 C 
BRANCH  24  25
ATOM     25  O   UNL     1      -3.472  -1.157   2.111  0.00  0.00    -0.488 OA
BRANCH  25  26
ATOM     26  C   UNL     1      -3.869  -1.121   3.410  0.00  0.00    +0.121 A 
ATOM     27  C   UNL     1      -4.249  -2.291   4.052  0.00  0.00    +0.045 A 
ATOM     28  C   UNL     1      -4.652  -2.253   5.373  0.00  0.00    +0.004 A 
ATOM     29  C   UNL     1      -4.675  -1.050   6.055  0.00  0.00    +0.000 A 
ATOM     30  C   UNL     1      -4.297   0.117   5.417  0.00  0.00    +0.004 A 
ATOM     31  C   UNL     1      -3.888   0.083   4.098  0.00  0.00    +0.045 A 
ENDBRANCH  25  26
ENDBRANCH  24  25
ENDBRANCH  17  24
ENDBRANCH   1  17
TORSDOF 8
