REMARK  Name = ZINC51120031
REMARK  7 active torsions:
REMARK  status: ('A' for Active; 'I' for Inactive)
REMARK    1  A    between atoms: C_3  and  N_20
REMARK    2  A    between atoms: C_4  and  N_17
REMARK    3  A    between atoms: C_6  and  C_7
REMARK    4  A    between atoms: N_9  and  C_10
REMARK    5  A    between atoms: C_10  and  C_11
REMARK    6  A    between atoms: C_11  and  C_12
REMARK    7  A    between atoms: N_20  and  N_21
REMARK                            x       y       z     vdW  Elec       q    Type
REMARK                         _______ _______ _______ _____ _____    ______ ____
ROOT
ATOM      1  C   UNL     1       0.004   1.400  -0.208  0.00  0.00    +0.015 A 
ATOM      2  C   UNL     1       1.204   2.071  -0.270  0.00  0.00    +0.027 A 
ATOM      3  C   UNL     1       2.398   1.384  -0.069  0.00  0.00    +0.071 A 
ATOM      4  C   UNL     1       2.383   0.017   0.194  0.00  0.00    +0.149 A 
ATOM      5  C   UNL     1       1.186  -0.659   0.258  0.00  0.00    +0.047 A 
ATOM      6  C   UNL     1      -0.015   0.028   0.057  0.00  0.00    +0.039 A 
ENDROOT
BRANCH   6   7
ATOM      7  C   UNL     1      -1.300  -0.694   0.125  0.00  0.00    +0.244 C 
ATOM      8  O   UNL     1      -1.315  -1.888   0.355  0.00  0.00    -0.270 OA
ATOM      9  N   UNL     1      -2.457  -0.030  -0.069  0.00  0.00    -0.311 N 
ATOM     10  H   UNL     1      -2.445   0.922  -0.253  0.00  0.00    +0.149 HD
BRANCH   9  11
ATOM     11  C   UNL     1      -3.732  -0.747  -0.002  0.00  0.00    +0.109 C 
BRANCH  11  12
ATOM     12  C   UNL     1      -4.881   0.231  -0.256  0.00  0.00    +0.054 C 
BRANCH  12  13
ATOM     13  C   UNL     1      -6.194  -0.506  -0.187  0.00  0.00    -0.039 A 
ATOM     14  C   UNL     1      -6.736  -1.080  -1.321  0.00  0.00    +0.011 A 
ATOM     15  C   UNL     1      -7.918  -1.737  -1.224  0.00  0.00    +0.045 A 
ATOM     16  S   UNL     1      -8.301  -1.555   0.510  0.00  0.00    -0.105 S 
ATOM     17  C   UNL     1      -6.857  -0.622   0.990  0.00  0.00    +0.048 A 
ENDBRANCH  12  13
ENDBRANCH  11  12
ENDBRANCH   9  11
ENDBRANCH   6   7
BRANCH   4  18
ATOM     18  N   UNL     1       3.655  -0.710   0.406  0.00  0.00    +0.058 N 
ATOM     19  O   UNL     1       3.787  -1.833  -0.021  0.00  0.00    -0.126 OA
ATOM     20  O   UNL     1       4.561  -0.180   1.006  0.00  0.00    -0.126 OA
ENDBRANCH   4  18
BRANCH   3  21
ATOM     21  N   UNL     1       3.609   2.065  -0.133  0.00  0.00    -0.281 N 
ATOM     22  H   UNL     1       4.444   1.575  -0.072  0.00  0.00    +0.166 HD
BRANCH  21  23
ATOM     23  N   UNL     1       3.623   3.422  -0.282  0.00  0.00    -0.256 NA
ATOM     24  H   UNL     1       3.093   3.872   0.451  0.00  0.00    +0.140 HD
ATOM     25  H   UNL     1       4.568   3.774  -0.312  0.00  0.00    +0.140 HD
ENDBRANCH  21  23
ENDBRANCH   3  21
TORSDOF 7
