REMARK  Name = ZINC19867997
REMARK  3 active torsions:
REMARK  status: ('A' for Active; 'I' for Inactive)
REMARK    1  A    between atoms: C_1  and  C_2
REMARK    2  A    between atoms: N_5  and  C_8
REMARK    3  A    between atoms: C_13  and  N_14
REMARK                            x       y       z     vdW  Elec       q    Type
REMARK                         _______ _______ _______ _____ _____    ______ ____
ROOT
ATOM      1  C   UNL     1      -0.250  -0.034  -0.095  0.00  0.00    +0.054 A 
ATOM      2  C   UNL     1       0.257  -0.714  -1.191  0.00  0.00    +0.074 A 
ATOM      3  C   UNL     1       0.528  -2.072  -1.103  0.00  0.00    +0.164 A 
ATOM      4  C   UNL     1       0.292  -2.751   0.085  0.00  0.00    +0.164 A 
ATOM      5  C   UNL     1      -0.217  -2.072   1.183  0.00  0.00    +0.074 A 
ATOM      6  C   UNL     1      -0.482  -0.715   1.099  0.00  0.00    +0.050 A 
ATOM      7  O   UNL     1       0.556  -4.084   0.190  0.00  0.00    -0.485 OA
ATOM      8  C   UNL     1       0.710  -4.808  -1.036  0.00  0.00    +0.270 C 
ATOM      9  C   UNL     1       1.630  -3.999  -1.959  0.00  0.00    +0.270 C 
ATOM     10  O   UNL     1       1.022  -2.724  -2.193  0.00  0.00    -0.485 OA
ENDROOT
BRANCH   1  15
ATOM     11  C   UNL     1      -1.841   5.266  -1.241  0.00  0.00    +0.007 C 
ATOM     12  C   UNL     1      -1.651   3.749  -1.307  0.00  0.00    -0.011 C 
ATOM     13  C   UNL     1      -2.212   3.107  -0.035  0.00  0.00    +0.022 C 
ATOM     14  C   UNL     1      -1.964   1.597  -0.080  0.00  0.00    +0.105 C 
ATOM     15  N   UNL     1      -0.522   1.339  -0.185  0.00  0.00    -0.328 N 
ATOM     16  C   UNL     1       0.029   1.906  -1.422  0.00  0.00    +0.105 C 
ATOM     17  C   UNL     1      -0.158   3.424  -1.418  0.00  0.00    +0.022 C 
ENDBRANCH   1  15
BRANCH   6  18
ATOM     18  N   UNL     1      -0.991  -0.028   2.211  0.00  0.00    -0.356 N 
ATOM     19  H   UNL     1      -1.174  -0.566   3.153  0.00  0.00    +0.142 HD
ATOM     20  H   UNL     1      -1.206   1.048   2.142  0.00  0.00    +0.142 HD
ENDBRANCH   6  18
TORSDOF 2
