REMARK  Name = ZINC14544594
REMARK  4 active torsions:
REMARK  status: ('A' for Active; 'I' for Inactive)
REMARK    1  A    between atoms: C_4  and  N_7
REMARK    2  A    between atoms: N_7  and  S_8
REMARK    3  A    between atoms: S_8  and  C_11
REMARK    4  A    between atoms: C_24  and  C_27
REMARK                            x       y       z     vdW  Elec       q    Type
REMARK                         _______ _______ _______ _____ _____    ______ ____
ROOT
ATOM      1  C   UNL     1       2.511   4.634  -0.361  0.00  0.00    +0.109 A 
ATOM      2  C   UNL     1       1.176   4.574  -0.716  0.00  0.00    +0.030 A 
ATOM      3  C   UNL     1       0.281   5.492  -0.204  0.00  0.00    +0.025 A 
ATOM      4  C   UNL     1       0.715   6.486   0.664  0.00  0.00    +0.031 A 
ATOM      5  C   UNL     1       2.070   6.549   1.007  0.00  0.00    -0.018 A 
ATOM      6  C   UNL     1       2.954   5.625   0.496  0.00  0.00    +0.034 A 
ATOM      7  C   UNL     1       2.495   7.639   1.912  0.00  0.00    +0.049 C 
ATOM      8  C   UNL     1       3.678   7.504   2.801  0.00  0.00    -0.023 C 
ATOM      9  C   UNL     1       3.466   8.221   3.899  0.00  0.00    -0.030 C 
ATOM     10  C   UNL     1       2.084   8.874   3.838  0.00  0.00    +0.033 C 
ATOM     11  C   UNL     1       1.340   7.898   2.925  0.00  0.00    +0.029 C 
ATOM     12  C   UNL     1       0.202   8.476   2.103  0.00  0.00    +0.107 C 
ATOM     13  N   UNL     1      -0.215   7.394   1.185  0.00  0.00    -0.336 N 
ATOM     14  H   UNL     1      -1.150   7.313   0.939  0.00  0.00    +0.147 HD
ENDROOT
BRANCH  12  15
ATOM     15  C   UNL     1      -0.942   8.868   3.002  0.00  0.00    -0.002 A 
ATOM     16  C   UNL     1      -2.022   8.123   3.289  0.00  0.00    +0.089 A 
ATOM     17  N   UNL     1      -2.846   8.807   4.141  0.00  0.00    -0.360 N 
ATOM     18  H   UNL     1      -3.686   8.472   4.492  0.00  0.00    +0.165 HD
ATOM     19  C   UNL     1      -2.308  10.043   4.423  0.00  0.00    +0.047 A 
ATOM     20  C   UNL     1      -1.091  10.135   3.721  0.00  0.00    +0.005 A 
ATOM     21  C   UNL     1      -0.316  11.292   3.820  0.00  0.00    +0.010 A 
ATOM     22  C   UNL     1      -0.744  12.330   4.598  0.00  0.00    +0.001 A 
ATOM     23  C   UNL     1      -1.943  12.245   5.292  0.00  0.00    +0.002 A 
ATOM     24  C   UNL     1      -2.723  11.112   5.209  0.00  0.00    +0.026 A 
ENDBRANCH  12  15
BRANCH   1  25
ATOM     25  S   UNL     1       3.648   3.452  -1.005  0.00  0.00    +0.072 S 
ATOM     26  O   UNL     1       4.946   4.008  -0.845  0.00  0.00    -0.150 OA
ATOM     27  O   UNL     1       3.142   3.050  -2.271  0.00  0.00    -0.150 OA
BRANCH  25  28
ATOM     28  N   UNL     1       3.579   2.120  -0.023  0.00  0.00    -0.216 N 
ATOM     29  H   UNL     1       3.297   1.265  -0.385  0.00  0.00    +0.174 HD
BRANCH  28  33
ATOM     30  C   UNL     1       4.615   2.442   3.997  0.00  0.00    +0.000 A 
ATOM     31  C   UNL     1       5.423   3.009   3.029  0.00  0.00    +0.002 A 
ATOM     32  C   UNL     1       5.083   2.904   1.694  0.00  0.00    +0.024 A 
ATOM     33  C   UNL     1       3.926   2.228   1.325  0.00  0.00    +0.048 A 
ATOM     34  C   UNL     1       3.116   1.660   2.300  0.00  0.00    +0.024 A 
ATOM     35  C   UNL     1       3.463   1.769   3.633  0.00  0.00    +0.002 A 
ENDBRANCH  28  33
ENDBRANCH  25  28
ENDBRANCH   1  25
TORSDOF 4
