REMARK  Name = ZINC01601629
REMARK  9 active torsions:
REMARK  status: ('A' for Active; 'I' for Inactive)
REMARK    1  A    between atoms: C_1  and  N_2
REMARK    2  A    between atoms: N_2  and  C_3
REMARK    3  A    between atoms: N_2  and  C_24
REMARK    4  A    between atoms: C_3  and  C_4
REMARK    5  A    between atoms: C_4  and  C_5
REMARK    6  A    between atoms: C_16  and  O_22
REMARK    7  A    between atoms: C_17  and  O_20
REMARK    8  A    between atoms: O_20  and  C_21
REMARK    9  A    between atoms: O_22  and  C_23
REMARK                            x       y       z     vdW  Elec       q    Type
REMARK                         _______ _______ _______ _____ _____    ______ ____
ROOT
ATOM      1  C   UNL     1      -1.911   3.837  -0.435  0.00  0.00    +0.004 C 
ATOM      2  C   UNL     1      -1.478   4.051  -1.884  0.00  0.00    +0.012 C 
ATOM      3  C   UNL     1      -0.688   2.824  -2.351  0.00  0.00    +0.001 C 
ATOM      4  C   UNL     1       0.537   2.621  -1.460  0.00  0.00    +0.000 C 
ATOM      5  C   UNL     1       0.098   2.433  -0.004  0.00  0.00    +0.004 C 
ATOM      6  C   UNL     1      -0.671   3.675   0.443  0.00  0.00    +0.000 C 
ATOM      7  C   UNL     1      -1.127   3.544   1.896  0.00  0.00    +0.009 C 
ATOM      8  C   UNL     1      -1.671   4.898   2.350  0.00  0.00    +0.036 C 
ATOM      9  C   UNL     1      -2.647   5.458   1.348  0.00  0.00    -0.040 A 
ATOM     10  C   UNL     1      -2.752   4.979   0.058  0.00  0.00    +0.008 A 
ATOM     11  C   UNL     1      -3.658   5.559  -0.823  0.00  0.00    +0.165 A 
ATOM     12  C   UNL     1      -4.463   6.614  -0.411  0.00  0.00    +0.162 A 
ATOM     13  C   UNL     1      -4.361   7.085   0.887  0.00  0.00    +0.050 A 
ATOM     14  C   UNL     1      -3.459   6.508   1.758  0.00  0.00    +0.008 A 
ENDROOT
BRANCH  12  15
ATOM     15  O   UNL     1      -5.346   7.179  -1.277  0.00  0.00    -0.491 OA
ATOM     16  C   UNL     1      -6.141   8.259  -0.781  0.00  0.00    +0.277 C 
ENDBRANCH  12  15
BRANCH  11  17
ATOM     17  O   UNL     1      -3.755   5.092  -2.097  0.00  0.00    -0.491 OA
ATOM     18  C   UNL     1      -4.816   4.175  -2.372  0.00  0.00    +0.277 C 
ENDBRANCH  11  17
BRANCH   1  19
ATOM     19  C   UNL     1      -2.730   2.547  -0.350  0.00  0.00    +0.031 C 
BRANCH  19  20
ATOM     20  C   UNL     1      -3.524   2.533   0.958  0.00  0.00    +0.117 C 
BRANCH  20  22
ATOM     21  C   UNL     1      -5.106   0.553   0.833  0.00  0.00    +0.141 C 
ATOM     22  N   UNL     1      -4.863   1.992   0.710  0.00  0.00    -0.273 N 
BRANCH  22  23
ATOM     23  C   UNL     1      -5.877   2.824   0.367  0.00  0.00    +0.169 C 
ATOM     24  N   UNL     1      -6.727   3.520   0.079  0.00  0.00    -0.174 NA
ENDBRANCH  22  23
ENDBRANCH  20  22
ENDBRANCH  19  20
ENDBRANCH   1  19
TORSDOF 6
