REMARK  Name = ZINC24893159
REMARK  12 active torsions:
REMARK  status: ('A' for Active; 'I' for Inactive)
REMARK    1  A    between atoms: C_1  and  C_2
REMARK    2  A    between atoms: C_2  and  C_4
REMARK    3  A    between atoms: C_2  and  N_10
REMARK    4  A    between atoms: C_4  and  C_5
REMARK    5  A    between atoms: N_10  and  C_11
REMARK    6  A    between atoms: N_10  and  C_20
REMARK    7  A    between atoms: C_11  and  C_12
REMARK    8  A    between atoms: C_15  and  O_18
REMARK    9  A    between atoms: O_18  and  C_19
REMARK   10  A    between atoms: C_20  and  C_21
REMARK   11  A    between atoms: C_30  and  S_32
REMARK   12  A    between atoms: S_32  and  N_35
REMARK                            x       y       z     vdW  Elec       q    Type
REMARK                         _______ _______ _______ _____ _____    ______ ____
ROOT
ATOM      1  N   UNL     1       4.160   7.063  -0.358  0.00  0.00    +0.390 N 
ATOM      2  H   UNL     1       3.353   7.294  -1.068  0.00  0.00    -0.080 HD
ENDROOT
BRANCH   1   4
ATOM      3  C   UNL     1       2.945   8.849   0.796  0.00  0.00    -0.013 C 
ATOM      4  C   UNL     1       3.755   7.562   0.964  0.00  0.00    -0.066 C 
BRANCH   4   5
ATOM      5  C   UNL     1       5.001   7.848   1.804  0.00  0.00    +0.027 C 
BRANCH   5   6
ATOM      6  C   UNL     1       5.717   6.556   2.098  0.00  0.00    -0.012 A 
ATOM      7  C   UNL     1       6.784   6.008   1.466  0.00  0.00    +0.011 A 
ATOM      8  C   UNL     1       7.280   4.798   1.914  0.00  0.00    +0.008 A 
ATOM      9  C   UNL     1       6.686   4.195   2.973  0.00  0.00    +0.045 A 
ATOM     10  S   UNL     1       5.386   5.352   3.374  0.00  0.00    -0.102 S 
ENDBRANCH   5   6
ENDBRANCH   4   5
ENDBRANCH   1   4
BRANCH   1  11
ATOM     11  C   UNL     1       5.378   7.737  -0.824  0.00  0.00    -0.042 C 
BRANCH  11  12
ATOM     12  C   UNL     1       5.048   9.153  -1.222  0.00  0.00    -0.064 A 
ATOM     13  C   UNL     1       4.470   9.407  -2.451  0.00  0.00    +0.005 A 
ATOM     14  C   UNL     1       4.161  10.704  -2.816  0.00  0.00    +0.046 A 
ATOM     15  C   UNL     1       4.443  11.752  -1.952  0.00  0.00    +0.120 A 
ATOM     16  C   UNL     1       5.029  11.494  -0.721  0.00  0.00    +0.046 A 
ATOM     17  C   UNL     1       5.330  10.195  -0.359  0.00  0.00    +0.005 A 
BRANCH  15  18
ATOM     18  O   UNL     1       4.145  13.028  -2.310  0.00  0.00    -0.495 OA
ATOM     19  C   UNL     1       3.543  13.218  -3.592  0.00  0.00    +0.277 C 
ENDBRANCH  15  18
ENDBRANCH  11  12
ENDBRANCH   1  11
BRANCH   1  20
ATOM     20  C   UNL     1       4.339   5.605  -0.337  0.00  0.00    +0.020 C 
BRANCH  20  21
ATOM     21  C   UNL     1       2.991   4.933  -0.283  0.00  0.00    +0.203 C 
ATOM     22  O   UNL     1       1.984   5.602  -0.182  0.00  0.00    -0.277 OA
ATOM     23  N   UNL     1       2.905   3.590  -0.347  0.00  0.00    -0.272 N 
ATOM     24  C   UNL     1       4.046   2.679  -0.470  0.00  0.00    +0.118 C 
ATOM     25  C   UNL     1       3.436   1.269  -0.502  0.00  0.00    +0.056 C 
ATOM     26  C   UNL     1       1.945   1.497  -0.392  0.00  0.00    -0.023 A 
ATOM     27  C   UNL     1       1.712   2.861  -0.306  0.00  0.00    +0.040 A 
ATOM     28  C   UNL     1       0.398   3.319  -0.196  0.00  0.00    +0.026 A 
ATOM     29  C   UNL     1      -0.650   2.424  -0.172  0.00  0.00    +0.030 A 
ATOM     30  C   UNL     1      -0.408   1.065  -0.265  0.00  0.00    +0.105 A 
ATOM     31  C   UNL     1       0.891   0.604  -0.369  0.00  0.00    +0.034 A 
BRANCH  30  32
ATOM     32  S   UNL     1      -1.752  -0.075  -0.243  0.00  0.00    +0.056 S 
ATOM     33  O   UNL     1      -2.897   0.639  -0.687  0.00  0.00    -0.153 OA
ATOM     34  O   UNL     1      -1.292  -1.256  -0.886  0.00  0.00    -0.153 OA
BRANCH  32  35
ATOM     35  N   UNL     1      -2.028  -0.475   1.340  0.00  0.00    -0.204 NA
ATOM     36  H   UNL     1      -2.863  -1.188   1.398  0.00  0.00    +0.144 HD
ATOM     37  H   UNL     1      -2.281   0.432   1.909  0.00  0.00    +0.144 HD
ENDBRANCH  32  35
ENDBRANCH  30  32
ENDBRANCH  20  21
ENDBRANCH   1  20
TORSDOF 10
