REMARK  Name = ZINC39710829
REMARK  9 active torsions:
REMARK  status: ('A' for Active; 'I' for Inactive)
REMARK    1  A    between atoms: C_1  and  C_2
REMARK    2  A    between atoms: C_8  and  C_14
REMARK    3  A    between atoms: C_14  and  C_16
REMARK    4  A    between atoms: C_14  and  N_26
REMARK    5  A    between atoms: N_21  and  C_22
REMARK    6  A    between atoms: C_22  and  C_23
REMARK    7  A    between atoms: C_22  and  C_24
REMARK    8  A    between atoms: C_22  and  C_25
REMARK    9  A    between atoms: N_29  and  C_32
REMARK                            x       y       z     vdW  Elec       q    Type
REMARK                         _______ _______ _______ _____ _____    ______ ____
ROOT
ATOM      1  C   UNL     1       1.311  -2.565   4.413  0.00  0.00    -0.009 C 
ENDROOT
BRANCH   1   9
ATOM      2  C   UNL     1      -0.944   0.973  -0.067  0.00  0.00    +0.045 C 
ATOM      3  C   UNL     1      -0.731  -0.517   0.016  0.00  0.00    -0.029 A 
ATOM      4  C   UNL     1      -0.760  -1.266  -1.117  0.00  0.00    +0.005 A 
ATOM      5  C   UNL     1      -0.570  -2.648  -1.110  0.00  0.00    +0.001 A 
ATOM      6  C   UNL     1      -0.344  -3.326   0.045  0.00  0.00    +0.009 A 
ATOM      7  C   UNL     1      -0.301  -2.580   1.303  0.00  0.00    -0.007 A 
ATOM      8  C   UNL     1      -0.077  -3.218   2.487  0.00  0.00    -0.006 C 
ATOM      9  C   UNL     1      -0.049  -2.366   3.741  0.00  0.00    +0.088 C 
ATOM     10  C   UNL     1      -0.272  -0.879   3.577  0.00  0.00    +0.223 C 
ATOM     11  O   UNL     1      -0.259  -0.149   4.549  0.00  0.00    -0.275 OA
ATOM     12  N   UNL     1      -0.479  -0.376   2.371  0.00  0.00    -0.284 N 
ATOM     13  C   UNL     1      -0.499  -1.121   1.266  0.00  0.00    +0.043 A 
ATOM     14  H   UNL     1      -0.620   0.580   2.288  0.00  0.00    +0.155 HD
ENDBRANCH   1   9
BRANCH   1  15
ATOM     15  N   UNL     1       1.334  -1.846   5.694  0.00  0.00    +0.387 N 
ATOM     16  C   UNL     1       2.593  -2.134   6.393  0.00  0.00    -0.059 C 
ATOM     17  C   UNL     1       2.668  -1.296   7.673  0.00  0.00    +0.086 C 
ATOM     18  N   UNL     1       1.459  -1.553   8.471  0.00  0.00    -0.333 N 
ATOM     19  C   UNL     1       0.153  -1.447   7.803  0.00  0.00    +0.086 C 
ATOM     20  C   UNL     1       0.196  -2.277   6.516  0.00  0.00    -0.059 C 
ATOM     21  H   UNL     1       1.266  -0.854   5.523  0.00  0.00    -0.081 HD
BRANCH  18  22
ATOM     22  C   UNL     1       1.549  -1.889   9.824  0.00  0.00    +0.030 A 
ATOM     23  C   UNL     1       2.784  -1.886  10.461  0.00  0.00    +0.023 A 
ATOM     24  C   UNL     1       2.869  -2.218  11.799  0.00  0.00    +0.002 A 
ATOM     25  C   UNL     1       1.727  -2.553  12.504  0.00  0.00    +0.000 A 
ATOM     26  C   UNL     1       0.497  -2.556  11.873  0.00  0.00    +0.002 A 
ATOM     27  C   UNL     1       0.404  -2.220  10.536  0.00  0.00    +0.023 A 
ENDBRANCH  18  22
ENDBRANCH   1  15
BRANCH   1  28
ATOM     28  C   UNL     1       2.414  -2.021   3.503  0.00  0.00    +0.205 C 
ATOM     29  N   UNL     1       2.170  -0.606   3.191  0.00  0.00    -0.152 NA
ATOM     30  N   UNL     1       2.028  -0.485   1.973  0.00  0.00    -0.070 NA
ATOM     31  N   UNL     1       2.140  -1.696   1.291  0.00  0.00    -0.179 N 
ATOM     32  N   UNL     1       2.384  -2.703   2.192  0.00  0.00    -0.183 NA
ATOM     33  H   UNL     1       2.059  -1.810   0.331  0.00  0.00    +0.191 HD
BRANCH  32  34
ATOM     34  C   UNL     1       3.666  -3.363   1.913  0.00  0.00    +0.035 C 
ATOM     35  C   UNL     1       3.952  -4.402   3.000  0.00  0.00    +0.029 C 
ATOM     36  C   UNL     1       3.597  -4.056   0.551  0.00  0.00    +0.029 C 
ATOM     37  C   UNL     1       4.785  -2.319   1.898  0.00  0.00    +0.029 C 
ENDBRANCH  32  34
ENDBRANCH   1  28
TORSDOF 5
