REMARK  Name = ZINC14547009
REMARK  5 active torsions:
REMARK  status: ('A' for Active; 'I' for Inactive)
REMARK    1  A    between atoms: C_4  and  C_8
REMARK    2  A    between atoms: C_19  and  S_24
REMARK    3  A    between atoms: S_24  and  N_27
REMARK    4  A    between atoms: N_27  and  C_28
REMARK    5  A    between atoms: C_28  and  C_29
REMARK                            x       y       z     vdW  Elec       q    Type
REMARK                         _______ _______ _______ _____ _____    ______ ____
ROOT
ATOM      1  C   UNL     1       2.452   3.938  -0.001  0.00  0.00    +0.108 C 
ATOM      2  C   UNL     1       2.650   4.623   1.354  0.00  0.00    +0.029 C 
ATOM      3  C   UNL     1       2.343   3.567   2.457  0.00  0.00    +0.033 C 
ATOM      4  C   UNL     1       0.809   3.631   2.556  0.00  0.00    -0.030 C 
ATOM      5  C   UNL     1       0.361   4.770   2.089  0.00  0.00    -0.023 C 
ATOM      6  C   UNL     1       1.508   5.626   1.609  0.00  0.00    +0.049 C 
ATOM      7  C   UNL     1       1.134   6.407   0.389  0.00  0.00    -0.018 A 
ATOM      8  C   UNL     1       0.298   7.506   0.532  0.00  0.00    +0.034 A 
ATOM      9  C   UNL     1      -0.071   8.254  -0.567  0.00  0.00    +0.106 A 
ATOM     10  C   UNL     1       0.390   7.918  -1.827  0.00  0.00    +0.030 A 
ATOM     11  C   UNL     1       1.221   6.826  -1.982  0.00  0.00    +0.025 A 
ATOM     12  C   UNL     1       1.590   6.071  -0.876  0.00  0.00    +0.031 A 
ATOM     13  N   UNL     1       2.406   4.962  -1.051  0.00  0.00    -0.336 N 
ATOM     14  H   UNL     1       2.952   4.881  -1.849  0.00  0.00    +0.147 HD
ENDROOT
BRANCH   1  18
ATOM     15  C   UNL     1      -1.217   1.748   0.018  0.00  0.00    +0.003 A 
ATOM     16  C   UNL     1      -0.095   1.221   0.629  0.00  0.00    +0.020 A 
ATOM     17  C   UNL     1       1.094   1.929   0.622  0.00  0.00    +0.047 A 
ATOM     18  C   UNL     1       1.157   3.167   0.008  0.00  0.00    +0.010 A 
ATOM     19  C   UNL     1       0.032   3.696  -0.599  0.00  0.00    +0.047 A 
ATOM     20  C   UNL     1      -1.156   2.987  -0.591  0.00  0.00    +0.020 A 
ATOM     21 CL   UNL     1       0.111   5.249  -1.371  0.00  0.00    -0.083 Cl
ATOM     22 CL   UNL     1       2.505   1.264   1.383  0.00  0.00    -0.083 Cl
ENDBRANCH   1  18
BRANCH   9  23
ATOM     23  S   UNL     1      -1.134   9.645  -0.365  0.00  0.00    +0.058 S 
ATOM     24  O   UNL     1      -1.771   9.855  -1.617  0.00  0.00    -0.153 OA
ATOM     25  O   UNL     1      -1.865   9.427   0.834  0.00  0.00    -0.153 OA
BRANCH  23  26
ATOM     26  N   UNL     1      -0.169  10.964  -0.097  0.00  0.00    -0.187 NA
ATOM     27  H   UNL     1      -0.203  11.425   0.755  0.00  0.00    +0.148 HD
BRANCH  26  28
ATOM     28  C   UNL     1       0.737  11.434  -1.149  0.00  0.00    +0.137 C 
BRANCH  28  29
ATOM     29  C   UNL     1       1.224  12.844  -0.809  0.00  0.00    +0.134 C 
ATOM     30  C   UNL     1       2.080  13.410  -1.964  0.00  0.00    +0.035 C 
ATOM     31  C   UNL     1       3.192  14.210  -1.249  0.00  0.00    +0.031 C 
ATOM     32  C   UNL     1       2.876  14.033   0.253  0.00  0.00    +0.160 C 
ATOM     33  O   UNL     1       2.114  12.809   0.328  0.00  0.00    -0.375 OA
ENDBRANCH  28  29
ENDBRANCH  26  28
ENDBRANCH  23  26
ENDBRANCH   9  23
TORSDOF 5
