REMARK  Name = ZINC04197133
REMARK  8 active torsions:
REMARK  status: ('A' for Active; 'I' for Inactive)
REMARK    1  A    between atoms: C_1  and  C_2
REMARK    2  A    between atoms: C_2  and  N_3
REMARK    3  A    between atoms: C_4  and  C_27
REMARK    4  A    between atoms: C_7  and  S_8
REMARK    5  A    between atoms: S_8  and  C_9
REMARK    6  A    between atoms: C_9  and  C_10
REMARK    7  A    between atoms: C_15  and  C_18
REMARK    8  A    between atoms: C_15  and  N_21
REMARK                            x       y       z     vdW  Elec       q    Type
REMARK                         _______ _______ _______ _____ _____    ______ ____
ROOT
ATOM      1  C   UNL     1       6.227  -0.005  -1.002  0.00  0.00    +0.226 C 
ATOM      2  O   UNL     1       5.938   0.632  -0.011  0.00  0.00    -0.275 OA
ATOM      3  N   UNL     1       7.487  -0.453  -1.171  0.00  0.00    -0.301 N 
ATOM      4  C   UNL     1       7.854  -1.220  -2.369  0.00  0.00    +0.107 C 
ATOM      5  C   UNL     1       8.507  -2.535  -1.932  0.00  0.00    +0.016 C 
ATOM      6  C   UNL     1       9.679  -2.231  -0.997  0.00  0.00    +0.015 C 
ATOM      7  C   UNL     1       9.165  -1.509   0.251  0.00  0.00    +0.016 C 
ATOM      8  C   UNL     1       8.521  -0.177  -0.165  0.00  0.00    +0.107 C 
ENDROOT
BRANCH   6   9
ATOM      9  N   UNL     1      10.328  -3.488  -0.601  0.00  0.00    +0.389 N 
ATOM     10  C   UNL     1      10.808  -4.188  -1.799  0.00  0.00    -0.077 C 
ATOM     11  C   UNL     1      11.412  -5.535  -1.400  0.00  0.00    -0.019 C 
ATOM     12  C   UNL     1      12.583  -5.300  -0.442  0.00  0.00    -0.004 C 
ATOM     13  C   UNL     1      12.087  -4.505   0.769  0.00  0.00    -0.019 C 
ATOM     14  C   UNL     1      11.457  -3.195   0.290  0.00  0.00    -0.077 C 
ATOM     15  H   UNL     1       9.662  -4.072  -0.117  0.00  0.00    -0.080 HD
ENDBRANCH   6   9
BRANCH   6  16
ATOM     16  C   UNL     1      10.676  -1.354  -1.710  0.00  0.00    +0.200 C 
ATOM     17  O   UNL     1      10.639  -1.253  -2.917  0.00  0.00    -0.278 OA
ATOM     18  N   UNL     1      11.609  -0.683  -1.005  0.00  0.00    -0.330 N 
ATOM     19  H   UNL     1      11.682  -0.817  -0.047  0.00  0.00    +0.145 HD
ATOM     20  H   UNL     1      12.206  -0.067  -1.456  0.00  0.00    +0.145 HD
ENDBRANCH   6  16
BRANCH   1  21
ATOM     21  C   UNL     1       5.178  -0.295  -2.043  0.00  0.00    +0.173 C 
BRANCH  21  22
ATOM     22  S   UNL     1       3.598   0.435  -1.531  0.00  0.00    -0.077 S 
BRANCH  22  27
ATOM     23  N   UNL     1       1.167   0.341  -2.910  0.00  0.00    -0.302 N 
ATOM     24  C   UNL     1       0.720  -0.193  -4.097  0.00  0.00    +0.165 A 
ATOM     25  N   UNL     1       1.742  -0.796  -4.657  0.00  0.00    -0.128 NA
ATOM     26  N   UNL     1       2.783  -0.678  -3.913  0.00  0.00    -0.122 NA
ATOM     27  C   UNL     1       2.490   0.013  -2.834  0.00  0.00    +0.192 A 
BRANCH  24  28
ATOM     28  C   UNL     1      -0.653  -0.105  -4.638  0.00  0.00    +0.019 A 
ATOM     29  C   UNL     1      -1.530   0.874  -4.168  0.00  0.00    +0.011 A 
ATOM     30  C   UNL     1      -2.810   0.951  -4.677  0.00  0.00    +0.001 A 
ATOM     31  C   UNL     1      -3.225   0.061  -5.652  0.00  0.00    +0.000 A 
ATOM     32  C   UNL     1      -2.360  -0.911  -6.123  0.00  0.00    +0.001 A 
ATOM     33  C   UNL     1      -1.076  -0.995  -5.627  0.00  0.00    +0.011 A 
ENDBRANCH  24  28
BRANCH  23  35
ATOM     34  C   UNL     1       0.532   2.602  -2.228  0.00  0.00    +0.027 C 
ATOM     35  C   UNL     1       0.387   1.107  -1.935  0.00  0.00    +0.122 C 
ENDBRANCH  23  35
ENDBRANCH  22  27
ENDBRANCH  21  22
ENDBRANCH   1  21
TORSDOF 7
