REMARK  Name = ZINC04794576
REMARK  9 active torsions:
REMARK  status: ('A' for Active; 'I' for Inactive)
REMARK    1  A    between atoms: C_1  and  C_2
REMARK    2  A    between atoms: C_7  and  C_8
REMARK    3  A    between atoms: C_8  and  O_10
REMARK    4  A    between atoms: O_10  and  C_11
REMARK    5  A    between atoms: C_16  and  C_18
REMARK    6  A    between atoms: C_20  and  C_25
REMARK    7  A    between atoms: C_28  and  N_31
REMARK    8  A    between atoms: N_31  and  C_32
REMARK    9  A    between atoms: N_31  and  C_33
REMARK                            x       y       z     vdW  Elec       q    Type
REMARK                         _______ _______ _______ _____ _____    ______ ____
ROOT
ATOM      1  C   UNL     1      -2.569   1.773   0.022  0.00  0.00    +0.047 C 
ATOM      2  C   UNL     1      -1.139   2.247   0.019  0.00  0.00    -0.008 A 
ATOM      3  C   UNL     1      -0.698   3.575   0.029  0.00  0.00    +0.042 A 
ATOM      4  C   UNL     1       0.698   3.559   0.013  0.00  0.00    +0.028 A 
ATOM      5  N   UNL     1       1.093   2.286   0.004  0.00  0.00    -0.352 N 
ATOM      6  H   UNL     1       2.015   1.984  -0.006  0.00  0.00    +0.166 HD
ATOM      7  C   UNL     1      -0.018   1.462   0.010  0.00  0.00    +0.128 A 
ATOM      8  C   UNL     1       1.531   4.815   0.006  0.00  0.00    +0.062 C 
ATOM      9  C   UNL     1       0.675   5.985  -0.488  0.00  0.00    +0.032 C 
ATOM     10  C   UNL     1      -0.625   6.083   0.318  0.00  0.00    +0.088 C 
ATOM     11  C   UNL     1      -1.454   4.837   0.046  0.00  0.00    +0.166 C 
ATOM     12  O   UNL     1      -2.651   4.880  -0.143  0.00  0.00    -0.292 OA
ENDROOT
BRANCH   9  13
ATOM     13  C   UNL     1       1.451   7.268  -0.335  0.00  0.00    -0.043 A 
ATOM     14  C   UNL     1       1.878   7.671   0.917  0.00  0.00    +0.006 A 
ATOM     15  C   UNL     1       2.595   8.843   1.060  0.00  0.00    +0.023 A 
ATOM     16  C   UNL     1       2.877   9.622  -0.054  0.00  0.00    +0.029 A 
ATOM     17  C   UNL     1       2.443   9.217  -1.310  0.00  0.00    +0.023 A 
ATOM     18  C   UNL     1       1.731   8.041  -1.446  0.00  0.00    +0.006 A 
BRANCH  16  19
ATOM     19  N   UNL     1       3.598  10.811   0.088  0.00  0.00    -0.336 N 
ATOM     20  C   UNL     1       3.895  11.631  -1.089  0.00  0.00    +0.129 C 
ATOM     21  C   UNL     1       4.055  11.236   1.413  0.00  0.00    +0.129 C 
ENDBRANCH  16  19
ENDBRANCH   9  13
BRANCH   7  22
ATOM     22  C   UNL     1       0.002  -0.004   0.002  0.00  0.00    +0.356 C 
ATOM     23  O   UNL     1      -1.043  -0.626   0.008  0.00  0.00    -0.243 OA
BRANCH  22  24
ATOM     24  O   UNL     1       1.179  -0.662  -0.012  0.00  0.00    -0.457 OA
BRANCH  24  25
ATOM     25  C   UNL     1       1.123  -2.113  -0.019  0.00  0.00    +0.180 C 
ATOM     26  C   UNL     1       1.142  -2.634  -1.467  0.00  0.00    +0.045 C 
ATOM     27  C   UNL     1       2.402  -3.514  -1.603  0.00  0.00    +0.004 C 
ATOM     28  C   UNL     1       2.712  -3.959  -0.152  0.00  0.00    +0.007 C 
ATOM     29  C   UNL     1       2.372  -2.694   0.675  0.00  0.00    +0.027 C 
ATOM     30  C   UNL     1       2.052  -3.070   2.124  0.00  0.00    +0.011 C 
ENDBRANCH  24  25
ENDBRANCH  22  24
ENDBRANCH   7  22
TORSDOF 5
