REMARK  Name = ZINC12378181
REMARK  7 active torsions:
REMARK  status: ('A' for Active; 'I' for Inactive)
REMARK    1  A    between atoms: C_1  and  C_2
REMARK    2  A    between atoms: C_2  and  C_25
REMARK    3  A    between atoms: C_5  and  C_22
REMARK    4  A    between atoms: C_6  and  N_12
REMARK    5  A    between atoms: C_9  and  C_10
REMARK    6  A    between atoms: C_9  and  C_11
REMARK    7  A    between atoms: C_13  and  C_15
REMARK                            x       y       z     vdW  Elec       q    Type
REMARK                         _______ _______ _______ _____ _____    ______ ____
ROOT
ATOM      1  C   UNL     1      -0.013   1.086   0.008  0.00  0.00    -0.010 C 
ATOM      2  C   UNL     1      -0.729   1.579   1.268  0.00  0.00    -0.069 C 
ATOM      3  C   UNL     1      -2.138   0.981   1.315  0.00  0.00    +0.024 C 
ATOM      4  C   UNL     1      -2.978   1.646   0.234  0.00  0.00    -0.026 A 
ATOM      5  C   UNL     1      -4.121   1.049  -0.427  0.00  0.00    +0.068 A 
ATOM      6  C   UNL     1      -4.781   1.815  -1.380  0.00  0.00    +0.085 A 
ATOM      7  S   UNL     1      -3.885   3.298  -1.385  0.00  0.00    -0.079 S 
ATOM      8  C   UNL     1      -2.671   2.903  -0.159  0.00  0.00    -0.016 A 
ATOM      9  C   UNL     1      -1.547   3.748   0.345  0.00  0.00    -0.041 C 
ATOM     10  C   UNL     1      -2.151   5.001   1.012  0.00  0.00    -0.005 C 
ATOM     11  C   UNL     1      -0.680   4.213  -0.831  0.00  0.00    -0.005 C 
ATOM     12  C   UNL     1       0.048   1.047   2.488  0.00  0.00    -0.010 C 
ATOM     13  N   UNL     1      -0.716   3.061   1.374  0.00  0.00    +0.389 N 
ATOM     14  H   UNL     1       0.254   3.383   1.275  0.00  0.00    -0.084 HD
ATOM     15  H   UNL     1      -1.070   3.321   2.302  0.00  0.00    -0.084 HD
ENDROOT
BRANCH   5  16
ATOM     16  C   UNL     1      -4.574  -0.308  -0.107  0.00  0.00    +0.244 C 
ATOM     17  O   UNL     1      -5.397  -0.484   0.773  0.00  0.00    -0.270 OA
ATOM     18  N   UNL     1      -4.080  -1.362  -0.788  0.00  0.00    -0.325 N 
ATOM     19  H   UNL     1      -3.425  -1.222  -1.489  0.00  0.00    +0.145 HD
ATOM     20  H   UNL     1      -4.380  -2.260  -0.577  0.00  0.00    +0.145 HD
ENDBRANCH   5  16
BRANCH   6  21
ATOM     21  N   UNL     1      -5.887   1.475  -2.141  0.00  0.00    -0.275 N 
ATOM     22  C   UNL     1      -6.395   2.356  -3.025  0.00  0.00    +0.250 C 
ATOM     23  O   UNL     1      -5.882   3.451  -3.155  0.00  0.00    -0.270 OA
ATOM     24  H   UNL     1      -6.297   0.601  -2.038  0.00  0.00    +0.156 HD
BRANCH  22  25
ATOM     25  C   UNL     1      -7.575   1.993  -3.837  0.00  0.00    +0.050 A 
ATOM     26  C   UNL     1      -8.163   0.734  -3.695  0.00  0.00    +0.014 A 
ATOM     27  C   UNL     1      -9.267   0.403  -4.452  0.00  0.00    +0.001 A 
ATOM     28  C   UNL     1      -9.786   1.311  -5.359  0.00  0.00    +0.001 A 
ATOM     29  C   UNL     1      -9.206   2.557  -5.509  0.00  0.00    +0.015 A 
ATOM     30  C   UNL     1      -8.103   2.904  -4.754  0.00  0.00    +0.025 A 
ATOM     31  I   UNL     1      -7.225   4.792  -4.983  0.00  0.00    -0.043 I 
ENDBRANCH  22  25
ENDBRANCH   6  21
TORSDOF 3
