REMARK  Name = ZINC07646509
REMARK  8 active torsions:
REMARK  status: ('A' for Active; 'I' for Inactive)
REMARK    1  A    between atoms: C_1  and  C_2
REMARK    2  A    between atoms: C_2  and  C_4
REMARK    3  A    between atoms: C_2  and  N_24
REMARK    4  A    between atoms: C_4  and  O_6
REMARK    5  A    between atoms: O_6  and  C_7
REMARK    6  A    between atoms: C_7  and  C_8
REMARK    7  A    between atoms: N_13  and  C_14
REMARK    8  A    between atoms: C_25  and  C_27
REMARK                            x       y       z     vdW  Elec       q    Type
REMARK                         _______ _______ _______ _____ _____    ______ ____
ROOT
ATOM      1  C   UNL     1      10.794  -0.043   1.221  0.00  0.00    +0.258 C 
ATOM      2  O   UNL     1      10.919  -1.167   0.783  0.00  0.00    -0.272 OA
ATOM      3  N   UNL     1      11.863   0.607   1.722  0.00  0.00    -0.237 N 
ATOM      4  C   UNL     1      13.070   0.009   1.736  0.00  0.00    +0.306 C 
ATOM      5  O   UNL     1      13.196  -1.117   1.297  0.00  0.00    -0.252 OA
ATOM      6  N   UNL     1      14.139   0.660   2.237  0.00  0.00    -0.294 N 
ATOM      7  H   UNL     1      11.763   1.506   2.072  0.00  0.00    +0.159 HD
ATOM      8  H   UNL     1      14.039   1.559   2.587  0.00  0.00    +0.151 HD
ENDROOT
BRANCH   6   9
ATOM      9  C   UNL     1      15.452   0.009   2.253  0.00  0.00    +0.037 C 
ATOM     10  C   UNL     1      15.376  -1.272   3.085  0.00  0.00    +0.029 C 
ATOM     11  C   UNL     1      16.747  -1.952   3.101  0.00  0.00    -0.008 C 
ATOM     12  C   UNL     1      17.778  -1.004   3.716  0.00  0.00    +0.007 C 
ATOM     13  C   UNL     1      17.854   0.278   2.884  0.00  0.00    -0.008 C 
ATOM     14  C   UNL     1      16.483   0.957   2.868  0.00  0.00    +0.029 C 
ATOM     15  C   UNL     1      18.269  -0.067   1.453  0.00  0.00    +0.007 C 
ATOM     16  C   UNL     1      17.238  -1.015   0.837  0.00  0.00    -0.008 C 
ATOM     17  C   UNL     1      17.162  -2.297   1.669  0.00  0.00    +0.007 C 
ATOM     18  C   UNL     1      15.867  -0.336   0.821  0.00  0.00    +0.029 C 
ENDBRANCH   6   9
BRANCH   1  19
ATOM     19  C   UNL     1       9.444   0.625   1.205  0.00  0.00    +0.328 C 
BRANCH  19  20
ATOM     20  O   UNL     1       8.465  -0.274   0.621  0.00  0.00    -0.454 OA
BRANCH  20  21
ATOM     21  C   UNL     1       7.203   0.174   0.533  0.00  0.00    +0.328 C 
ATOM     22  O   UNL     1       6.925   1.280   0.930  0.00  0.00    -0.249 OA
BRANCH  21  24
ATOM     23  C   UNL     1       6.502  -1.053  -1.505  0.00  0.00    +0.040 C 
ATOM     24  C   UNL     1       6.132  -0.704  -0.063  0.00  0.00    +0.179 C 
BRANCH  24  25
ATOM     25  N   UNL     1       4.852   0.008  -0.046  0.00  0.00    -0.299 N 
ATOM     26  C   UNL     1       3.696  -0.685  -0.038  0.00  0.00    +0.245 C 
ATOM     27  O   UNL     1       3.715  -1.900  -0.046  0.00  0.00    -0.270 OA
ATOM     28  H   UNL     1       4.836   0.978  -0.040  0.00  0.00    +0.150 HD
BRANCH  26  29
ATOM     29  C   UNL     1       2.403   0.034  -0.021  0.00  0.00    +0.037 A 
ATOM     30  C   UNL     1       1.204  -0.681  -0.013  0.00  0.00    +0.013 A 
ATOM     31  C   UNL     1       0.002  -0.004   0.002  0.00  0.00    +0.001 A 
ATOM     32  C   UNL     1      -0.017   1.379   0.010  0.00  0.00    +0.000 A 
ATOM     33  C   UNL     1       1.168   2.094   0.002  0.00  0.00    +0.001 A 
ATOM     34  C   UNL     1       2.377   1.429  -0.013  0.00  0.00    +0.013 A 
ENDBRANCH  26  29
ENDBRANCH  24  25
ENDBRANCH  21  24
ENDBRANCH  20  21
ENDBRANCH  19  20
ENDBRANCH   1  19
TORSDOF 7
