REMARK  Name = ZINC38899560
REMARK  7 active torsions:
REMARK  status: ('A' for Active; 'I' for Inactive)
REMARK    1  A    between atoms: C_5  and  C_7
REMARK    2  A    between atoms: C_7  and  N_8
REMARK    3  A    between atoms: C_16  and  S_18
REMARK    4  A    between atoms: S_18  and  C_19
REMARK    5  A    between atoms: C_19  and  C_20
REMARK    6  A    between atoms: N_22  and  N_23
REMARK    7  A    between atoms: C_24  and  C_25
REMARK                            x       y       z     vdW  Elec       q    Type
REMARK                         _______ _______ _______ _____ _____    ______ ____
ROOT
ATOM      1  N   UNL     1       1.370  -2.677   1.351  0.00  0.00    -0.297 N 
ATOM      2  C   UNL     1       2.573  -2.903   2.033  0.00  0.00    +0.053 A 
ATOM      3  C   UNL     1       3.890  -2.734   1.620  0.00  0.00    +0.025 A 
ATOM      4  C   UNL     1       4.930  -3.028   2.481  0.00  0.00    +0.002 A 
ATOM      5  C   UNL     1       4.665  -3.491   3.756  0.00  0.00    +0.002 A 
ATOM      6  C   UNL     1       3.360  -3.662   4.176  0.00  0.00    +0.025 A 
ATOM      7  C   UNL     1       2.307  -3.369   3.317  0.00  0.00    +0.050 A 
ATOM      8  N   UNL     1       0.922  -3.461   3.511  0.00  0.00    -0.316 N 
ATOM      9  C   UNL     1       0.276  -3.018   2.270  0.00  0.00    +0.220 C 
ATOM     10  H   UNL     1       0.473  -3.758   4.318  0.00  0.00    +0.149 HD
ENDROOT
BRANCH   1  11
ATOM     11  C   UNL     1       1.229  -2.186  -0.022  0.00  0.00    +0.144 C 
BRANCH  11  16
ATOM     12  C   UNL     1       2.613  -4.667  -2.508  0.00  0.00    +0.000 A 
ATOM     13  C   UNL     1       1.510  -5.466  -2.745  0.00  0.00    +0.001 A 
ATOM     14  C   UNL     1       0.316  -5.205  -2.100  0.00  0.00    +0.020 A 
ATOM     15  C   UNL     1       0.224  -4.143  -1.218  0.00  0.00    +0.046 A 
ATOM     16  C   UNL     1       1.328  -3.343  -0.982  0.00  0.00    -0.012 A 
ATOM     17  C   UNL     1       2.522  -3.606  -1.627  0.00  0.00    +0.006 A 
ATOM     18 CL   UNL     1      -1.276  -3.813  -0.409  0.00  0.00    -0.083 Cl
ENDBRANCH  11  16
ENDBRANCH   1  11
BRANCH   9  19
ATOM     19  S   UNL     1      -0.756  -1.559   2.582  0.00  0.00    -0.110 S 
BRANCH  19  20
ATOM     20  C   UNL     1       0.390  -0.359   3.314  0.00  0.00    +0.170 C 
BRANCH  20  21
ATOM     21  C   UNL     1      -0.350   0.917   3.626  0.00  0.00    +0.242 C 
ATOM     22  O   UNL     1      -1.533   1.007   3.379  0.00  0.00    -0.273 OA
ATOM     23  N   UNL     1       0.304   1.957   4.179  0.00  0.00    -0.206 N 
ATOM     24  H   UNL     1       1.251   1.885   4.376  0.00  0.00    +0.177 HD
BRANCH  23  25
ATOM     25  N   UNL     1      -0.384   3.143   4.469  0.00  0.00    -0.188 NA
ATOM     26  C   UNL     1       0.252   4.153   5.006  0.00  0.00    +0.136 C 
BRANCH  26  27
ATOM     27  C   UNL     1      -0.437   5.340   5.297  0.00  0.00    +0.000 C 
ATOM     28  C   UNL     1       0.087   6.501   5.859  0.00  0.00    +0.004 A 
ATOM     29  C   UNL     1       1.385   6.850   6.294  0.00  0.00    +0.010 A 
ATOM     30  C   UNL     1       1.612   8.082   6.814  0.00  0.00    +0.001 A 
ATOM     31  C   UNL     1       0.589   9.027   6.935  0.00  0.00    +0.002 A 
ATOM     32  C   UNL     1      -0.679   8.762   6.539  0.00  0.00    +0.026 A 
ATOM     33  C   UNL     1      -0.995   7.493   5.984  0.00  0.00    +0.043 A 
ATOM     34  N   UNL     1      -2.128   6.997   5.532  0.00  0.00    -0.380 N 
ATOM     35  C   UNL     1      -1.902   5.629   5.058  0.00  0.00    +0.150 C 
ATOM     36  H   UNL     1      -2.977   7.466   5.513  0.00  0.00    +0.160 HD
ENDBRANCH  26  27
ENDBRANCH  23  25
ENDBRANCH  20  21
ENDBRANCH  19  20
ENDBRANCH   9  19
TORSDOF 7
