REMARK  Name = ZINC00958424
REMARK  12 active torsions:
REMARK  status: ('A' for Active; 'I' for Inactive)
REMARK    1  A    between atoms: C_1  and  C_2
REMARK    2  A    between atoms: C_2  and  C_3
REMARK    3  A    between atoms: C_3  and  C_5
REMARK    4  A    between atoms: C_3  and  O_6
REMARK    5  A    between atoms: O_6  and  C_7
REMARK    6  A    between atoms: C_7  and  C_9
REMARK    7  A    between atoms: C_9  and  N_10
REMARK    8  A    between atoms: C_17  and  C_31
REMARK    9  A    between atoms: C_18  and  C_20
REMARK   10  A    between atoms: N_22  and  C_23
REMARK   11  A    between atoms: C_26  and  C_30
REMARK   12  A    between atoms: C_28  and  C_29
REMARK                            x       y       z     vdW  Elec       q    Type
REMARK                         _______ _______ _______ _____ _____    ______ ____
ROOT
ATOM      1  N   UNL     1       7.056  -4.371   0.536  0.00  0.00    -0.288 N 
ATOM      2  C   UNL     1       7.939  -3.342   0.496  0.00  0.00    +0.203 A 
ATOM      3  N   UNL     1       7.548  -2.101   0.395  0.00  0.00    -0.230 NA
ATOM      4  C   UNL     1       6.262  -1.780   0.326  0.00  0.00    +0.116 A 
ATOM      5  C   UNL     1       5.246  -2.762   0.358  0.00  0.00    +0.076 A 
ATOM      6  C   UNL     1       5.727  -4.157   0.473  0.00  0.00    +0.263 A 
ATOM      7  O   UNL     1       4.942  -5.088   0.509  0.00  0.00    -0.267 OA
ATOM      8  C   UNL     1       3.936  -2.283   0.282  0.00  0.00    -0.017 A 
ATOM      9  C   UNL     1       3.708  -0.942   0.175  0.00  0.00    +0.080 A 
ATOM     10  S   UNL     1       5.357  -0.260   0.187  0.00  0.00    -0.064 S 
ATOM     11  C   UNL     1       2.777  -3.246   0.315  0.00  0.00    +0.046 C 
ENDROOT
BRANCH   9  12
ATOM     12  C   UNL     1       2.426  -0.237   0.080  0.00  0.00    +0.255 C 
ATOM     13  O   UNL     1       1.384  -0.865   0.087  0.00  0.00    -0.269 OA
ATOM     14  N   UNL     1       2.402   1.107  -0.015  0.00  0.00    -0.281 N 
ATOM     15  H   UNL     1       3.232   1.603  -0.086  0.00  0.00    +0.155 HD
BRANCH  14  16
ATOM     16  C   UNL     1       1.180   1.787  -0.010  0.00  0.00    +0.037 A 
ATOM     17  C   UNL     1       0.064   1.216  -0.608  0.00  0.00    +0.024 A 
ATOM     18  C   UNL     1      -1.140   1.892  -0.607  0.00  0.00    +0.005 A 
ATOM     19  C   UNL     1      -1.238   3.131  -0.000  0.00  0.00    -0.050 A 
ATOM     20  C   UNL     1      -0.130   3.702   0.596  0.00  0.00    +0.008 A 
ATOM     21  C   UNL     1       1.079   3.034   0.593  0.00  0.00    -0.029 A 
ATOM     22  C   UNL     1       2.287   3.657   1.244  0.00  0.00    +0.045 C 
ATOM     23  C   UNL     1      -2.556   3.863   0.005  0.00  0.00    +0.044 C 
ENDBRANCH  14  16
ENDBRANCH   9  12
BRANCH   1  24
ATOM     24  C   UNL     1       7.557  -5.743   0.649  0.00  0.00    +0.246 C 
BRANCH  24  25
ATOM     25  C   UNL     1       7.780  -6.312  -0.728  0.00  0.00    +0.327 C 
ATOM     26  O   UNL     1       7.545  -5.640  -1.705  0.00  0.00    -0.249 OA
BRANCH  25  27
ATOM     27  O   UNL     1       8.241  -7.564  -0.870  0.00  0.00    -0.460 OA
BRANCH  27  28
ATOM     28  C   UNL     1       8.432  -8.046  -2.227  0.00  0.00    +0.173 C 
ATOM     29  C   UNL     1       7.145  -8.712  -2.717  0.00  0.00    +0.052 C 
BRANCH  28  31
ATOM     30  C   UNL     1      10.885  -8.370  -1.879  0.00  0.00    +0.007 C 
ATOM     31  C   UNL     1       9.574  -9.065  -2.250  0.00  0.00    +0.041 C 
ENDBRANCH  28  31
ENDBRANCH  27  28
ENDBRANCH  25  27
ENDBRANCH  24  25
ENDBRANCH   1  24
TORSDOF 7
