REMARK  Name = ZINC37129251
REMARK  3 active torsions:
REMARK  status: ('A' for Active; 'I' for Inactive)
REMARK    1  A    between atoms: C_5  and  N_8
REMARK    2  A    between atoms: N_8  and  C_9
REMARK    3  A    between atoms: C_9  and  C_10
REMARK                            x       y       z     vdW  Elec       q    Type
REMARK                         _______ _______ _______ _____ _____    ______ ____
ROOT
ATOM      1  C   UNL     1       2.057   1.282  -1.166  0.00  0.00    +0.044 A 
ATOM      2  C   UNL     1       1.062   2.062  -0.678  0.00  0.00    +0.071 A 
ATOM      3  C   UNL     1       0.006   1.485   0.081  0.00  0.00    +0.120 A 
ATOM      4  C   UNL     1       0.026   0.047   0.317  0.00  0.00    +0.123 A 
ATOM      5  C   UNL     1       1.105  -0.714  -0.225  0.00  0.00    +0.074 A 
ATOM      6  C   UNL     1       2.082  -0.094  -0.943  0.00  0.00    +0.065 A 
ATOM      7 CL   UNL     1       3.385  -1.037  -1.594  0.00  0.00    -0.082 Cl
ATOM      8  N   UNL     1      -1.009  -0.381   1.039  0.00  0.00    -0.189 NA
ATOM      9  S   UNL     1      -1.886   0.929   1.360  0.00  0.00    +0.117 S 
ATOM     10  N   UNL     1      -1.045   2.092   0.634  0.00  0.00    -0.189 NA
ATOM     11 CL   UNL     1       1.075   3.771  -0.982  0.00  0.00    -0.081 Cl
ENDROOT
BRANCH   5  12
ATOM     12  N   UNL     1       1.158  -2.093  -0.020  0.00  0.00    -0.341 N 
ATOM     13  H   UNL     1       1.987  -2.574  -0.170  0.00  0.00    +0.146 HD
BRANCH  12  14
ATOM     14  C   UNL     1      -0.038  -2.815   0.422  0.00  0.00    +0.105 C 
BRANCH  14  15
ATOM     15  C   UNL     1       0.249  -4.318   0.434  0.00  0.00    +0.006 C 
ATOM     16  C   UNL     1      -0.557  -5.199  -0.521  0.00  0.00    +0.005 C 
ATOM     17  C   UNL     1      -0.842  -5.241   0.981  0.00  0.00    +0.005 C 
ENDBRANCH  14  15
ENDBRANCH  12  14
ENDBRANCH   5  12
TORSDOF 3
