REMARK  Name = ZINC13064510
REMARK  18 active torsions:
REMARK  status: ('A' for Active; 'I' for Inactive)
REMARK    1  A    between atoms: C_1  and  C_2
REMARK    2  A    between atoms: C_2  and  C_3
REMARK    3  A    between atoms: C_3  and  C_5
REMARK    4  A    between atoms: C_3  and  N_76
REMARK    5  A    between atoms: N_9  and  C_10
REMARK    6  A    between atoms: C_10  and  C_11
REMARK    7  A    between atoms: C_10  and  C_12
REMARK    8  A    between atoms: C_10  and  C_13
REMARK    9  A    between atoms: C_13  and  C_14
REMARK   10  A    between atoms: C_15  and  C_16
REMARK   11  A    between atoms: C_15  and  N_76
REMARK   12  A    between atoms: C_19  and  C_22
REMARK   13  A    between atoms: C_23  and  C_24
REMARK   14  A    between atoms: C_23  and  N_76
REMARK   15  A    between atoms: C_28  and  O_38
REMARK   16  A    between atoms: C_29  and  O_36
REMARK   17  A    between atoms: O_36  and  C_37
REMARK   18  A    between atoms: O_38  and  C_39
REMARK                            x       y       z     vdW  Elec       q    Type
REMARK                         _______ _______ _______ _____ _____    ______ ____
ROOT
ATOM      1  N   UNL     1       0.764  -1.050   4.112  0.00  0.00    +0.392 N 
ATOM      2  H   UNL     1       0.033  -1.750   3.937  0.00  0.00    -0.080 HD
ENDROOT
BRANCH   1   3
ATOM      3  C   UNL     1       0.852  -0.146   2.946  0.00  0.00    +0.003 C 
BRANCH   3   4
ATOM      4  C   UNL     1      -0.535   0.074   2.401  0.00  0.00    +0.139 A 
ATOM      5  N   UNL     1      -1.639   0.194   3.098  0.00  0.00    -0.115 NA
ATOM      6  N   UNL     1      -2.614   0.364   2.272  0.00  0.00    -0.023 NA
ATOM      7  N   UNL     1      -2.160   0.361   1.068  0.00  0.00    -0.043 NA
ATOM      8  N   UNL     1      -0.882   0.187   1.106  0.00  0.00    -0.225 N 
BRANCH   8   9
ATOM      9  C   UNL     1       0.022   0.120  -0.045  0.00  0.00    +0.061 C 
ATOM     10  C   UNL     1       0.621  -1.284  -0.142  0.00  0.00    +0.036 C 
ATOM     11  C   UNL     1       1.146   1.143   0.128  0.00  0.00    +0.036 C 
BRANCH   9  12
ATOM     12  C   UNL     1      -0.758   0.431  -1.325  0.00  0.00    +0.026 C 
ATOM     13  C   UNL     1       0.185   0.361  -2.527  0.00  0.00    +0.006 C 
ENDBRANCH   9  12
ENDBRANCH   8   9
ENDBRANCH   3   4
BRANCH   3  15
ATOM     14  C   UNL     1       2.860   0.973   3.925  0.00  0.00    +0.002 C 
ATOM     15  C   UNL     1       1.458   1.198   3.357  0.00  0.00    -0.011 C 
ENDBRANCH   3  15
ENDBRANCH   1   3
BRANCH   1  16
ATOM     16  C   UNL     1       2.054  -1.744   4.312  0.00  0.00    -0.042 C 
BRANCH  16  17
ATOM     17  C   UNL     1       2.212  -2.791   3.240  0.00  0.00    -0.064 A 
ATOM     18  C   UNL     1       1.518  -3.983   3.330  0.00  0.00    +0.002 A 
ATOM     19  C   UNL     1       1.659  -4.942   2.345  0.00  0.00    +0.003 A 
ATOM     20  C   UNL     1       2.502  -4.713   1.273  0.00  0.00    -0.050 A 
ATOM     21  C   UNL     1       3.200  -3.523   1.185  0.00  0.00    +0.003 A 
ATOM     22  C   UNL     1       3.055  -2.563   2.168  0.00  0.00    +0.002 A 
ATOM     23  C   UNL     1       2.659  -5.761   0.201  0.00  0.00    +0.044 C 
ENDBRANCH  16  17
ENDBRANCH   1  16
BRANCH   1  24
ATOM     24  C   UNL     1       0.412  -0.280   5.323  0.00  0.00    -0.036 C 
BRANCH  24  25
ATOM     25  C   UNL     1      -1.080  -0.068   5.341  0.00  0.00    +0.001 A 
ATOM     26  C   UNL     1      -1.911  -1.124   5.532  0.00  0.00    +0.017 A 
ATOM     27  C   UNL     1      -3.354  -0.884   5.549  0.00  0.00    +0.002 A 
ATOM     28  C   UNL     1      -4.258  -1.936   5.747  0.00  0.00    +0.059 A 
ATOM     29  C   UNL     1      -5.611  -1.679   5.753  0.00  0.00    +0.162 A 
ATOM     30  C   UNL     1      -6.082  -0.376   5.563  0.00  0.00    +0.163 A 
ATOM     31  C   UNL     1      -5.198   0.669   5.367  0.00  0.00    +0.075 A 
ATOM     32  C   UNL     1      -3.830   0.427   5.358  0.00  0.00    +0.053 A 
ATOM     33  N   UNL     1      -2.932   1.456   5.164  0.00  0.00    -0.322 N 
ATOM     34  H   UNL     1      -3.260   2.360   5.033  0.00  0.00    +0.169 HD
ATOM     35  C   UNL     1      -1.607   1.226   5.155  0.00  0.00    +0.251 A 
ATOM     36  O   UNL     1      -0.843   2.160   4.981  0.00  0.00    -0.268 OA
BRANCH  30  37
ATOM     37  O   UNL     1      -7.419  -0.136   5.570  0.00  0.00    -0.491 OA
ATOM     38  C   UNL     1      -7.836   1.217   5.370  0.00  0.00    +0.277 C 
ENDBRANCH  30  37
BRANCH  29  39
ATOM     39  O   UNL     1      -6.492  -2.697   5.944  0.00  0.00    -0.491 OA
ATOM     40  C   UNL     1      -5.944  -4.004   6.132  0.00  0.00    +0.277 C 
ENDBRANCH  29  39
ENDBRANCH  24  25
ENDBRANCH   1  24
TORSDOF 11
