REMARK  Name = ZINC20027841
REMARK  9 active torsions:
REMARK  status: ('A' for Active; 'I' for Inactive)
REMARK    1  A    between atoms: C_1  and  C_2
REMARK    2  A    between atoms: C_5  and  O_12
REMARK    3  A    between atoms: C_6  and  C_8
REMARK    4  A    between atoms: C_8  and  C_9
REMARK    5  A    between atoms: C_8  and  C_10
REMARK    6  A    between atoms: C_8  and  C_11
REMARK    7  A    between atoms: O_12  and  C_13
REMARK    8  A    between atoms: C_16  and  N_17
REMARK    9  A    between atoms: C_16  and  N_18
REMARK                            x       y       z     vdW  Elec       q    Type
REMARK                         _______ _______ _______ _____ _____    ______ ____
ROOT
ATOM      1  C   UNL     1       0.115  -5.452  -0.901  0.00  0.00    +0.191 C 
ATOM      2  C   UNL     1      -1.125  -5.860  -1.356  0.00  0.00    +0.074 C 
ATOM      3  C   UNL     1      -1.265  -6.237  -2.696  0.00  0.00    +0.024 C 
ATOM      4  C   UNL     1      -2.573  -6.678  -3.220  0.00  0.00    +0.168 C 
ATOM      5  C   UNL     1      -0.135  -6.187  -3.536  0.00  0.00    +0.027 C 
ATOM      6  C   UNL     1       1.055  -5.778  -3.032  0.00  0.00    +0.075 C 
ATOM      7  N   UNL     1       1.171  -5.413  -1.739  0.00  0.00    -0.292 N 
ATOM      8  H   UNL     1       2.033  -5.121  -1.404  0.00  0.00    +0.154 HD
ENDROOT
BRANCH   4   9
ATOM      9  N   UNL     1      -2.667  -7.196  -4.508  0.00  0.00    -0.340 N 
ATOM     10  H   UNL     1      -1.874  -7.268  -5.061  0.00  0.00    +0.144 HD
ATOM     11  H   UNL     1      -3.526  -7.486  -4.853  0.00  0.00    +0.144 HD
ENDBRANCH   4   9
BRANCH   4  12
ATOM     12  N   UNL     1      -3.639  -6.581  -2.477  0.00  0.00    -0.015 NA
ATOM     13  O   UNL     1      -3.579  -6.022  -1.396  0.00  0.00    -0.142 OA
ENDBRANCH   4  12
BRANCH   1  14
ATOM     14  O   UNL     1       0.268  -5.084   0.390  0.00  0.00    -0.441 OA
BRANCH  14  19
ATOM     15  C   UNL     1       1.497   0.304   1.478  0.00  0.00    +0.044 C 
ATOM     16  C   UNL     1       1.169  -1.138   1.187  0.00  0.00    -0.050 A 
ATOM     17  C   UNL     1       1.035  -1.565  -0.122  0.00  0.00    +0.007 A 
ATOM     18  C   UNL     1       0.734  -2.886  -0.391  0.00  0.00    +0.047 A 
ATOM     19  C   UNL     1       0.565  -3.784   0.653  0.00  0.00    +0.134 A 
ATOM     20  C   UNL     1       0.700  -3.354   1.964  0.00  0.00    +0.001 A 
ATOM     21  C   UNL     1       1.006  -2.033   2.228  0.00  0.00    +0.011 A 
BRANCH  20  22
ATOM     22  C   UNL     1       0.517  -4.327   3.100  0.00  0.00    -0.009 C 
ATOM     23  C   UNL     1       0.718  -3.600   4.432  0.00  0.00    +0.015 C 
ATOM     24  C   UNL     1      -0.896  -4.913   3.047  0.00  0.00    +0.015 C 
ATOM     25  C   UNL     1       1.542  -5.455   2.976  0.00  0.00    +0.015 C 
ENDBRANCH  20  22
ENDBRANCH  14  19
ENDBRANCH   1  14
TORSDOF 5
