REMARK  Name = ZINC58755514
REMARK  9 active torsions:
REMARK  status: ('A' for Active; 'I' for Inactive)
REMARK    1  A    between atoms: C_4  and  C_7
REMARK    2  A    between atoms: C_7  and  C_8
REMARK    3  A    between atoms: C_7  and  C_25
REMARK    4  A    between atoms: C_8  and  C_9
REMARK    5  A    between atoms: C_9  and  N_10
REMARK    6  A    between atoms: N_13  and  C_14
REMARK    7  A    between atoms: C_14  and  C_15
REMARK    8  A    between atoms: C_15  and  C_17
REMARK    9  A    between atoms: C_15  and  O_24
REMARK                            x       y       z     vdW  Elec       q    Type
REMARK                         _______ _______ _______ _____ _____    ______ ____
ROOT
ATOM      1  N   UNL     1       4.628  -3.135   2.724  0.00  0.00    -0.299 N 
ATOM      2  C   UNL     1       5.600  -3.979   3.125  0.00  0.00    +0.300 C 
ATOM      3  O   UNL     1       6.605  -4.111   2.454  0.00  0.00    -0.253 OA
ATOM      4  N   UNL     1       5.457  -4.678   4.268  0.00  0.00    -0.297 N 
ATOM      5  H   UNL     1       3.826  -3.030   3.260  0.00  0.00    +0.150 HD
ATOM      6  H   UNL     1       4.654  -4.573   4.803  0.00  0.00    +0.150 HD
ENDROOT
BRANCH   1   7
ATOM      7  C   UNL     1       4.784  -2.376   1.481  0.00  0.00    +0.106 C 
BRANCH   7   8
ATOM      8  C   UNL     1       3.549  -1.500   1.261  0.00  0.00    +0.031 C 
BRANCH   8   9
ATOM      9  C   UNL     1       3.711  -0.707  -0.038  0.00  0.00    +0.050 C 
BRANCH   9  13
ATOM     10  C   UNL     1       0.430   1.992  -0.479  0.00  0.00    +0.000 A 
ATOM     11  C   UNL     1       1.727   2.459  -0.578  0.00  0.00    +0.000 A 
ATOM     12  C   UNL     1       2.789   1.586  -0.435  0.00  0.00    +0.004 A 
ATOM     13  C   UNL     1       2.554   0.245  -0.193  0.00  0.00    -0.040 A 
ATOM     14  C   UNL     1       1.256  -0.222  -0.093  0.00  0.00    +0.004 A 
ATOM     15  C   UNL     1       0.195   0.652  -0.237  0.00  0.00    +0.000 A 
ENDBRANCH   9  13
BRANCH   9  16
ATOM     16  C   UNL     1       3.740  -1.658  -1.207  0.00  0.00    -0.040 A 
ATOM     17  C   UNL     1       2.732  -2.591  -1.363  0.00  0.00    +0.004 A 
ATOM     18  C   UNL     1       2.758  -3.463  -2.435  0.00  0.00    +0.000 A 
ATOM     19  C   UNL     1       3.791  -3.401  -3.351  0.00  0.00    +0.000 A 
ATOM     20  C   UNL     1       4.798  -2.467  -3.196  0.00  0.00    +0.000 A 
ATOM     21  C   UNL     1       4.770  -1.592  -2.126  0.00  0.00    +0.004 A 
ENDBRANCH   9  16
ENDBRANCH   8   9
ENDBRANCH   7   8
ENDBRANCH   1   7
BRANCH   4  22
ATOM     22  C   UNL     1       6.513  -5.596   4.703  0.00  0.00    +0.142 C 
BRANCH  22  23
ATOM     23  C   UNL     1       6.103  -6.256   6.021  0.00  0.00    +0.164 C 
BRANCH  23  24
ATOM     24  C   UNL     1       7.189  -7.200   6.468  0.00  0.00    +0.018 A 
ATOM     25  C   UNL     1       8.148  -6.774   7.368  0.00  0.00    +0.009 A 
ATOM     26  C   UNL     1       9.145  -7.640   7.778  0.00  0.00    +0.001 A 
ATOM     27  C   UNL     1       9.184  -8.933   7.290  0.00  0.00    +0.003 A 
ATOM     28  C   UNL     1       8.226  -9.361   6.390  0.00  0.00    +0.039 A 
ATOM     29  C   UNL     1       7.224  -8.496   5.982  0.00  0.00    +0.129 A 
ATOM     30  F   UNL     1       6.285  -8.915   5.107  0.00  0.00    -0.205 F 
ENDBRANCH  23  24
BRANCH  23  31
ATOM     31  O   UNL     1       5.906  -5.251   7.017  0.00  0.00    -0.386 OA
ATOM     32  H   UNL     1       6.691  -4.717   7.198  0.00  0.00    +0.210 HD
ENDBRANCH  23  31
ENDBRANCH  22  23
ENDBRANCH   4  22
TORSDOF 9
