REMARK  Name = ZINC34749191
REMARK  11 active torsions:
REMARK  status: ('A' for Active; 'I' for Inactive)
REMARK    1  A    between atoms: C_1  and  C_2
REMARK    2  A    between atoms: C_2  and  C_3
REMARK    3  A    between atoms: C_4  and  C_37
REMARK    4  A    between atoms: N_10  and  C_28
REMARK    5  A    between atoms: N_16  and  C_19
REMARK    6  A    between atoms: C_19  and  C_20
REMARK    7  A    between atoms: C_22  and  C_27
REMARK    8  A    between atoms: C_25  and  C_26
REMARK    9  A    between atoms: C_28  and  C_29
REMARK   10  A    between atoms: C_32  and  C_36
REMARK   11  A    between atoms: C_34  and  C_35
REMARK                            x       y       z     vdW  Elec       q    Type
REMARK                         _______ _______ _______ _____ _____    ______ ____
ROOT
ATOM      1  C   UNL     1      -1.426  -0.466  -0.430  0.00  0.00    -0.023 A 
ATOM      2  C   UNL     1      -2.150  -0.353   0.693  0.00  0.00    -0.007 A 
ATOM      3  S   UNL     1      -3.802  -0.765   0.163  0.00  0.00    -0.073 S 
ATOM      4  C   UNL     1      -3.471  -1.076  -1.552  0.00  0.00    +0.117 A 
ATOM      5  C   UNL     1      -2.087  -0.846  -1.666  0.00  0.00    +0.076 A 
ATOM      6  C   UNL     1      -1.533  -1.022  -2.973  0.00  0.00    +0.264 A 
ATOM      7  O   UNL     1      -0.342  -0.849  -3.167  0.00  0.00    -0.267 OA
ATOM      8  N   UNL     1      -2.343  -1.382  -3.985  0.00  0.00    -0.276 N 
ATOM      9  C   UNL     1      -3.678  -1.580  -3.787  0.00  0.00    +0.202 A 
ATOM     10  N   UNL     1      -4.213  -1.435  -2.593  0.00  0.00    -0.208 NA
ATOM     11  N   UNL     1      -4.472  -1.946  -4.845  0.00  0.00    -0.304 N 
ATOM     12  C   UNL     1      -4.366  -1.262  -6.143  0.00  0.00    +0.089 C 
ATOM     13  C   UNL     1      -5.771  -0.844  -6.588  0.00  0.00    -0.059 C 
ATOM     14  N   UNL     1      -6.652  -2.018  -6.593  0.00  0.00    +0.384 N 
ATOM     15  C   UNL     1      -6.807  -2.532  -5.226  0.00  0.00    -0.059 C 
ATOM     16  C   UNL     1      -5.449  -3.038  -4.715  0.00  0.00    +0.089 C 
ATOM     17  C   UNL     1      -1.681   0.029   2.073  0.00  0.00    +0.052 C 
ATOM     18  H   UNL     1      -6.250  -2.736  -7.177  0.00  0.00    -0.081 HD
ENDROOT
BRANCH   1  20
ATOM     19  C   UNL     1       0.308   1.287  -0.698  0.00  0.00    +0.009 C 
ATOM     20  C   UNL     1       0.057  -0.195  -0.411  0.00  0.00    +0.033 C 
ENDBRANCH   1  20
BRANCH  14  21
ATOM     21  C   UNL     1      -7.968  -1.639  -7.124  0.00  0.00    -0.043 C 
BRANCH  21  22
ATOM     22  C   UNL     1      -8.830  -2.868  -7.254  0.00  0.00    -0.061 A 
ATOM     23  C   UNL     1      -9.814  -3.125  -6.317  0.00  0.00    +0.005 A 
ATOM     24  C   UNL     1     -10.605  -4.252  -6.436  0.00  0.00    -0.050 A 
ATOM     25  C   UNL     1     -10.412  -5.123  -7.493  0.00  0.00    +0.003 A 
ATOM     26  C   UNL     1      -9.430  -4.866  -8.430  0.00  0.00    +0.004 A 
ATOM     27  C   UNL     1      -8.641  -3.736  -8.313  0.00  0.00    -0.049 A 
ATOM     28  C   UNL     1      -7.573  -3.453  -9.338  0.00  0.00    +0.044 C 
ATOM     29  C   UNL     1     -11.677  -4.532  -5.415  0.00  0.00    +0.044 C 
ENDBRANCH  21  22
ENDBRANCH  14  21
BRANCH   8  30
ATOM     30  C   UNL     1      -1.781  -1.564  -5.326  0.00  0.00    +0.163 C 
BRANCH  30  31
ATOM     31  C   UNL     1      -0.720  -2.634  -5.284  0.00  0.00    -0.025 A 
ATOM     32  C   UNL     1       0.617  -2.283  -5.326  0.00  0.00    +0.006 A 
ATOM     33  C   UNL     1       1.590  -3.264  -5.288  0.00  0.00    +0.004 A 
ATOM     34  C   UNL     1       1.226  -4.596  -5.208  0.00  0.00    -0.050 A 
ATOM     35  C   UNL     1      -0.110  -4.946  -5.165  0.00  0.00    +0.007 A 
ATOM     36  C   UNL     1      -1.083  -3.964  -5.199  0.00  0.00    -0.045 A 
ATOM     37  C   UNL     1      -2.540  -4.346  -5.147  0.00  0.00    +0.044 C 
ATOM     38  C   UNL     1       2.287  -5.665  -5.168  0.00  0.00    +0.044 C 
ENDBRANCH  30  31
ENDBRANCH   8  30
TORSDOF 5
