REMARK  Name = ZINC63139545
REMARK  9 active torsions:
REMARK  status: ('A' for Active; 'I' for Inactive)
REMARK    1  A    between atoms: C_1  and  C_2
REMARK    2  A    between atoms: C_2  and  C_4
REMARK    3  A    between atoms: C_2  and  N_12
REMARK    4  A    between atoms: C_4  and  C_5
REMARK    5  A    between atoms: C_5  and  C_6
REMARK    6  A    between atoms: C_32  and  C_34
REMARK    7  A    between atoms: C_37  and  C_40
REMARK    8  A    between atoms: C_40  and  C_41
REMARK    9  A    between atoms: C_40  and  C_42
REMARK                            x       y       z     vdW  Elec       q    Type
REMARK                         _______ _______ _______ _____ _____    ______ ____
ROOT
ATOM      1  N   UNL     1      -1.372  -0.511   0.012  0.00  0.00    -0.288 N 
ATOM      2  C   UNL     1      -2.307  -0.191   1.107  0.00  0.00    +0.204 C 
ATOM      3  C   UNL     1      -3.636   0.209   0.502  0.00  0.00    +0.234 C 
ATOM      4  O   UNL     1      -4.258   1.166   0.914  0.00  0.00    -0.274 OA
ATOM      5  N   UNL     1      -4.104  -0.561  -0.534  0.00  0.00    -0.279 N 
ATOM      6  C   UNL     1      -3.297  -1.716  -0.865  0.00  0.00    +0.167 C 
ATOM      7  C   UNL     1      -1.853  -1.299  -0.994  0.00  0.00    +0.237 C 
ATOM      8  O   UNL     1      -1.163  -1.645  -1.930  0.00  0.00    -0.274 OA
ATOM      9  C   UNL     1      -3.743  -2.598  -2.002  0.00  0.00    +0.065 C 
ATOM     10  C   UNL     1      -4.878  -1.945  -2.742  0.00  0.00    -0.034 C 
ATOM     11  C   UNL     1      -5.159  -1.848  -4.034  0.00  0.00    -0.001 A 
ATOM     12  C   UNL     1      -4.484  -2.385  -5.227  0.00  0.00    +0.010 A 
ATOM     13  C   UNL     1      -5.050  -2.080  -6.425  0.00  0.00    +0.001 A 
ATOM     14  C   UNL     1      -6.205  -1.303  -6.554  0.00  0.00    +0.002 A 
ATOM     15  C   UNL     1      -6.893  -0.773  -5.512  0.00  0.00    +0.026 A 
ATOM     16  C   UNL     1      -6.398  -1.029  -4.200  0.00  0.00    +0.043 A 
ATOM     17  N   UNL     1      -6.856  -0.659  -3.042  0.00  0.00    -0.375 N 
ATOM     18  C   UNL     1      -5.990  -1.214  -1.994  0.00  0.00    +0.131 C 
ATOM     19  C   UNL     1      -5.315  -0.104  -1.202  0.00  0.00    +0.133 C 
ATOM     20  H   UNL     1      -7.640  -0.108  -2.894  0.00  0.00    +0.160 HD
ENDROOT
BRANCH  19  21
ATOM     21  C   UNL     1      -6.265   0.449  -0.171  0.00  0.00    -0.025 A 
ATOM     22  C   UNL     1      -6.400  -0.180   1.052  0.00  0.00    +0.006 A 
ATOM     23  C   UNL     1      -7.272   0.328   1.998  0.00  0.00    +0.004 A 
ATOM     24  C   UNL     1      -8.007   1.465   1.720  0.00  0.00    -0.045 A 
ATOM     25  C   UNL     1      -7.871   2.094   0.497  0.00  0.00    +0.004 A 
ATOM     26  C   UNL     1      -6.996   1.589  -0.447  0.00  0.00    +0.006 A 
BRANCH  24  27
ATOM     27  C   UNL     1      -8.958   2.018   2.750  0.00  0.00    +0.013 C 
ATOM     28  C   UNL     1      -8.542   3.445   3.114  0.00  0.00    +0.012 C 
ATOM     29  C   UNL     1     -10.377   2.030   2.180  0.00  0.00    +0.012 C 
ENDBRANCH  24  27
ENDBRANCH  19  21
BRANCH   1  31
ATOM     30  C   UNL     1      -0.019   1.526   0.010  0.00  0.00    +0.028 C 
ATOM     31  C   UNL     1       0.002  -0.004   0.002  0.00  0.00    +0.074 C 
BRANCH  31  32
ATOM     32  C   UNL     1       0.742  -0.511   1.242  0.00  0.00    +0.027 C 
BRANCH  32  33
ATOM     33  C   UNL     1       0.872  -2.034   1.171  0.00  0.00    +0.037 C 
BRANCH  33  34
ATOM     34  C   UNL     1       1.601  -2.533   2.392  0.00  0.00    -0.047 A 
ATOM     35  C   UNL     1       2.979  -2.641   2.378  0.00  0.00    +0.003 A 
ATOM     36  C   UNL     1       3.647  -3.099   3.498  0.00  0.00    +0.000 A 
ATOM     37  C   UNL     1       2.938  -3.448   4.632  0.00  0.00    +0.000 A 
ATOM     38  C   UNL     1       1.560  -3.340   4.646  0.00  0.00    +0.000 A 
ATOM     39  C   UNL     1       0.892  -2.878   3.527  0.00  0.00    +0.003 A 
ENDBRANCH  33  34
ENDBRANCH  32  33
ENDBRANCH  31  32
ENDBRANCH   1  31
TORSDOF 6
