REMARK  Name = ZINC05538801
REMARK  7 active torsions:
REMARK  status: ('A' for Active; 'I' for Inactive)
REMARK    1  A    between atoms: C_1  and  C_2
REMARK    2  A    between atoms: C_3  and  C_13
REMARK    3  A    between atoms: C_5  and  C_7
REMARK    4  A    between atoms: C_13  and  O_15
REMARK    5  A    between atoms: O_15  and  C_16
REMARK    6  A    between atoms: C_16  and  C_17
REMARK    7  A    between atoms: N_19  and  C_20
REMARK                            x       y       z     vdW  Elec       q    Type
REMARK                         _______ _______ _______ _____ _____    ______ ____
ROOT
ATOM      1  O   UNL     1       0.881  -2.824  -0.021  0.00  0.00    -0.451 OA
ENDROOT
BRANCH   1   2
ATOM      2  C   UNL     1       1.770  -1.810  -0.024  0.00  0.00    +0.362 C 
ATOM      3  O   UNL     1       2.962  -2.048  -0.036  0.00  0.00    -0.243 OA
BRANCH   2   6
ATOM      4  C   UNL     1       3.582   0.744  -0.028  0.00  0.00    +0.089 C 
ATOM      5  C   UNL     1       2.076   0.703  -0.014  0.00  0.00    +0.137 A 
ATOM      6  C   UNL     1       1.296  -0.415  -0.013  0.00  0.00    +0.189 A 
ATOM      7  N   UNL     1       0.002  -0.004   0.002  0.00  0.00    -0.202 NA
ATOM      8  C   UNL     1      -0.016   1.305   0.009  0.00  0.00    +0.228 A 
ATOM      9  O   UNL     1       1.250   1.760  -0.000  0.00  0.00    -0.440 OA
BRANCH   8  10
ATOM     10  C   UNL     1      -1.231   2.147   0.020  0.00  0.00    +0.037 A 
ATOM     11  C   UNL     1      -1.120   3.537   0.032  0.00  0.00    +0.013 A 
ATOM     12  C   UNL     1      -2.259   4.317   0.037  0.00  0.00    +0.001 A 
ATOM     13  C   UNL     1      -3.508   3.723   0.040  0.00  0.00    +0.000 A 
ATOM     14  C   UNL     1      -3.625   2.344   0.034  0.00  0.00    +0.001 A 
ATOM     15  C   UNL     1      -2.494   1.553   0.023  0.00  0.00    +0.013 A 
ENDBRANCH   8  10
ENDBRANCH   2   6
ENDBRANCH   1   2
BRANCH   1  16
ATOM     16  C   UNL     1       1.419  -4.172  -0.033  0.00  0.00    +0.328 C 
BRANCH  16  17
ATOM     17  C   UNL     1       0.285  -5.165  -0.028  0.00  0.00    +0.251 C 
ATOM     18  O   UNL     1      -0.863  -4.775  -0.015  0.00  0.00    -0.272 OA
ATOM     19  N   UNL     1       0.547  -6.487  -0.037  0.00  0.00    -0.307 N 
ATOM     20  H   UNL     1       1.465  -6.800  -0.047  0.00  0.00    +0.149 HD
BRANCH  19  21
ATOM     21  C   UNL     1      -0.555  -7.452  -0.032  0.00  0.00    +0.035 C 
ATOM     22  C   UNL     1      -1.402  -7.252   1.226  0.00  0.00    +0.029 C 
ATOM     23  C   UNL     1      -2.553  -8.261   1.232  0.00  0.00    -0.008 C 
ATOM     24  C   UNL     1      -1.986  -9.682   1.219  0.00  0.00    +0.007 C 
ATOM     25  C   UNL     1      -1.139  -9.882  -0.039  0.00  0.00    -0.008 C 
ATOM     26  C   UNL     1       0.012  -8.874  -0.044  0.00  0.00    +0.029 C 
ATOM     27  C   UNL     1      -2.010  -9.669  -1.279  0.00  0.00    +0.007 C 
ATOM     28  C   UNL     1      -2.576  -8.248  -1.266  0.00  0.00    -0.008 C 
ATOM     29  C   UNL     1      -3.424  -8.047  -0.008  0.00  0.00    +0.007 C 
ATOM     30  C   UNL     1      -1.425  -7.239  -1.272  0.00  0.00    +0.029 C 
ENDBRANCH  19  21
ENDBRANCH  16  17
ENDBRANCH   1  16
TORSDOF 6
