REMARK  Name = ZINC64480119
REMARK  11 active torsions:
REMARK  status: ('A' for Active; 'I' for Inactive)
REMARK    1  A    between atoms: C_1  and  C_2
REMARK    2  A    between atoms: C_3  and  O_33
REMARK    3  A    between atoms: C_11  and  C_16
REMARK    4  A    between atoms: C_13  and  C_15
REMARK    5  A    between atoms: C_16  and  C_17
REMARK    6  A    between atoms: C_17  and  C_18
REMARK    7  A    between atoms: N_20  and  C_21
REMARK    8  A    between atoms: C_21  and  C_22
REMARK    9  A    between atoms: C_22  and  C_23
REMARK   10  A    between atoms: O_33  and  C_34
REMARK   11  A    between atoms: C_34  and  C_36
REMARK                            x       y       z     vdW  Elec       q    Type
REMARK                         _______ _______ _______ _____ _____    ______ ____
ROOT
ATOM      1  C   UNL     1       1.989  -1.735   3.597  0.00  0.00    +0.024 C 
ENDROOT
BRANCH   1  12
ATOM      2  C   UNL     1      -0.115   1.519  -0.003  0.00  0.00    +0.051 C 
ATOM      3  C   UNL     1      -0.046   0.014   0.002  0.00  0.00    +0.034 A 
ATOM      4  C   UNL     1       0.004  -0.679  -1.197  0.00  0.00    +0.138 A 
ATOM      5  C   UNL     1       0.066  -2.065  -1.189  0.00  0.00    +0.047 A 
ATOM      6  C   UNL     1       0.074  -2.748   0.010  0.00  0.00    +0.011 A 
ATOM      7  C   UNL     1       0.022  -2.059   1.211  0.00  0.00    -0.001 A 
ATOM      8  C   UNL     1      -0.027  -0.676   1.208  0.00  0.00    +0.141 A 
ATOM      9  O   UNL     1      -0.053   0.044   2.363  0.00  0.00    -0.425 OA
ATOM     10  C   UNL     1      -0.244  -0.631   3.514  0.00  0.00    +0.316 C 
ATOM     11  O   UNL     1      -0.956  -0.200   4.391  0.00  0.00    -0.250 OA
ATOM     12  C   UNL     1       0.476  -1.957   3.656  0.00  0.00    +0.106 C 
ATOM     13  C   UNL     1       0.023  -2.852   2.494  0.00  0.00    +0.033 C 
ATOM     14  C   UNL     1      -1.386  -3.385   2.762  0.00  0.00    +0.013 C 
BRANCH   4  15
ATOM     15  O   UNL     1      -0.009  -0.003  -2.376  0.00  0.00    -0.426 OA
BRANCH  15  16
ATOM     16  C   UNL     1       1.150   0.508  -2.822  0.00  0.00    +0.309 C 
ATOM     17  O   UNL     1       2.179   0.277  -2.233  0.00  0.00    -0.251 OA
ATOM     18  C   UNL     1       1.167   1.371  -4.058  0.00  0.00    +0.136 C 
ENDBRANCH  15  16
ENDBRANCH   4  15
ENDBRANCH   1  12
BRANCH   1  19
ATOM     19  C   UNL     1       2.431  -0.908   4.805  0.00  0.00    +0.096 C 
BRANCH  19  20
ATOM     20  C   UNL     1       3.921  -0.689   4.747  0.00  0.00    +0.213 C 
ATOM     21  O   UNL     1       4.565  -1.150   3.829  0.00  0.00    -0.276 OA
ATOM     22  N   UNL     1       4.537   0.019   5.714  0.00  0.00    -0.315 N 
ATOM     23  H   UNL     1       4.021   0.387   6.449  0.00  0.00    +0.149 HD
BRANCH  22  24
ATOM     24  C   UNL     1       5.985   0.231   5.657  0.00  0.00    +0.108 C 
BRANCH  24  25
ATOM     25  C   UNL     1       6.427   1.059   6.866  0.00  0.00    +0.052 C 
BRANCH  25  26
ATOM     26  C   UNL     1       7.917   1.278   6.807  0.00  0.00    -0.040 C 
ATOM     27  C   UNL     1       8.562   2.352   6.297  0.00  0.00    +0.002 A 
ATOM     28  C   UNL     1       8.086   3.590   5.669  0.00  0.00    +0.048 A 
ATOM     29  C   UNL     1       8.994   4.503   5.248  0.00  0.00    +0.124 A 
ATOM     30  C   UNL     1      10.374   4.293   5.397  0.00  0.00    +0.040 A 
ATOM     31  C   UNL     1      10.885   3.180   5.964  0.00  0.00    +0.029 A 
ATOM     32  C   UNL     1      10.022   2.156   6.443  0.00  0.00    +0.043 A 
ATOM     33  N   UNL     1      10.270   1.005   7.019  0.00  0.00    -0.380 N 
ATOM     34  C   UNL     1       8.993   0.343   7.312  0.00  0.00    +0.144 C 
ATOM     35  F   UNL     1       8.560   5.644   4.669  0.00  0.00    -0.205 F 
ATOM     36  H   UNL     1      11.150   0.652   7.223  0.00  0.00    +0.160 HD
ENDBRANCH  25  26
ENDBRANCH  24  25
ENDBRANCH  22  24
ENDBRANCH  19  20
ENDBRANCH   1  19
TORSDOF 8
