REMARK  Name = ZINC12275903
REMARK  10 active torsions:
REMARK  status: ('A' for Active; 'I' for Inactive)
REMARK    1  A    between atoms: C_1  and  C_2
REMARK    2  A    between atoms: C_2  and  O_3
REMARK    3  A    between atoms: O_3  and  C_4
REMARK    4  A    between atoms: C_7  and  C_10
REMARK    5  A    between atoms: C_10  and  O_32
REMARK    6  A    between atoms: C_14  and  C_30
REMARK    7  A    between atoms: C_15  and  C_21
REMARK    8  A    between atoms: C_24  and  O_29
REMARK    9  A    between atoms: C_25  and  O_27
REMARK   10  A    between atoms: O_27  and  C_28
REMARK                            x       y       z     vdW  Elec       q    Type
REMARK                         _______ _______ _______ _____ _____    ______ ____
ROOT
ATOM      1  C   UNL     1       3.469  -0.651   7.936  0.00  0.00    +0.175 C 
ATOM      2  C   UNL     1       4.678   0.005   8.624  0.00  0.00    +0.136 C 
ATOM      3  S   UNL     1       5.500   0.825   7.205  0.00  0.00    -0.104 S 
ATOM      4  C   UNL     1       4.377   0.361   5.918  0.00  0.00    +0.087 C 
ATOM      5  C   UNL     1       4.404   0.717   4.610  0.00  0.00    +0.065 C 
ATOM      6  C   UNL     1       3.288   0.223   3.716  0.00  0.00    +0.071 C 
ATOM      7  C   UNL     1       2.801  -1.142   4.193  0.00  0.00    +0.110 C 
ATOM      8  C   UNL     1       2.563  -1.152   5.678  0.00  0.00    +0.224 C 
ATOM      9  O   UNL     1       1.612  -1.740   6.147  0.00  0.00    -0.275 OA
ATOM     10  N   UNL     1       3.439  -0.484   6.493  0.00  0.00    -0.231 N 
ENDROOT
BRANCH   1  14
ATOM     11  C   UNL     1      -0.102   1.043   9.561  0.00  0.00    +0.121 A 
ATOM     12  C   UNL     1       0.357  -0.183  10.021  0.00  0.00    +0.046 A 
ATOM     13  C   UNL     1       1.512  -0.728   9.494  0.00  0.00    +0.012 A 
ATOM     14  C   UNL     1       2.209  -0.053   8.509  0.00  0.00    +0.004 A 
ATOM     15  C   UNL     1       1.757   1.171   8.053  0.00  0.00    +0.012 A 
ATOM     16  C   UNL     1       0.600   1.718   8.573  0.00  0.00    +0.046 A 
BRANCH  11  17
ATOM     17  O   UNL     1      -1.238   1.582  10.078  0.00  0.00    -0.492 OA
BRANCH  17  19
ATOM     18  C   UNL     1      -2.939   3.290  10.255  0.00  0.00    +0.048 C 
ATOM     19  C   UNL     1      -1.651   2.847   9.557  0.00  0.00    +0.225 C 
ENDBRANCH  17  19
ENDBRANCH  11  17
ENDBRANCH   1  14
BRANCH   6  20
ATOM     20  C   UNL     1       2.145   1.204   3.756  0.00  0.00    -0.035 A 
ATOM     21  C   UNL     1       1.438   1.391   4.929  0.00  0.00    +0.008 A 
ATOM     22  C   UNL     1       0.388   2.290   4.970  0.00  0.00    +0.049 A 
ATOM     23  C   UNL     1       0.043   3.006   3.835  0.00  0.00    +0.158 A 
ATOM     24  C   UNL     1       0.755   2.817   2.654  0.00  0.00    +0.162 A 
ATOM     25  C   UNL     1       1.802   1.910   2.618  0.00  0.00    +0.053 A 
BRANCH  24  26
ATOM     26  O   UNL     1       0.421   3.517   1.537  0.00  0.00    -0.491 OA
ATOM     27  C   UNL     1       1.196   3.272   0.362  0.00  0.00    +0.277 C 
ENDBRANCH  24  26
BRANCH  23  28
ATOM     28  O   UNL     1      -0.989   3.890   3.874  0.00  0.00    -0.503 OA
ATOM     29  H   UNL     1      -1.847   3.504   3.651  0.00  0.00    +0.292 HD
ENDBRANCH  23  28
ENDBRANCH   6  20
BRANCH   5  30
ATOM     30  C   UNL     1       5.458   1.534   4.090  0.00  0.00    +0.098 C 
ATOM     31  N   UNL     1       6.295   2.183   3.678  0.00  0.00    -0.191 NA
ENDBRANCH   5  30
BRANCH   1  32
ATOM     32  O   UNL     1       3.481  -2.049   8.231  0.00  0.00    -0.366 OA
ATOM     33  H   UNL     1       3.405  -2.252   9.173  0.00  0.00    +0.212 HD
ENDBRANCH   1  32
TORSDOF 8
