REMARK  Name = ZINC21153794
REMARK  11 active torsions:
REMARK  status: ('A' for Active; 'I' for Inactive)
REMARK    1  A    between atoms: C_1  and  C_2
REMARK    2  A    between atoms: C_2  and  O_3
REMARK    3  A    between atoms: O_3  and  C_4
REMARK    4  A    between atoms: C_7  and  S_11
REMARK    5  A    between atoms: C_9  and  C_10
REMARK    6  A    between atoms: S_11  and  N_14
REMARK    7  A    between atoms: N_14  and  C_15
REMARK    8  A    between atoms: C_15  and  C_16
REMARK    9  A    between atoms: C_16  and  C_18
REMARK   10  A    between atoms: C_16  and  N_24
REMARK   11  A    between atoms: N_22  and  C_23
REMARK                            x       y       z     vdW  Elec       q    Type
REMARK                         _______ _______ _______ _____ _____    ______ ____
ROOT
ATOM      1  C   UNL     1      -4.362   3.564  -3.583  0.00  0.00    +0.119 C 
ENDROOT
BRANCH   1   2
ATOM      2  N   UNL     1      -5.439   4.393  -3.024  0.00  0.00    -0.288 NA
ATOM      3  C   UNL     1      -5.081   5.820  -3.062  0.00  0.00    +0.090 C 
ATOM      4  C   UNL     1      -6.346   6.644  -2.823  0.00  0.00    +0.051 C 
ATOM      5  C   UNL     1      -7.064   6.141  -1.597  0.00  0.00    -0.042 A 
ATOM      6  C   UNL     1      -8.021   6.956  -1.011  0.00  0.00    +0.004 A 
ATOM      7  C   UNL     1      -8.705   6.532   0.111  0.00  0.00    +0.000 A 
ATOM      8  C   UNL     1      -8.434   5.289   0.653  0.00  0.00    +0.000 A 
ATOM      9  C   UNL     1      -7.480   4.479   0.072  0.00  0.00    +0.005 A 
ATOM     10  C   UNL     1      -6.791   4.904  -1.055  0.00  0.00    -0.030 A 
ATOM     11  C   UNL     1      -5.756   3.986  -1.651  0.00  0.00    +0.120 C 
ENDBRANCH   1   2
BRANCH   1  12
ATOM     12  C   UNL     1      -4.884   2.177  -3.852  0.00  0.00    +0.037 A 
ATOM     13  C   UNL     1      -6.155   1.762  -3.675  0.00  0.00    +0.024 A 
ATOM     14  C   UNL     1      -6.211   0.404  -4.047  0.00  0.00    +0.019 A 
ATOM     15  C   UNL     1      -4.971   0.039  -4.429  0.00  0.00    +0.085 A 
ATOM     16  N   UNL     1      -4.152   1.123  -4.312  0.00  0.00    -0.352 N 
ATOM     17  C   UNL     1      -2.721   1.150  -4.627  0.00  0.00    +0.148 C 
ENDBRANCH   1  12
BRANCH   1  18
ATOM     18  C   UNL     1      -3.205   3.489  -2.584  0.00  0.00    +0.131 C 
BRANCH  18  19
ATOM     19  N   UNL     1      -2.667   4.833  -2.357  0.00  0.00    -0.188 NA
ATOM     20  H   UNL     1      -2.729   5.591  -3.152  0.00  0.00    +0.148 HD
BRANCH  19  21
ATOM     21  S   UNL     1      -1.752   5.142  -1.013  0.00  0.00    +0.058 S 
ATOM     22  O   UNL     1      -2.469   4.618   0.096  0.00  0.00    -0.153 OA
ATOM     23  O   UNL     1      -1.362   6.507  -1.092  0.00  0.00    -0.153 OA
BRANCH  21  27
ATOM     24  C   UNL     1       2.038   2.690  -1.380  0.00  0.00    +0.123 A 
ATOM     25  C   UNL     1       0.922   2.156  -0.751  0.00  0.00    +0.048 A 
ATOM     26  C   UNL     1      -0.234   2.904  -0.644  0.00  0.00    +0.032 A 
ATOM     27  C   UNL     1      -0.277   4.188  -1.156  0.00  0.00    +0.106 A 
ATOM     28  C   UNL     1       0.833   4.723  -1.783  0.00  0.00    +0.035 A 
ATOM     29  C   UNL     1       1.990   3.977  -1.897  0.00  0.00    -0.007 A 
ATOM     30  C   UNL     1       3.199   4.560  -2.580  0.00  0.00    +0.047 C 
BRANCH  24  31
ATOM     31  O   UNL     1       3.175   1.954  -1.491  0.00  0.00    -0.492 OA
BRANCH  31  33
ATOM     32  C   UNL     1       4.510  -0.032  -1.155  0.00  0.00    +0.048 C 
ATOM     33  C   UNL     1       3.152   0.637  -0.936  0.00  0.00    +0.225 C 
ENDBRANCH  31  33
ENDBRANCH  24  31
ENDBRANCH  21  27
ENDBRANCH  19  21
ENDBRANCH  18  19
ENDBRANCH   1  18
TORSDOF 8
