REMARK  Name = ZINC18084046
REMARK  9 active torsions:
REMARK  status: ('A' for Active; 'I' for Inactive)
REMARK    1  A    between atoms: C_1  and  C_2
REMARK    2  A    between atoms: N_4  and  C_5
REMARK    3  A    between atoms: C_14  and  C_17
REMARK    4  A    between atoms: C_17  and  O_19
REMARK    5  A    between atoms: O_19  and  C_20
REMARK    6  A    between atoms: C_20  and  C_21
REMARK    7  A    between atoms: N_23  and  C_24
REMARK    8  A    between atoms: C_27  and  C_33
REMARK    9  A    between atoms: C_29  and  N_30
REMARK                            x       y       z     vdW  Elec       q    Type
REMARK                         _______ _______ _______ _____ _____    ______ ____
ROOT
ATOM      1  O   UNL     1      -4.208  -6.056   0.043  0.00  0.00    -0.455 OA
ENDROOT
BRANCH   1   2
ATOM      2  C   UNL     1      -3.984  -4.732   0.064  0.00  0.00    +0.314 C 
ATOM      3  O   UNL     1      -4.915  -3.962   0.091  0.00  0.00    -0.250 OA
BRANCH   2  11
ATOM      4  C   UNL     1      -1.164  -2.143   0.070  0.00  0.00    +0.036 C 
ATOM      5  C   UNL     1      -0.416  -2.663   1.299  0.00  0.00    +0.029 C 
ATOM      6  C   UNL     1      -0.391  -4.192   1.271  0.00  0.00    -0.008 C 
ATOM      7  C   UNL     1       0.321  -4.668   0.003  0.00  0.00    +0.007 C 
ATOM      8  C   UNL     1      -0.427  -4.147  -1.227  0.00  0.00    -0.008 C 
ATOM      9  C   UNL     1      -0.452  -2.618  -1.198  0.00  0.00    +0.029 C 
ATOM     10  C   UNL     1      -1.861  -4.681  -1.216  0.00  0.00    +0.021 C 
ATOM     11  C   UNL     1      -2.572  -4.206   0.053  0.00  0.00    +0.070 C 
ATOM     12  C   UNL     1      -1.825  -4.726   1.282  0.00  0.00    +0.021 C 
ATOM     13  C   UNL     1      -2.597  -2.676   0.081  0.00  0.00    +0.043 C 
BRANCH   4  17
ATOM     14  C   UNL     1      -0.057   1.522   0.121  0.00  0.00    +0.109 C 
ATOM     15  C   UNL     1      -0.032   0.015   0.093  0.00  0.00    +0.210 C 
ATOM     16  O   UNL     1       1.028  -0.573   0.067  0.00  0.00    -0.276 OA
ATOM     17  N   UNL     1      -1.188  -0.678   0.097  0.00  0.00    -0.310 N 
ATOM     18  H   UNL     1      -2.036  -0.207   0.118  0.00  0.00    +0.149 HD
ENDBRANCH   4  17
ENDBRANCH   2  11
ENDBRANCH   1   2
BRANCH   1  19
ATOM     19  C   UNL     1      -5.571  -6.484   0.055  0.00  0.00    +0.328 C 
BRANCH  19  20
ATOM     20  C   UNL     1      -5.625  -7.989   0.028  0.00  0.00    +0.255 C 
ATOM     21  O   UNL     1      -4.597  -8.633   0.002  0.00  0.00    -0.272 OA
ATOM     22  N   UNL     1      -6.816  -8.621   0.034  0.00  0.00    -0.281 N 
ATOM     23  H   UNL     1      -7.636  -8.110   0.121  0.00  0.00    +0.155 HD
BRANCH  22  24
ATOM     24  C   UNL     1      -6.869 -10.014  -0.085  0.00  0.00    +0.064 A 
ATOM     25  C   UNL     1      -5.880 -10.800   0.493  0.00  0.00    +0.026 A 
ATOM     26  C   UNL     1      -5.936 -12.175   0.373  0.00  0.00    +0.014 A 
ATOM     27  C   UNL     1      -6.974 -12.769  -0.321  0.00  0.00    +0.057 A 
ATOM     28  C   UNL     1      -7.959 -11.989  -0.898  0.00  0.00    +0.047 A 
ATOM     29  C   UNL     1      -7.913 -10.614  -0.776  0.00  0.00    +0.148 A 
BRANCH  27  30
ATOM     30  C   UNL     1      -7.031 -14.270  -0.450  0.00  0.00    +0.417 C 
ATOM     31  F   UNL     1      -5.935 -14.836   0.210  0.00  0.00    -0.166 F 
ATOM     32  F   UNL     1      -8.216 -14.742   0.125  0.00  0.00    -0.166 F 
ATOM     33  F   UNL     1      -6.996 -14.623  -1.802  0.00  0.00    -0.166 F 
ENDBRANCH  27  30
BRANCH  29  34
ATOM     34  N   UNL     1      -8.972  -9.780  -1.388  0.00  0.00    +0.058 N 
ATOM     35  O   UNL     1      -9.931 -10.304  -1.905  0.00  0.00    -0.126 OA
ATOM     36  O   UNL     1      -8.878  -8.575  -1.370  0.00  0.00    -0.126 OA
ENDBRANCH  29  34
ENDBRANCH  22  24
ENDBRANCH  19  20
ENDBRANCH   1  19
TORSDOF 8
