REMARK  Name = ZINC14532554
REMARK  6 active torsions:
REMARK  status: ('A' for Active; 'I' for Inactive)
REMARK    1  A    between atoms: C_1  and  N_2
REMARK    2  A    between atoms: C_5  and  C_7
REMARK    3  A    between atoms: C_15  and  N_57
REMARK    4  A    between atoms: C_19  and  C_20
REMARK    5  A    between atoms: C_19  and  N_57
REMARK    6  A    between atoms: C_20  and  C_21
REMARK                            x       y       z     vdW  Elec       q    Type
REMARK                         _______ _______ _______ _____ _____    ______ ____
ROOT
ATOM      1  C   UNL     1       4.144   7.441   7.447  0.00  0.00    +0.172 C 
ATOM      2  N   UNL     1       3.521   7.823   6.177  0.00  0.00    -0.270 N 
ATOM      3  C   UNL     1       3.399   7.020   5.107  0.00  0.00    +0.043 A 
ATOM      4  C   UNL     1       2.771   7.732   4.140  0.00  0.00    +0.004 A 
ATOM      5  C   UNL     1       2.530   9.002   4.691  0.00  0.00    +0.151 A 
ATOM      6  N   UNL     1       3.011   8.978   5.922  0.00  0.00    -0.166 NA
ATOM      7  C   UNL     1       2.432   7.204   2.773  0.00  0.00    +0.023 C 
ATOM      8  C   UNL     1       2.533   5.673   2.811  0.00  0.00    -0.067 C 
ATOM      9  C   UNL     1       3.866   5.263   3.441  0.00  0.00    -0.009 C 
ATOM     10  C   UNL     1       3.851   5.592   4.939  0.00  0.00    +0.054 C 
ENDROOT
BRANCH   5  11
ATOM     11  C   UNL     1       1.868  10.142   4.024  0.00  0.00    +0.267 C 
ATOM     12  O   UNL     1       1.469  10.030   2.881  0.00  0.00    -0.268 OA
ATOM     13  N   UNL     1       1.705  11.306   4.683  0.00  0.00    -0.296 N 
ATOM     14  C   UNL     1       2.132  11.576   6.064  0.00  0.00    +0.108 C 
ATOM     15  C   UNL     1       1.718  13.025   6.397  0.00  0.00    +0.020 C 
ATOM     16  C   UNL     1       0.573  13.298   5.386  0.00  0.00    +0.020 C 
ATOM     17  C   UNL     1       1.065  12.518   4.141  0.00  0.00    +0.108 C 
ENDBRANCH   5  11
BRANCH   8  18
ATOM     18  N   UNL     1       2.458   5.149   1.433  0.00  0.00    +0.381 N 
ATOM     19  H   UNL     1       3.393   5.172   1.011  0.00  0.00    -0.086 HD
ATOM     20  H   UNL     1       1.819   5.735   0.883  0.00  0.00    -0.086 HD
BRANCH  18  21
ATOM     21  C   UNL     1       1.960   3.761   1.440  0.00  0.00    -0.077 C 
BRANCH  21  22
ATOM     22  C   UNL     1       1.893   3.245   0.001  0.00  0.00    +0.018 C 
BRANCH  22  23
ATOM     23  C   UNL     1       1.385   1.827  -0.001  0.00  0.00    -0.024 A 
ATOM     24  C   UNL     1       2.132   0.711  -0.015  0.00  0.00    +0.087 A 
ATOM     25  N   UNL     1       1.323  -0.392  -0.013  0.00  0.00    -0.360 N 
ATOM     26  H   UNL     1       1.634  -1.311  -0.021  0.00  0.00    +0.165 HD
ATOM     27  C   UNL     1       0.002  -0.004   0.002  0.00  0.00    +0.047 A 
ATOM     28  C   UNL     1      -0.017   1.403   0.010  0.00  0.00    +0.003 A 
ATOM     29  C   UNL     1      -1.236   2.083   0.030  0.00  0.00    +0.010 A 
ATOM     30  C   UNL     1      -2.406   1.377   0.034  0.00  0.00    +0.001 A 
ATOM     31  C   UNL     1      -2.393  -0.011   0.026  0.00  0.00    +0.002 A 
ATOM     32  C   UNL     1      -1.201  -0.702   0.010  0.00  0.00    +0.026 A 
ENDBRANCH  22  23
ENDBRANCH  21  22
ENDBRANCH  18  21
ENDBRANCH   8  18
TORSDOF 5
