REMARK  Name = ZINC09374465
REMARK  12 active torsions:
REMARK  status: ('A' for Active; 'I' for Inactive)
REMARK    1  A    between atoms: C_1  and  C_2
REMARK    2  A    between atoms: C_2  and  N_60
REMARK    3  A    between atoms: C_3  and  C_4
REMARK    4  A    between atoms: C_3  and  N_60
REMARK    5  A    between atoms: C_5  and  C_6
REMARK    6  A    between atoms: C_5  and  N_60
REMARK    7  A    between atoms: C_6  and  C_7
REMARK    8  A    between atoms: C_7  and  N_8
REMARK    9  A    between atoms: C_9  and  C_27
REMARK   10  A    between atoms: C_11  and  C_16
REMARK   11  A    between atoms: C_12  and  O_15
REMARK   12  A    between atoms: C_16  and  C_18
REMARK                            x       y       z     vdW  Elec       q    Type
REMARK                         _______ _______ _______ _____ _____    ______ ____
ROOT
ATOM      1  N   UNL     1       6.646  -0.843   0.249  0.00  0.00    -0.284 N 
ATOM      2  C   UNL     1       5.430  -0.170   0.720  0.00  0.00    +0.145 C 
ATOM      3  C   UNL     1       4.386  -1.251   0.881  0.00  0.00    +0.074 C 
ATOM      4  C   UNL     1       4.977  -2.418   0.536  0.00  0.00    +0.188 C 
ATOM      5  C   UNL     1       6.376  -2.157   0.140  0.00  0.00    +0.282 C 
ATOM      6  O   UNL     1       7.167  -3.003  -0.226  0.00  0.00    -0.267 OA
ENDROOT
BRANCH   2   7
ATOM      7  C   UNL     1       5.688   0.503   2.043  0.00  0.00    -0.022 A 
ATOM      8  C   UNL     1       6.355  -0.176   3.045  0.00  0.00    +0.007 A 
ATOM      9  C   UNL     1       6.596   0.442   4.258  0.00  0.00    +0.015 A 
ATOM     10  C   UNL     1       6.160   1.737   4.472  0.00  0.00    +0.018 A 
ATOM     11  C   UNL     1       5.487   2.415   3.470  0.00  0.00    +0.015 A 
ATOM     12  C   UNL     1       5.252   1.797   2.257  0.00  0.00    +0.007 A 
ATOM     13 BR   UNL     1       6.483   2.582   6.133  0.00  0.00    -0.050 Br
ENDBRANCH   2   7
BRANCH   4  14
ATOM     14  O   UNL     1       4.380  -3.633   0.548  0.00  0.00    -0.502 OA
ATOM     15  H   UNL     1       5.033  -4.329   0.250  0.00  0.00    +0.292 HD
ENDBRANCH   4  14
BRANCH   3  16
ATOM     16  C   UNL     1       3.002  -1.070   1.331  0.00  0.00    +0.230 C 
ATOM     17  O   UNL     1       2.635  -1.560   2.384  0.00  0.00    -0.284 OA
BRANCH  16  18
ATOM     18  C   UNL     1       2.058  -0.299   0.511  0.00  0.00    +0.176 A 
ATOM     19  C   UNL     1       0.732  -0.147   0.777  0.00  0.00    +0.061 A 
ATOM     20  C   UNL     1       0.198   0.689  -0.295  0.00  0.00    +0.021 A 
ATOM     21  C   UNL     1      -1.069   1.198  -0.594  0.00  0.00    +0.011 A 
ATOM     22  C   UNL     1      -1.243   1.973  -1.706  0.00  0.00    +0.001 A 
ATOM     23  C   UNL     1      -0.169   2.257  -2.540  0.00  0.00    +0.004 A 
ATOM     24  C   UNL     1       1.088   1.764  -2.263  0.00  0.00    +0.047 A 
ATOM     25  C   UNL     1       1.289   0.974  -1.137  0.00  0.00    +0.136 A 
ATOM     26  O   UNL     1       2.374   0.366  -0.619  0.00  0.00    -0.452 OA
ENDBRANCH  16  18
ENDBRANCH   3  16
BRANCH   1  27
ATOM     27  C   UNL     1       7.928  -0.199  -0.050  0.00  0.00    +0.107 C 
BRANCH  27  28
ATOM     28  C   UNL     1       8.792  -0.174   1.212  0.00  0.00    +0.000 C 
BRANCH  28  29
ATOM     29  C   UNL     1      10.130   0.499   0.900  0.00  0.00    -0.077 C 
BRANCH  29  30
ATOM     30  N   UNL     1      10.945   0.534   2.133  0.00  0.00    +0.379 N 
ATOM     31  H   UNL     1      10.386   0.946   2.890  0.00  0.00    -0.082 HD
BRANCH  30  33
ATOM     32  C   UNL     1      12.178  -1.484   1.414  0.00  0.00    -0.017 C 
ATOM     33  C   UNL     1      11.339  -0.837   2.518  0.00  0.00    -0.082 C 
ENDBRANCH  30  33
BRANCH  30  34
ATOM     34  C   UNL     1      12.149   1.365   1.920  0.00  0.00    -0.082 C 
ATOM     35  C   UNL     1      12.815   1.624   3.272  0.00  0.00    -0.017 C 
ENDBRANCH  30  34
ENDBRANCH  29  30
ENDBRANCH  28  29
ENDBRANCH  27  28
ENDBRANCH   1  27
TORSDOF 10
