REMARK  Name = ZINC50345426
REMARK  8 active torsions:
REMARK  status: ('A' for Active; 'I' for Inactive)
REMARK    1  A    between atoms: C_1  and  C_2
REMARK    2  A    between atoms: C_2  and  C_3
REMARK    3  A    between atoms: C_4  and  N_21
REMARK    4  A    between atoms: C_5  and  C_9
REMARK    5  A    between atoms: C_14  and  C_17
REMARK    6  A    between atoms: C_17  and  C_18
REMARK    7  A    between atoms: C_17  and  C_19
REMARK    8  A    between atoms: C_17  and  C_20
REMARK                            x       y       z     vdW  Elec       q    Type
REMARK                         _______ _______ _______ _____ _____    ______ ____
ROOT
ATOM      1  C   UNL     1       3.499  -1.460  -3.373  0.00  0.00    +0.269 C 
ATOM      2  O   UNL     1       2.438  -1.310  -2.798  0.00  0.00    -0.268 OA
ATOM      3  N   UNL     1       3.516  -1.803  -4.676  0.00  0.00    -0.296 N 
ATOM      4  C   UNL     1       2.271  -1.844  -5.456  0.00  0.00    +0.108 C 
ATOM      5  C   UNL     1       2.151  -3.218  -6.122  0.00  0.00    +0.023 C 
ATOM      6  C   UNL     1       3.415  -3.497  -6.939  0.00  0.00    -0.003 C 
ATOM      7  C   UNL     1       4.631  -3.514  -6.011  0.00  0.00    +0.023 C 
ATOM      8  C   UNL     1       4.780  -2.137  -5.346  0.00  0.00    +0.108 C 
ENDROOT
BRANCH   1  11
ATOM      9  C   UNL     1       6.250  -0.919  -1.044  0.00  0.00    +0.057 A 
ATOM     10  C   UNL     1       4.912  -1.031  -1.253  0.00  0.00    +0.078 A 
ATOM     11  C   UNL     1       4.766  -1.267  -2.645  0.00  0.00    +0.168 A 
ATOM     12  N   UNL     1       5.979  -1.281  -3.164  0.00  0.00    -0.167 NA
ATOM     13  N   UNL     1       6.857  -1.076  -2.249  0.00  0.00    -0.279 N 
ATOM     14  H   UNL     1       7.815  -1.040  -2.397  0.00  0.00    +0.189 HD
BRANCH  10  15
ATOM     15  N   UNL     1       3.890  -0.934  -0.297  0.00  0.00    -0.355 N 
ATOM     16  H   UNL     1       4.111  -0.769   0.633  0.00  0.00    +0.142 HD
ATOM     17  H   UNL     1       2.963  -1.031  -0.565  0.00  0.00    +0.142 HD
ENDBRANCH  10  15
BRANCH   9  19
ATOM     18  C   UNL     1       7.139  -1.990   1.009  0.00  0.00    +0.010 C 
ATOM     19  C   UNL     1       6.932  -0.663   0.276  0.00  0.00    +0.053 C 
ENDBRANCH   9  19
ENDBRANCH   1  11
BRANCH   6  20
ATOM     20  C   UNL     1       3.284  -4.854  -7.634  0.00  0.00    -0.035 C 
ATOM     21  C   UNL     1       2.069  -4.836  -8.563  0.00  0.00    +0.011 C 
ATOM     22  C   UNL     1       4.547  -5.133  -8.451  0.00  0.00    +0.011 C 
ATOM     23  C   UNL     1       3.106  -5.950  -6.581  0.00  0.00    +0.011 C 
ENDBRANCH   6  20
TORSDOF 4
