REMARK  Name = ZINC35843664
REMARK  17 active torsions:
REMARK  status: ('A' for Active; 'I' for Inactive)
REMARK    1  A    between atoms: C_1  and  C_2
REMARK    2  A    between atoms: C_2  and  O_3
REMARK    3  A    between atoms: O_3  and  C_4
REMARK    4  A    between atoms: C_4  and  C_6
REMARK    5  A    between atoms: C_6  and  C_8
REMARK    6  A    between atoms: C_6  and  N_9
REMARK    7  A    between atoms: N_9  and  C_10
REMARK    8  A    between atoms: N_9  and  C_14
REMARK    9  A    between atoms: C_10  and  C_11
REMARK   10  A    between atoms: C_11  and  C_12
REMARK   11  A    between atoms: C_11  and  C_13
REMARK   12  A    between atoms: C_14  and  C_15
REMARK   13  A    between atoms: N_17  and  C_18
REMARK   14  A    between atoms: N_17  and  C_30
REMARK   15  A    between atoms: C_18  and  C_19
REMARK   16  A    between atoms: C_19  and  C_20
REMARK   17  A    between atoms: C_30  and  C_31
REMARK                            x       y       z     vdW  Elec       q    Type
REMARK                         _______ _______ _______ _____ _____    ______ ____
ROOT
ATOM      1  C   UNL     1       0.225  -5.059   0.478  0.00  0.00    +0.199 C 
ATOM      2  O   UNL     1       1.102  -4.292   0.813  0.00  0.00    -0.278 OA
ATOM      3  N   UNL     1      -0.951  -4.583   0.023  0.00  0.00    -0.298 N 
ENDROOT
BRANCH   1   4
ATOM      4  C   UNL     1       0.450  -6.547   0.571  0.00  0.00    +0.020 C 
BRANCH   4   5
ATOM      5  N   UNL     1       1.775  -6.806   1.149  0.00  0.00    +0.394 N 
ATOM      6  H   UNL     1       1.898  -7.800   1.275  0.00  0.00    -0.080 HD
BRANCH   5   7
ATOM      7  C   UNL     1       2.813  -6.294   0.244  0.00  0.00    +0.040 C 
ATOM      8  C   UNL     1       4.194  -6.641   0.804  0.00  0.00    -0.002 C 
BRANCH   7   9
ATOM      9  C   UNL     1       2.649  -6.924  -1.115  0.00  0.00    +0.293 C 
ATOM     10  O   UNL     1       2.122  -8.006  -1.220  0.00  0.00    -0.253 OA
BRANCH   9  11
ATOM     11  O   UNL     1       3.088  -6.282  -2.209  0.00  0.00    -0.466 OA
BRANCH  11  13
ATOM     12  C   UNL     1       3.460  -6.061  -4.587  0.00  0.00    +0.048 C 
ATOM     13  C   UNL     1       2.901  -6.938  -3.465  0.00  0.00    +0.228 C 
ENDBRANCH  11  13
ENDBRANCH   9  11
ENDBRANCH   7   9
ENDBRANCH   5   7
BRANCH   5  14
ATOM     14  C   UNL     1       1.883  -6.132   2.450  0.00  0.00    -0.074 C 
BRANCH  14  15
ATOM     15  C   UNL     1       2.723  -6.987   3.400  0.00  0.00    -0.034 C 
ATOM     16  C   UNL     1       2.927  -6.236   4.717  0.00  0.00    +0.005 C 
ATOM     17  C   UNL     1       2.000  -8.308   3.672  0.00  0.00    +0.005 C 
ENDBRANCH  14  15
ENDBRANCH   5  14
ENDBRANCH   4   5
ENDBRANCH   1   4
BRANCH   3  18
ATOM     18  C   UNL     1      -1.138  -3.140  -0.152  0.00  0.00    +0.113 C 
BRANCH  18  19
ATOM     19  C   UNL     1      -0.817  -2.755  -1.597  0.00  0.00    +0.056 C 
BRANCH  19  20
ATOM     20  C   UNL     1      -0.894  -1.258  -1.748  0.00  0.00    -0.021 A 
ATOM     21  C   UNL     1      -1.956  -0.550  -2.164  0.00  0.00    +0.087 A 
ATOM     22  N   UNL     1      -1.654   0.784  -2.173  0.00  0.00    -0.360 N 
ATOM     23  H   UNL     1      -2.263   1.492  -2.437  0.00  0.00    +0.165 HD
ATOM     24  C   UNL     1      -0.357   0.973  -1.751  0.00  0.00    +0.047 A 
ATOM     25  C   UNL     1       0.174  -0.297  -1.460  0.00  0.00    +0.003 A 
ATOM     26  C   UNL     1       1.487  -0.415  -1.000  0.00  0.00    +0.010 A 
ATOM     27  C   UNL     1       2.249   0.706  -0.831  0.00  0.00    +0.001 A 
ATOM     28  C   UNL     1       1.729   1.962  -1.113  0.00  0.00    +0.002 A 
ATOM     29  C   UNL     1       0.439   2.100  -1.577  0.00  0.00    +0.026 A 
ENDBRANCH  19  20
ENDBRANCH  18  19
ENDBRANCH   3  18
BRANCH   3  30
ATOM     30  C   UNL     1      -2.041  -5.507  -0.298  0.00  0.00    +0.142 C 
BRANCH  30  31
ATOM     31  C   UNL     1      -2.984  -5.597   0.874  0.00  0.00    -0.029 A 
ATOM     32  C   UNL     1      -2.851  -6.625   1.790  0.00  0.00    +0.007 A 
ATOM     33  C   UNL     1      -3.715  -6.709   2.865  0.00  0.00    +0.022 A 
ATOM     34  C   UNL     1      -4.713  -5.765   3.026  0.00  0.00    +0.059 A 
ATOM     35  C   UNL     1      -4.846  -4.736   2.110  0.00  0.00    +0.060 A 
ATOM     36  C   UNL     1      -3.977  -4.650   1.037  0.00  0.00    +0.026 A 
ATOM     37 CL   UNL     1      -6.099  -3.551   2.310  0.00  0.00    -0.082 Cl
ATOM     38 CL   UNL     1      -5.800  -5.871   4.376  0.00  0.00    -0.082 Cl
ENDBRANCH  30  31
ENDBRANCH   3  30
TORSDOF 13
