REMARK  Name = ZINC04326658
REMARK  9 active torsions:
REMARK  status: ('A' for Active; 'I' for Inactive)
REMARK    1  A    between atoms: C_1  and  O_2
REMARK    2  A    between atoms: O_2  and  C_3
REMARK    3  A    between atoms: C_3  and  C_4
REMARK    4  A    between atoms: C_4  and  N_5
REMARK    5  A    between atoms: C_6  and  C_8
REMARK    6  A    between atoms: N_19  and  C_22
REMARK    7  A    between atoms: C_20  and  N_21
REMARK    8  A    between atoms: C_22  and  C_23
REMARK    9  A    between atoms: C_23  and  C_24
REMARK                            x       y       z     vdW  Elec       q    Type
REMARK                         _______ _______ _______ _____ _____    ______ ____
ROOT
ATOM      1  C   UNL     1       0.349  -4.314   2.699  0.00  0.00    +0.103 A 
ATOM      2  C   UNL     1      -0.326  -4.686   3.953  0.00  0.00    +0.122 A 
ATOM      3  C   UNL     1       0.749  -5.046   4.881  0.00  0.00    +0.162 A 
ATOM      4  N   UNL     1       0.447  -5.427   6.104  0.00  0.00    -0.226 NA
ATOM      5  C   UNL     1      -0.834  -5.482   6.489  0.00  0.00    +0.092 A 
ATOM      6  C   UNL     1      -1.166  -5.888   7.795  0.00  0.00    +0.030 A 
ATOM      7  C   UNL     1      -2.470  -5.941   8.177  0.00  0.00    +0.002 A 
ATOM      8  C   UNL     1      -3.491  -5.598   7.292  0.00  0.00    +0.002 A 
ATOM      9  C   UNL     1      -3.210  -5.201   6.021  0.00  0.00    +0.030 A 
ATOM     10  C   UNL     1      -1.872  -5.133   5.589  0.00  0.00    +0.090 A 
ATOM     11  N   UNL     1      -1.584  -4.745   4.341  0.00  0.00    -0.241 NA
ATOM     12  N   UNL     1       1.939  -4.888   4.200  0.00  0.00    -0.312 N 
ATOM     13  C   UNL     1       1.713  -4.468   2.926  0.00  0.00    +0.112 A 
ENDROOT
BRANCH   1  15
ATOM     14  N   UNL     1      -0.515  -2.565   1.245  0.00  0.00    -0.309 N 
ATOM     15  C   UNL     1      -0.287  -3.876   1.459  0.00  0.00    +0.250 C 
ATOM     16  O   UNL     1      -0.612  -4.696   0.619  0.00  0.00    -0.270 OA
ATOM     17  H   UNL     1      -0.257  -1.913   1.914  0.00  0.00    +0.149 HD
BRANCH  14  18
ATOM     18  C   UNL     1      -1.154  -2.126   0.002  0.00  0.00    +0.132 C 
BRANCH  18  19
ATOM     19  C   UNL     1      -1.295  -0.603   0.011  0.00  0.00    +0.178 C 
BRANCH  19  21
ATOM     20  C   UNL     1      -0.017   1.425   0.010  0.00  0.00    +0.194 C 
ATOM     21  O   UNL     1       0.002  -0.004   0.002  0.00  0.00    -0.381 OA
ENDBRANCH  19  21
ENDBRANCH  18  19
ENDBRANCH  14  18
ENDBRANCH   1  15
BRANCH  13  22
ATOM     22  N   UNL     1       2.692  -4.226   1.998  0.00  0.00    -0.344 N 
ATOM     23  H   UNL     1       2.452  -3.924   1.108  0.00  0.00    +0.144 HD
ATOM     24  H   UNL     1       3.624  -4.356   2.231  0.00  0.00    +0.144 HD
ENDBRANCH  13  22
BRANCH  12  25
ATOM     25  C   UNL     1       3.264  -5.144   4.770  0.00  0.00    +0.129 C 
BRANCH  25  26
ATOM     26  C   UNL     1       3.652  -6.603   4.523  0.00  0.00    +0.052 C 
BRANCH  26  27
ATOM     27  C   UNL     1       5.016  -6.866   5.109  0.00  0.00    -0.072 C 
ATOM     28  C   UNL     1       5.078  -7.367   6.301  0.00  0.00    -0.028 C 
ATOM     29  C   UNL     1       6.359  -7.673   7.019  0.00  0.00    +0.027 C 
ATOM     30  C   UNL     1       7.522  -7.719   6.025  0.00  0.00    +0.004 C 
ATOM     31  C   UNL     1       7.466  -6.457   5.154  0.00  0.00    +0.005 C 
ATOM     32  C   UNL     1       6.217  -6.537   4.272  0.00  0.00    +0.030 C 
ENDBRANCH  26  27
ENDBRANCH  25  26
ENDBRANCH  12  25
TORSDOF 8
