REMARK  Name = ZINC07236976
REMARK  8 active torsions:
REMARK  status: ('A' for Active; 'I' for Inactive)
REMARK    1  A    between atoms: C_1  and  C_2
REMARK    2  A    between atoms: C_8  and  N_10
REMARK    3  A    between atoms: C_14  and  C_16
REMARK    4  A    between atoms: C_16  and  S_17
REMARK    5  A    between atoms: S_17  and  C_18
REMARK    6  A    between atoms: N_28  and  C_29
REMARK    7  A    between atoms: C_29  and  C_30
REMARK    8  A    between atoms: C_29  and  C_31
REMARK                            x       y       z     vdW  Elec       q    Type
REMARK                         _______ _______ _______ _____ _____    ______ ____
ROOT
ATOM      1  C   UNL     1      -0.830   3.995   0.031  0.00  0.00    +0.173 C 
ENDROOT
BRANCH   1   6
ATOM      2  N   UNL     1      -4.074   7.543   0.082  0.00  0.00    -0.296 N 
ATOM      3  C   UNL     1      -2.783   7.157   0.067  0.00  0.00    +0.306 C 
ATOM      4  O   UNL     1      -1.900   7.992   0.063  0.00  0.00    -0.252 OA
ATOM      5  N   UNL     1      -2.471   5.846   0.057  0.00  0.00    -0.239 N 
ATOM      6  C   UNL     1      -1.179   5.461   0.043  0.00  0.00    +0.231 C 
ATOM      7  O   UNL     1      -0.298   6.294   0.039  0.00  0.00    -0.274 OA
ATOM      8  H   UNL     1      -4.779   6.876   0.085  0.00  0.00    +0.151 HD
ATOM      9  H   UNL     1      -3.175   5.180   0.060  0.00  0.00    +0.159 HD
BRANCH   2  16
ATOM     10  C   UNL     1      -5.788   8.625   2.150  0.00  0.00    +0.009 C 
ATOM     11  C   UNL     1      -5.798   9.158   0.716  0.00  0.00    +0.006 C 
ATOM     12  C   UNL     1      -6.837   8.392  -0.105  0.00  0.00    +0.005 C 
ATOM     13  C   UNL     1      -6.846   8.925  -1.540  0.00  0.00    +0.000 C 
ATOM     14  C   UNL     1      -5.462   8.735  -2.163  0.00  0.00    +0.002 C 
ATOM     15  C   UNL     1      -4.423   9.501  -1.342  0.00  0.00    +0.022 C 
ATOM     16  C   UNL     1      -4.414   8.968   0.092  0.00  0.00    +0.077 C 
ENDBRANCH   2  16
ENDBRANCH   1   6
BRANCH   1  17
ATOM     17  S   UNL     1       0.970   3.804   0.013  0.00  0.00    -0.078 S 
BRANCH  17  18
ATOM     18  C   UNL     1       1.090   2.046   0.003  0.00  0.00    +0.173 A 
ATOM     19  N   UNL     1      -0.016   1.344   0.009  0.00  0.00    -0.223 NA
ATOM     20  C   UNL     1       0.002  -0.004   0.002  0.00  0.00    +0.079 A 
ATOM     21  C   UNL     1      -1.179  -0.753   0.008  0.00  0.00    +0.028 A 
ATOM     22  C   UNL     1      -1.113  -2.118   0.000  0.00  0.00    +0.002 A 
ATOM     23  C   UNL     1       0.110  -2.775  -0.015  0.00  0.00    +0.001 A 
ATOM     24  C   UNL     1       1.282  -2.070  -0.022  0.00  0.00    +0.015 A 
ATOM     25  C   UNL     1       1.245  -0.677  -0.013  0.00  0.00    +0.065 A 
ATOM     26  C   UNL     1       2.472   0.132  -0.021  0.00  0.00    +0.263 A 
ATOM     27  O   UNL     1       3.572  -0.389  -0.035  0.00  0.00    -0.267 OA
ATOM     28  N   UNL     1       2.332   1.478  -0.012  0.00  0.00    -0.285 N 
BRANCH  28  29
ATOM     29  C   UNL     1       3.522   2.333  -0.019  0.00  0.00    +0.087 C 
ATOM     30  C   UNL     1       4.369   2.038   1.221  0.00  0.00    +0.031 C 
ATOM     31  C   UNL     1       4.345   2.051  -1.278  0.00  0.00    +0.031 C 
ENDBRANCH  28  29
ENDBRANCH  17  18
ENDBRANCH   1  17
TORSDOF 5
