REMARK  Name = ZINC09830788
REMARK  9 active torsions:
REMARK  status: ('A' for Active; 'I' for Inactive)
REMARK    1  A    between atoms: C_1  and  C_2
REMARK    2  A    between atoms: C_5  and  C_35
REMARK    3  A    between atoms: C_6  and  N_8
REMARK    4  A    between atoms: C_9  and  C_11
REMARK    5  A    between atoms: C_11  and  N_12
REMARK    6  A    between atoms: C_16  and  S_22
REMARK    7  A    between atoms: S_22  and  N_25
REMARK    8  A    between atoms: C_27  and  C_34
REMARK    9  A    between atoms: C_30  and  C_33
REMARK                            x       y       z     vdW  Elec       q    Type
REMARK                         _______ _______ _______ _____ _____    ______ ____
ROOT
ATOM      1  N   UNL     1       3.341   7.432  -0.301  0.00  0.00    -0.265 N 
ATOM      2  C   UNL     1       3.236   8.319   0.770  0.00  0.00    +0.091 A 
ATOM      3  C   UNL     1       3.356   8.171   2.143  0.00  0.00    +0.031 A 
ATOM      4  C   UNL     1       3.195   9.266   2.969  0.00  0.00    +0.031 A 
ATOM      5  C   UNL     1       2.916  10.510   2.429  0.00  0.00    +0.109 A 
ATOM      6  C   UNL     1       2.795  10.665   1.062  0.00  0.00    +0.077 A 
ATOM      7  C   UNL     1       2.955   9.571   0.225  0.00  0.00    +0.159 A 
ATOM      8  O   UNL     1       2.896   9.421  -1.121  0.00  0.00    -0.407 OA
ATOM      9  C   UNL     1       3.134   8.137  -1.432  0.00  0.00    +0.422 A 
ATOM     10  O   UNL     1       3.155   7.679  -2.558  0.00  0.00    -0.223 OA
ENDROOT
BRANCH   5  11
ATOM     11  S   UNL     1       2.714  11.901   3.490  0.00  0.00    +0.061 S 
ATOM     12  O   UNL     1       1.920  12.842   2.780  0.00  0.00    -0.153 OA
ATOM     13  O   UNL     1       2.335  11.391   4.761  0.00  0.00    -0.153 OA
BRANCH  11  14
ATOM     14  N   UNL     1       4.207  12.591   3.683  0.00  0.00    -0.176 NA
ATOM     15  C   UNL     1       5.090  12.171   4.780  0.00  0.00    +0.112 C 
ATOM     16  C   UNL     1       6.450  11.774   4.187  0.00  0.00    +0.002 C 
ATOM     17  C   UNL     1       6.995  12.936   3.352  0.00  0.00    +0.009 C 
ATOM     18  C   UNL     1       6.034  13.231   2.198  0.00  0.00    +0.002 C 
ATOM     19  C   UNL     1       4.671  13.640   2.765  0.00  0.00    +0.112 C 
ATOM     20  C   UNL     1       6.596  14.370   1.345  0.00  0.00    +0.009 C 
ATOM     21  C   UNL     1       6.283  10.540   3.298  0.00  0.00    +0.009 C 
ENDBRANCH  11  14
ENDBRANCH   5  11
BRANCH   1  22
ATOM     22  C   UNL     1       3.629   5.998  -0.215  0.00  0.00    +0.224 C 
BRANCH  22  24
ATOM     23  N   UNL     1       2.356   3.889   0.001  0.00  0.00    -0.284 N 
ATOM     24  C   UNL     1       2.336   5.233  -0.093  0.00  0.00    +0.237 C 
ATOM     25  O   UNL     1       1.279   5.827  -0.081  0.00  0.00    -0.274 OA
ATOM     26  H   UNL     1       3.202   3.420   0.071  0.00  0.00    +0.155 HD
BRANCH  23  32
ATOM     27  C   UNL     1      -2.390   3.583  -1.245  0.00  0.00    +0.044 C 
ATOM     28  C   UNL     1      -1.161   2.998  -0.600  0.00  0.00    -0.049 A 
ATOM     29  C   UNL     1      -1.217   1.746  -0.015  0.00  0.00    +0.004 A 
ATOM     30  C   UNL     1      -0.093   1.208   0.583  0.00  0.00    +0.005 A 
ATOM     31  C   UNL     1       1.094   1.915   0.589  0.00  0.00    -0.029 A 
ATOM     32  C   UNL     1       1.155   3.170  -0.003  0.00  0.00    +0.037 A 
ATOM     33  C   UNL     1       0.022   3.710  -0.598  0.00  0.00    +0.027 A 
ATOM     34  C   UNL     1       2.321   1.325   1.235  0.00  0.00    +0.045 C 
ENDBRANCH  23  32
ENDBRANCH  22  24
ENDBRANCH   1  22
TORSDOF 5
