REMARK  Name = ZINC27646548
REMARK  11 active torsions:
REMARK  status: ('A' for Active; 'I' for Inactive)
REMARK    1  A    between atoms: C_1  and  C_2
REMARK    2  A    between atoms: C_2  and  C_4
REMARK    3  A    between atoms: C_2  and  C_12
REMARK    4  A    between atoms: C_5  and  C_6
REMARK    5  A    between atoms: C_6  and  C_8
REMARK    6  A    between atoms: C_6  and  O_11
REMARK    7  A    between atoms: C_16  and  C_36
REMARK    8  A    between atoms: C_17  and  C_35
REMARK    9  A    between atoms: C_22  and  C_23
REMARK   10  A    between atoms: C_26  and  O_34
REMARK   11  A    between atoms: C_29  and  O_33
REMARK                            x       y       z     vdW  Elec       q    Type
REMARK                         _______ _______ _______ _____ _____    ______ ____
ROOT
ATOM      1  C   UNL     1       0.226  -4.159  -4.270  0.00  0.00    +0.002 C 
ATOM      2  C   UNL     1       0.219  -3.144  -5.427  0.00  0.00    +0.005 C 
ATOM      3  C   UNL     1      -0.752  -2.014  -5.018  0.00  0.00    +0.012 C 
ATOM      4  C   UNL     1      -0.788  -2.103  -3.479  0.00  0.00    -0.005 C 
ATOM      5  C   UNL     1      -0.768  -3.621  -3.209  0.00  0.00    -0.020 C 
ATOM      6  C   UNL     1      -2.141  -4.231  -3.493  0.00  0.00    +0.008 C 
ATOM      7  C   UNL     1      -3.221  -3.575  -2.637  0.00  0.00    +0.005 C 
ATOM      8  C   UNL     1      -3.367  -2.119  -3.106  0.00  0.00    +0.031 C 
ATOM      9  C   UNL     1      -2.019  -1.460  -2.922  0.00  0.00    -0.063 C 
ATOM     10  C   UNL     1      -1.927  -0.307  -2.260  0.00  0.00    +0.000 C 
ATOM     11  C   UNL     1      -0.300  -3.934  -1.787  0.00  0.00    +0.012 C 
ATOM     12  C   UNL     1       0.458  -1.450  -2.877  0.00  0.00    +0.016 C 
ENDROOT
BRANCH  10  13
ATOM     13  C   UNL     1      -3.113   0.269  -1.622  0.00  0.00    +0.004 C 
ATOM     14  C   UNL     1      -2.998   1.372  -0.855  0.00  0.00    -0.040 C 
ATOM     15  C   UNL     1      -4.202   1.998  -0.178  0.00  0.00    +0.067 C 
ATOM     16  C   UNL     1      -4.158   3.511  -0.418  0.00  0.00    +0.122 C 
ATOM     17  C   UNL     1      -2.845   4.083   0.117  0.00  0.00    +0.067 C 
ATOM     18  C   UNL     1      -1.671   3.543  -0.698  0.00  0.00    +0.147 C 
ATOM     19  C   UNL     1      -1.693   2.029  -0.633  0.00  0.00    -0.023 C 
ATOM     20  C   UNL     1      -0.590   1.324  -0.383  0.00  0.00    +0.015 C 
BRANCH  18  21
ATOM     21  O   UNL     1      -1.798   3.969  -2.056  0.00  0.00    -0.387 OA
ATOM     22  H   UNL     1      -1.040   3.675  -2.797  0.00  0.00    +0.210 HD
ENDBRANCH  18  21
BRANCH  16  23
ATOM     23  O   UNL     1      -5.256   4.130   0.254  0.00  0.00    -0.391 OA
ATOM     24  H   UNL     1      -5.392   5.220   0.197  0.00  0.00    +0.210 HD
ENDBRANCH  16  23
ENDBRANCH  10  13
BRANCH   1  26
ATOM     25  C   UNL     1      -0.144  -6.546  -3.631  0.00  0.00    +0.012 C 
ATOM     26  C   UNL     1      -0.233  -5.530  -4.771  0.00  0.00    +0.012 C 
BRANCH  26  27
ATOM     27  C   UNL     1       0.653  -5.971  -5.908  0.00  0.00    -0.025 C 
ATOM     28  C   UNL     1       0.136  -6.207  -7.088  0.00  0.00    +0.000 C 
BRANCH  28  29
ATOM     29  C   UNL     1       1.022  -6.648  -8.224  0.00  0.00    +0.140 C 
BRANCH  29  30
ATOM     30  C   UNL     1       0.489  -7.958  -8.807  0.00  0.00    +0.022 C 
ATOM     31  C   UNL     1       1.327  -9.220  -8.591  0.00  0.00    +0.007 C 
ATOM     32  C   UNL     1       1.257  -8.575  -9.978  0.00  0.00    +0.007 C 
ENDBRANCH  29  30
BRANCH  29  33
ATOM     33  O   UNL     1       2.352  -6.848  -7.742  0.00  0.00    -0.387 OA
ATOM     34  H   UNL     1       3.144  -7.173  -8.431  0.00  0.00    +0.210 HD
ENDBRANCH  29  33
ENDBRANCH  28  29
ENDBRANCH  26  27
ENDBRANCH   1  26
TORSDOF 8
