REMARK  Name = ZINC08791397
REMARK  9 active torsions:
REMARK  status: ('A' for Active; 'I' for Inactive)
REMARK    1  A    between atoms: C_1  and  C_2
REMARK    2  A    between atoms: C_2  and  C_35
REMARK    3  A    between atoms: C_8  and  O_20
REMARK    4  A    between atoms: O_20  and  C_21
REMARK    5  A    between atoms: C_21  and  C_22
REMARK    6  A    between atoms: N_24  and  C_25
REMARK    7  A    between atoms: C_28  and  C_31
REMARK    8  A    between atoms: C_31  and  C_32
REMARK    9  A    between atoms: C_32  and  O_33
REMARK                            x       y       z     vdW  Elec       q    Type
REMARK                         _______ _______ _______ _____ _____    ______ ____
ROOT
ATOM      1  C   UNL     1      -4.848   2.028   6.881  0.00  0.00    +0.055 C 
ATOM      2  C   UNL     1      -3.926   3.216   7.163  0.00  0.00    +0.105 C 
ATOM      3  C   UNL     1      -2.487   2.719   7.353  0.00  0.00    +0.052 C 
ATOM      4  C   UNL     1      -2.094   1.904   6.119  0.00  0.00    +0.046 C 
ATOM      5  C   UNL     1      -2.456   2.666   4.869  0.00  0.00    +0.038 A 
ATOM      6  C   UNL     1      -3.357   3.717   4.899  0.00  0.00    +0.131 A 
ATOM      7  C   UNL     1      -3.679   4.401   3.726  0.00  0.00    +0.092 A 
ATOM      8  C   UNL     1      -3.105   4.044   2.524  0.00  0.00    +0.136 A 
ATOM      9  C   UNL     1      -2.187   2.980   2.486  0.00  0.00    +0.063 A 
ATOM     10  C   UNL     1      -1.868   2.292   3.668  0.00  0.00    +0.149 A 
ATOM     11  O   UNL     1      -0.988   1.267   3.629  0.00  0.00    -0.421 OA
ATOM     12  C   UNL     1      -0.413   0.902   2.473  0.00  0.00    +0.341 A 
ATOM     13  O   UNL     1       0.376  -0.026   2.469  0.00  0.00    -0.245 OA
ATOM     14  C   UNL     1      -0.702   1.570   1.258  0.00  0.00    +0.041 A 
ATOM     15  C   UNL     1      -1.581   2.595   1.256  0.00  0.00    -0.023 A 
ATOM     16  C   UNL     1      -1.956   3.353   0.012  0.00  0.00    +0.036 C 
ATOM     17  C   UNL     1      -0.930   3.114  -1.095  0.00  0.00    +0.005 C 
ATOM     18  C   UNL     1      -0.721   1.601  -1.237  0.00  0.00    +0.005 C 
ATOM     19  C   UNL     1      -0.000   1.097   0.012  0.00  0.00    +0.042 C 
ATOM     20  O   UNL     1      -3.948   4.116   6.055  0.00  0.00    -0.486 OA
ATOM     21  C   UNL     1      -4.391   3.943   8.427  0.00  0.00    +0.055 C 
ENDROOT
BRANCH   8  22
ATOM     22  O   UNL     1      -3.423   4.715   1.388  0.00  0.00    -0.482 OA
BRANCH  22  23
ATOM     23  C   UNL     1      -4.363   5.784   1.507  0.00  0.00    +0.324 C 
BRANCH  23  24
ATOM     24  C   UNL     1      -4.591   6.406   0.154  0.00  0.00    +0.255 C 
ATOM     25  O   UNL     1      -4.006   5.976  -0.818  0.00  0.00    -0.272 OA
ATOM     26  N   UNL     1      -5.445   7.440   0.022  0.00  0.00    -0.283 N 
ATOM     27  H   UNL     1      -5.964   7.741   0.785  0.00  0.00    +0.155 HD
BRANCH  26  28
ATOM     28  C   UNL     1      -5.585   8.080  -1.214  0.00  0.00    +0.034 A 
ATOM     29  C   UNL     1      -5.817   9.448  -1.267  0.00  0.00    +0.023 A 
ATOM     30  C   UNL     1      -5.948  10.078  -2.490  0.00  0.00    +0.005 A 
ATOM     31  C   UNL     1      -5.859   9.346  -3.659  0.00  0.00    -0.045 A 
ATOM     32  C   UNL     1      -5.634   7.982  -3.609  0.00  0.00    +0.005 A 
ATOM     33  C   UNL     1      -5.496   7.348  -2.390  0.00  0.00    +0.023 A 
BRANCH  31  34
ATOM     34  C   UNL     1      -6.009  10.035  -4.991  0.00  0.00    +0.063 C 
BRANCH  34  35
ATOM     35  C   UNL     1      -7.482  10.034  -5.403  0.00  0.00    +0.160 C 
BRANCH  35  36
ATOM     36  O   UNL     1      -7.624  10.688  -6.666  0.00  0.00    -0.395 OA
ATOM     37  H   UNL     1      -8.534  10.724  -6.990  0.00  0.00    +0.209 HD
ENDBRANCH  35  36
ENDBRANCH  34  35
ENDBRANCH  31  34
ENDBRANCH  26  28
ENDBRANCH  23  24
ENDBRANCH  22  23
ENDBRANCH   8  22
TORSDOF 7
