REMARK  Name = ZINC06175753
REMARK  6 active torsions:
REMARK  status: ('A' for Active; 'I' for Inactive)
REMARK    1  A    between atoms: C_1  and  C_2
REMARK    2  A    between atoms: C_5  and  C_30
REMARK    3  A    between atoms: N_8  and  S_10
REMARK    4  A    between atoms: S_10  and  N_13
REMARK    5  A    between atoms: C_17  and  C_20
REMARK    6  A    between atoms: N_22  and  C_23
REMARK                            x       y       z     vdW  Elec       q    Type
REMARK                         _______ _______ _______ _____ _____    ______ ____
ROOT
ATOM      1  N   UNL     1       2.514  -3.247  -0.119  0.00  0.00    -0.166 NA
ATOM      2  C   UNL     1       2.026  -4.436  -0.831  0.00  0.00    +0.110 C 
ATOM      3  C   UNL     1       1.455  -4.000  -2.184  0.00  0.00    +0.018 C 
ATOM      4  C   UNL     1       2.514  -3.201  -2.947  0.00  0.00    +0.015 C 
ATOM      5  C   UNL     1       2.881  -1.947  -2.151  0.00  0.00    +0.091 C 
ATOM      6  C   UNL     1       3.463  -2.356  -0.800  0.00  0.00    +0.123 C 
ENDROOT
BRANCH   5   7
ATOM      7  C   UNL     1       3.899  -1.144  -2.918  0.00  0.00    +0.218 C 
ATOM      8  O   UNL     1       4.987  -0.920  -2.431  0.00  0.00    -0.275 OA
ATOM      9  N   UNL     1       3.601  -0.674  -4.146  0.00  0.00    -0.312 N 
ATOM     10  H   UNL     1       2.731  -0.854  -4.536  0.00  0.00    +0.149 HD
BRANCH   9  11
ATOM     11  C   UNL     1       4.591   0.106  -4.892  0.00  0.00    +0.073 C 
ATOM     12  C   UNL     1       4.544   1.569  -4.405  0.00  0.00    +0.022 C 
ATOM     13  C   UNL     1       5.845   2.235  -4.765  0.00  0.00    +0.002 C 
ATOM     14  C   UNL     1       5.772   2.981  -6.111  0.00  0.00    +0.000 C 
ATOM     15  C   UNL     1       5.008   2.191  -7.192  0.00  0.00    +0.000 C 
ATOM     16  C   UNL     1       5.350   0.726  -7.183  0.00  0.00    +0.002 C 
ATOM     17  C   UNL     1       4.311  -0.015  -6.315  0.00  0.00    +0.022 C 
ENDBRANCH   9  11
ENDBRANCH   5   7
BRANCH   1  18
ATOM     18  S   UNL     1       1.999  -2.914   1.419  0.00  0.00    +0.100 S 
ATOM     19  O   UNL     1       2.998  -2.098   2.015  0.00  0.00    -0.141 OA
ATOM     20  O   UNL     1       1.587  -4.150   1.986  0.00  0.00    -0.141 OA
BRANCH  18  26
ATOM     21  C   UNL     1      -0.019   1.526   0.010  0.00  0.00    +0.009 C 
ATOM     22  C   UNL     1       0.002  -0.004   0.002  0.00  0.00    +0.002 C 
ATOM     23  C   UNL     1      -1.433  -0.534   0.015  0.00  0.00    +0.009 C 
ATOM     24  C   UNL     1      -1.414  -2.064  -0.027  0.00  0.00    +0.002 C 
ATOM     25  C   UNL     1      -0.692  -2.596   1.215  0.00  0.00    +0.113 C 
ATOM     26  N   UNL     1       0.639  -1.977   1.288  0.00  0.00    -0.166 NA
ATOM     27  C   UNL     1       0.742  -0.512   1.244  0.00  0.00    +0.113 C 
ATOM     28  C   UNL     1      -2.850  -2.592  -0.049  0.00  0.00    +0.009 C 
ENDBRANCH  18  26
ENDBRANCH   1  18
TORSDOF 4
