REMARK  Name = ZINC59159698
REMARK  12 active torsions:
REMARK  status: ('A' for Active; 'I' for Inactive)
REMARK    1  A    between atoms: C_1  and  C_2
REMARK    2  A    between atoms: C_3  and  C_16
REMARK    3  A    between atoms: C_4  and  C_15
REMARK    4  A    between atoms: N_5  and  C_7
REMARK    5  A    between atoms: C_7  and  C_8
REMARK    6  A    between atoms: N_17  and  N_18
REMARK    7  A    between atoms: C_19  and  C_21
REMARK    8  A    between atoms: C_21  and  C_23
REMARK    9  A    between atoms: C_21  and  N_27
REMARK   10  A    between atoms: C_23  and  C_24
REMARK   11  A    between atoms: C_24  and  C_25
REMARK   12  A    between atoms: C_24  and  C_26
REMARK                            x       y       z     vdW  Elec       q    Type
REMARK                         _______ _______ _______ _____ _____    ______ ____
ROOT
ATOM      1  C   UNL     1       1.271   0.168  -0.657  0.00  0.00    +0.068 C 
ATOM      2  C   UNL     1       1.262  -1.306  -0.971  0.00  0.00    +0.069 A 
ATOM      3  C   UNL     1       0.998  -1.882  -2.232  0.00  0.00    +0.038 A 
ATOM      4  C   UNL     1       1.090  -3.249  -2.085  0.00  0.00    +0.045 A 
ATOM      5  N   UNL     1       1.396  -3.495  -0.796  0.00  0.00    -0.263 N 
ATOM      6  N   UNL     1       1.503  -2.271  -0.126  0.00  0.00    -0.175 NA
ATOM      7  C   UNL     1       0.886  -4.279  -3.166  0.00  0.00    +0.066 C 
ENDROOT
BRANCH   3   8
ATOM      8  C   UNL     1       0.681  -1.156  -3.478  0.00  0.00    +0.141 C 
ATOM      9  N   UNL     1       0.627   0.140  -3.476  0.00  0.00    -0.188 NA
BRANCH   9  10
ATOM     10  N   UNL     1       0.327   0.830  -4.659  0.00  0.00    -0.208 N 
ATOM     11  C   UNL     1       0.270   2.176  -4.657  0.00  0.00    +0.218 C 
ATOM     12  O   UNL     1       0.479   2.791  -3.633  0.00  0.00    -0.276 OA
ATOM     13  H   UNL     1       0.159   0.338  -5.478  0.00  0.00    +0.177 HD
BRANCH  11  14
ATOM     14  C   UNL     1      -0.053   2.918  -5.929  0.00  0.00    +0.015 C 
BRANCH  14  15
ATOM     15  N   UNL     1       0.401   4.310  -5.813  0.00  0.00    +0.386 N 
ATOM     16  H   UNL     1      -0.142   4.783  -5.106  0.00  0.00    -0.089 HD
ATOM     17  H   UNL     1       1.376   4.325  -5.554  0.00  0.00    -0.089 HD
ATOM     18  H   UNL     1       0.281   4.778  -6.699  0.00  0.00    -0.089 HD
ENDBRANCH  14  15
BRANCH  14  19
ATOM     19  C   UNL     1      -1.565   2.892  -6.164  0.00  0.00    -0.004 C 
BRANCH  19  20
ATOM     20  C   UNL     1      -1.881   3.528  -7.519  0.00  0.00    -0.018 C 
ATOM     21  C   UNL     1      -1.296   2.663  -8.637  0.00  0.00    +0.007 C 
ATOM     22  C   UNL     1      -3.397   3.630  -7.694  0.00  0.00    +0.007 C 
ENDBRANCH  19  20
ENDBRANCH  14  19
ENDBRANCH  11  14
ENDBRANCH   9  10
ENDBRANCH   3   8
BRANCH   5  23
ATOM     23  C   UNL     1       1.589  -4.819  -0.198  0.00  0.00    +0.180 C 
BRANCH  23  24
ATOM     24  C   UNL     1       3.039  -5.214  -0.310  0.00  0.00    -0.008 A 
ATOM     25  C   UNL     1       3.465  -5.989  -1.373  0.00  0.00    +0.007 A 
ATOM     26  C   UNL     1       4.794  -6.351  -1.476  0.00  0.00    +0.000 A 
ATOM     27  C   UNL     1       5.700  -5.938  -0.517  0.00  0.00    +0.001 A 
ATOM     28  C   UNL     1       5.277  -5.163   0.546  0.00  0.00    +0.020 A 
ATOM     29  C   UNL     1       3.946  -4.795   0.647  0.00  0.00    +0.046 A 
ATOM     30 CL   UNL     1       3.414  -3.816   1.978  0.00  0.00    -0.083 Cl
ENDBRANCH  23  24
ENDBRANCH   5  23
TORSDOF 8
