REMARK  Name = ZINC66671934
REMARK  14 active torsions:
REMARK  status: ('A' for Active; 'I' for Inactive)
REMARK    1  A    between atoms: C_1  and  C_2
REMARK    2  A    between atoms: C_2  and  C_3
REMARK    3  A    between atoms: C_2  and  C_4
REMARK    4  A    between atoms: C_2  and  C_5
REMARK    5  A    between atoms: C_7  and  N_14
REMARK    6  A    between atoms: N_8  and  C_10
REMARK    7  A    between atoms: C_10  and  C_11
REMARK    8  A    between atoms: C_10  and  C_12
REMARK    9  A    between atoms: C_10  and  C_13
REMARK   10  A    between atoms: C_15  and  C_17
REMARK   11  A    between atoms: C_18  and  C_19
REMARK   12  A    between atoms: C_22  and  O_25
REMARK   13  A    between atoms: O_25  and  C_26
REMARK   14  A    between atoms: C_26  and  C_27
REMARK                            x       y       z     vdW  Elec       q    Type
REMARK                         _______ _______ _______ _____ _____    ______ ____
ROOT
ATOM      1  N   UNL     1       3.572  -1.155  -3.288  0.00  0.00    -0.267 N 
ATOM      2  C   UNL     1       4.689  -0.776  -2.635  0.00  0.00    +0.242 C 
ATOM      3  O   UNL     1       4.608  -0.293  -1.521  0.00  0.00    -0.270 OA
ATOM      4  H   UNL     1       3.637  -1.540  -4.176  0.00  0.00    +0.157 HD
ENDROOT
BRANCH   1   7
ATOM      5  C   UNL     1       0.707  -0.490  -1.238  0.00  0.00    +0.070 A 
ATOM      6  C   UNL     1       2.088  -0.471  -1.453  0.00  0.00    +0.069 A 
ATOM      7  C   UNL     1       2.326  -0.994  -2.687  0.00  0.00    +0.124 A 
ATOM      8  N   UNL     1       1.125  -1.329  -3.226  0.00  0.00    -0.245 N 
ATOM      9  N   UNL     1       0.131  -1.006  -2.293  0.00  0.00    -0.174 NA
BRANCH   5  11
ATOM     10  C   UNL     1      -0.019   1.526   0.010  0.00  0.00    +0.017 C 
ATOM     11  C   UNL     1       0.002  -0.004   0.002  0.00  0.00    +0.006 C 
ATOM     12  C   UNL     1       0.742  -0.511   1.242  0.00  0.00    +0.017 C 
ATOM     13  C   UNL     1      -1.433  -0.534   0.013  0.00  0.00    +0.017 C 
ENDBRANCH   5  11
BRANCH   8  14
ATOM     14  C   UNL     1       0.908  -1.927  -4.546  0.00  0.00    +0.057 C 
ATOM     15  C   UNL     1       1.637  -3.270  -4.624  0.00  0.00    +0.036 C 
ATOM     16  C   UNL     1      -0.590  -2.147  -4.766  0.00  0.00    +0.036 C 
ATOM     17  C   UNL     1       1.450  -0.989  -5.626  0.00  0.00    +0.036 C 
ENDBRANCH   8  14
ENDBRANCH   1   7
BRANCH   2  18
ATOM     18  C   UNL     1       5.997  -0.945  -3.266  0.00  0.00    +0.068 C 
ATOM     19  C   UNL     1       7.116  -0.566  -2.612  0.00  0.00    +0.013 C 
BRANCH  19  20
ATOM     20  C   UNL     1       8.431  -0.736  -3.246  0.00  0.00    -0.025 A 
ATOM     21  C   UNL     1       8.526  -1.285  -4.530  0.00  0.00    +0.011 A 
ATOM     22  C   UNL     1       9.760  -1.442  -5.119  0.00  0.00    +0.046 A 
ATOM     23  C   UNL     1      10.911  -1.055  -4.441  0.00  0.00    +0.121 A 
ATOM     24  C   UNL     1      10.822  -0.509  -3.166  0.00  0.00    +0.046 A 
ATOM     25  C   UNL     1       9.592  -0.343  -2.570  0.00  0.00    +0.011 A 
BRANCH  23  26
ATOM     26  O   UNL     1      12.126  -1.212  -5.027  0.00  0.00    -0.483 OA
BRANCH  26  27
ATOM     27  C   UNL     1      13.267  -0.794  -4.276  0.00  0.00    +0.324 C 
BRANCH  27  28
ATOM     28  C   UNL     1      14.517  -1.042  -5.080  0.00  0.00    +0.248 C 
ATOM     29  O   UNL     1      14.438  -1.529  -6.188  0.00  0.00    -0.272 OA
ATOM     30  N   UNL     1      15.722  -0.723  -4.568  0.00  0.00    -0.327 N 
ATOM     31  H   UNL     1      15.785  -0.334  -3.682  0.00  0.00    +0.145 HD
ATOM     32  H   UNL     1      16.527  -0.883  -5.086  0.00  0.00    +0.145 HD
ENDBRANCH  27  28
ENDBRANCH  26  27
ENDBRANCH  23  26
ENDBRANCH  19  20
ENDBRANCH   2  18
TORSDOF 8
