REMARK  Name = ZINC45481168
REMARK  10 active torsions:
REMARK  status: ('A' for Active; 'I' for Inactive)
REMARK    1  A    between atoms: C_2  and  C_3
REMARK    2  A    between atoms: C_3  and  N_4
REMARK    3  A    between atoms: C_5  and  C_25
REMARK    4  A    between atoms: C_8  and  S_9
REMARK    5  A    between atoms: S_9  and  C_10
REMARK    6  A    between atoms: C_10  and  C_11
REMARK    7  A    between atoms: N_13  and  C_14
REMARK    8  A    between atoms: C_15  and  C_22
REMARK    9  A    between atoms: C_25  and  O_26
REMARK   10  A    between atoms: O_26  and  C_27
REMARK                            x       y       z     vdW  Elec       q    Type
REMARK                         _______ _______ _______ _____ _____    ______ ____
ROOT
ATOM      1  S   UNL     1       0.251  -3.863  -0.230  0.00  0.00    -0.077 S 
ENDROOT
BRANCH   1   6
ATOM      2  N   UNL     1       1.367  -1.676   1.111  0.00  0.00    -0.299 N 
ATOM      3  C   UNL     1       1.833  -1.425   2.373  0.00  0.00    +0.172 A 
ATOM      4  N   UNL     1       1.697  -2.523   3.061  0.00  0.00    -0.130 NA
ATOM      5  N   UNL     1       1.181  -3.444   2.327  0.00  0.00    -0.122 NA
ATOM      6  C   UNL     1       0.954  -2.977   1.121  0.00  0.00    +0.192 A 
BRANCH   2   7
ATOM      7  C   UNL     1       1.317  -0.740  -0.015  0.00  0.00    +0.152 C 
BRANCH   7   9
ATOM      8  C   UNL     1      -0.016   1.306   0.009  0.00  0.00    +0.005 C 
ATOM      9  C   UNL     1       0.002  -0.004   0.002  0.00  0.00    -0.013 C 
ENDBRANCH   7   9
ENDBRANCH   2   7
BRANCH   3  10
ATOM     10  C   UNL     1       2.398  -0.122   2.874  0.00  0.00    +0.305 C 
BRANCH  10  11
ATOM     11  O   UNL     1       1.343   0.680   3.410  0.00  0.00    -0.481 OA
BRANCH  11  12
ATOM     12  C   UNL     1       1.686   1.898   3.908  0.00  0.00    +0.156 A 
ATOM     13  C   UNL     1       3.008   2.314   3.876  0.00  0.00    +0.048 A 
ATOM     14  C   UNL     1       3.354   3.553   4.383  0.00  0.00    +0.004 A 
ATOM     15  C   UNL     1       2.384   4.377   4.923  0.00  0.00    +0.003 A 
ATOM     16  C   UNL     1       1.065   3.965   4.957  0.00  0.00    +0.042 A 
ATOM     17  C   UNL     1       0.711   2.730   4.445  0.00  0.00    +0.165 A 
ATOM     18  F   UNL     1      -0.579   2.330   4.472  0.00  0.00    -0.202 F 
ENDBRANCH  11  12
ENDBRANCH  10  11
ENDBRANCH   3  10
ENDBRANCH   1   6
BRANCH   1  19
ATOM     19  C   UNL     1      -0.067  -5.515   0.447  0.00  0.00    +0.173 C 
BRANCH  19  20
ATOM     20  C   UNL     1      -0.677  -6.386  -0.621  0.00  0.00    +0.228 C 
ATOM     21  O   UNL     1      -0.877  -5.937  -1.730  0.00  0.00    -0.275 OA
ATOM     22  N   UNL     1      -1.000  -7.665  -0.344  0.00  0.00    -0.279 N 
ATOM     23  H   UNL     1      -0.841  -8.025   0.542  0.00  0.00    +0.155 HD
BRANCH  22  24
ATOM     24  C   UNL     1      -1.562  -8.467  -1.327  0.00  0.00    +0.084 A 
ATOM     25  C   UNL     1      -1.958  -9.787  -1.223  0.00  0.00    +0.068 A 
ATOM     26  C   UNL     1      -2.527 -10.412  -2.416  0.00  0.00    -0.023 A 
ATOM     27  C   UNL     1      -2.590  -9.597  -3.484  0.00  0.00    -0.004 A 
ATOM     28  S   UNL     1      -1.923  -8.055  -2.912  0.00  0.00    -0.077 S 
ATOM     29  C   UNL     1      -3.179 -10.290  -4.684  0.00  0.00    +0.043 C 
ATOM     30  C   UNL     1      -3.089 -11.795  -4.348  0.00  0.00    +0.010 C 
ATOM     31  C   UNL     1      -3.094 -11.775  -2.807  0.00  0.00    +0.037 C 
BRANCH  25  32
ATOM     32  C   UNL     1      -1.813 -10.531   0.033  0.00  0.00    +0.244 C 
ATOM     33  O   UNL     1      -2.716 -10.528   0.849  0.00  0.00    -0.270 OA
ATOM     34  N   UNL     1      -0.681 -11.218   0.282  0.00  0.00    -0.325 N 
ATOM     35  H   UNL     1       0.038 -11.221  -0.369  0.00  0.00    +0.145 HD
ATOM     36  H   UNL     1      -0.585 -11.710   1.112  0.00  0.00    +0.145 HD
ENDBRANCH  25  32
ENDBRANCH  22  24
ENDBRANCH  19  20
ENDBRANCH   1  19
TORSDOF 10
