REMARK  Name = ZINC11661665
REMARK  9 active torsions:
REMARK  status: ('A' for Active; 'I' for Inactive)
REMARK    1  A    between atoms: C_1  and  C_2
REMARK    2  A    between atoms: C_4  and  C_27
REMARK    3  A    between atoms: C_6  and  C_8
REMARK    4  A    between atoms: C_8  and  C_9
REMARK    5  A    between atoms: C_9  and  N_52
REMARK    6  A    between atoms: C_10  and  C_11
REMARK    7  A    between atoms: C_10  and  N_52
REMARK    8  A    between atoms: N_13  and  C_26
REMARK    9  A    between atoms: C_15  and  C_16
REMARK                            x       y       z     vdW  Elec       q    Type
REMARK                         _______ _______ _______ _____ _____    ______ ____
ROOT
ATOM      1  C   UNL     1      -4.985   0.705   1.700  0.00  0.00    -0.043 C 
ENDROOT
BRANCH   1   2
ATOM      2  C   UNL     1      -4.840  -0.468   0.764  0.00  0.00    -0.019 A 
ATOM      3  C   UNL     1      -5.723  -1.478   0.613  0.00  0.00    +0.110 A 
ATOM      4  N   UNL     1      -5.228  -2.329  -0.312  0.00  0.00    -0.274 N 
ATOM      5  N   UNL     1      -3.997  -1.826  -0.752  0.00  0.00    -0.171 NA
ATOM      6  C   UNL     1      -3.760  -0.702  -0.109  0.00  0.00    +0.094 A 
ATOM      7  C   UNL     1      -5.867  -3.564  -0.773  0.00  0.00    +0.172 C 
BRANCH   6   8
ATOM      8  C   UNL     1      -2.564   0.162  -0.272  0.00  0.00    +0.006 A 
ATOM      9  C   UNL     1      -1.940   0.706   0.848  0.00  0.00    +0.014 A 
ATOM     10  C   UNL     1      -0.831   1.513   0.695  0.00  0.00    +0.050 A 
ATOM     11  C   UNL     1      -0.330   1.780  -0.572  0.00  0.00    +0.162 A 
ATOM     12  C   UNL     1      -0.949   1.237  -1.693  0.00  0.00    +0.163 A 
ATOM     13  C   UNL     1      -2.065   0.430  -1.544  0.00  0.00    +0.059 A 
ATOM     14  O   UNL     1      -0.471   1.487  -2.942  0.00  0.00    -0.485 OA
ATOM     15  C   UNL     1       0.420   2.600  -3.079  0.00  0.00    +0.270 C 
ATOM     16  C   UNL     1       1.458   2.526  -1.951  0.00  0.00    +0.270 C 
ATOM     17  O   UNL     1       0.764   2.579  -0.700  0.00  0.00    -0.485 OA
ENDBRANCH   6   8
ENDBRANCH   1   2
BRANCH   1  18
ATOM     18  N   UNL     1      -5.385   1.895   0.925  0.00  0.00    +0.382 N 
ATOM     19  H   UNL     1      -4.705   2.052   0.172  0.00  0.00    -0.085 HD
ATOM     20  H   UNL     1      -6.315   1.739   0.521  0.00  0.00    -0.085 HD
BRANCH  18  21
ATOM     21  C   UNL     1      -5.427   3.083   1.798  0.00  0.00    -0.074 C 
BRANCH  21  22
ATOM     22  C   UNL     1      -5.843   4.300   0.969  0.00  0.00    +0.057 C 
BRANCH  22  28
ATOM     23  C   UNL     1      -3.558   8.164   2.909  0.00  0.00    +0.066 C 
ATOM     24  C   UNL     1      -4.805   7.331   2.758  0.00  0.00    +0.042 A 
ATOM     25  C   UNL     1      -5.970   7.683   3.422  0.00  0.00    +0.055 A 
ATOM     26  C   UNL     1      -7.091   6.886   3.254  0.00  0.00    +0.147 A 
ATOM     27  N   UNL     1      -7.015   5.826   2.465  0.00  0.00    -0.228 NA
ATOM     28  C   UNL     1      -5.889   5.519   1.853  0.00  0.00    +0.128 A 
ATOM     29  N   UNL     1      -4.803   6.253   1.990  0.00  0.00    -0.237 NA
BRANCH  26  30
ATOM     30  C   UNL     1      -8.382   7.226   3.954  0.00  0.00    +0.434 C 
ATOM     31  F   UNL     1      -9.148   8.066   3.139  0.00  0.00    -0.164 F 
ATOM     32  F   UNL     1      -9.095   6.051   4.213  0.00  0.00    -0.164 F 
ATOM     33  F   UNL     1      -8.100   7.877   5.160  0.00  0.00    -0.164 F 
ENDBRANCH  26  30
ENDBRANCH  22  28
ENDBRANCH  21  22
ENDBRANCH  18  21
ENDBRANCH   1  18
TORSDOF 7
