REMARK  Name = ZINC64337964
REMARK  7 active torsions:
REMARK  status: ('A' for Active; 'I' for Inactive)
REMARK    1  A    between atoms: C_1  and  C_2
REMARK    2  A    between atoms: C_7  and  N_8
REMARK    3  A    between atoms: C_9  and  S_23
REMARK    4  A    between atoms: C_13  and  C_14
REMARK    5  A    between atoms: S_23  and  C_24
REMARK    6  A    between atoms: C_24  and  C_26
REMARK    7  A    between atoms: C_24  and  C_27
REMARK                            x       y       z     vdW  Elec       q    Type
REMARK                         _______ _______ _______ _____ _____    ______ ____
ROOT
ATOM      1  N   UNL     1      -0.375  -0.134   2.409  0.00  0.00    -0.254 N 
ATOM      2  C   UNL     1      -1.502   0.247   3.276  0.00  0.00    +0.242 C 
ATOM      3  N   UNL     1      -0.878   1.011   4.368  0.00  0.00    -0.237 N 
ATOM      4  N   UNL     1       0.496   1.037   4.101  0.00  0.00    -0.169 NA
ATOM      5  C   UNL     1       0.778   0.388   3.001  0.00  0.00    +0.151 C 
ATOM      6  H   UNL     1      -1.329   1.417   5.125  0.00  0.00    +0.171 HD
ENDROOT
BRANCH   5   7
ATOM      7  C   UNL     1       2.072   0.238   2.481  0.00  0.00    +0.022 C 
ATOM      8  C   UNL     1       3.262   0.726   3.023  0.00  0.00    +0.006 A 
ATOM      9  C   UNL     1       3.542   1.477   4.185  0.00  0.00    +0.010 A 
ATOM     10  C   UNL     1       4.824   1.820   4.472  0.00  0.00    +0.001 A 
ATOM     11  C   UNL     1       5.884   1.448   3.643  0.00  0.00    +0.002 A 
ATOM     12  C   UNL     1       5.688   0.727   2.511  0.00  0.00    +0.026 A 
ATOM     13  C   UNL     1       4.375   0.331   2.146  0.00  0.00    +0.043 A 
ATOM     14  N   UNL     1       3.928  -0.360   1.116  0.00  0.00    -0.380 N 
ATOM     15  C   UNL     1       2.471  -0.494   1.218  0.00  0.00    +0.152 C 
ATOM     16  H   UNL     1       4.476  -0.727   0.405  0.00  0.00    +0.160 HD
ENDBRANCH   5   7
BRANCH   1  23
ATOM     17  C   UNL     1      -0.361  -2.972   2.604  0.00  0.00    +0.045 C 
ATOM     18  C   UNL     1      -0.440  -2.264   1.276  0.00  0.00    -0.029 A 
ATOM     19  C   UNL     1      -0.515  -2.995   0.106  0.00  0.00    +0.005 A 
ATOM     20  C   UNL     1      -0.588  -2.346  -1.113  0.00  0.00    +0.000 A 
ATOM     21  C   UNL     1      -0.586  -0.964  -1.165  0.00  0.00    +0.002 A 
ATOM     22  C   UNL     1      -0.511  -0.227   0.000  0.00  0.00    +0.024 A 
ATOM     23  C   UNL     1      -0.444  -0.876   1.227  0.00  0.00    +0.041 A 
ENDBRANCH   1  23
BRANCH   2  24
ATOM     24  S   UNL     1      -2.682   1.282   2.366  0.00  0.00    -0.105 S 
BRANCH  24  25
ATOM     25  C   UNL     1      -1.672   2.656   1.746  0.00  0.00    +0.133 C 
ATOM     26  C   UNL     1      -1.281   3.568   2.910  0.00  0.00    +0.029 C 
BRANCH  25  27
ATOM     27  C   UNL     1      -2.463   3.444   0.734  0.00  0.00    +0.228 C 
ATOM     28  O   UNL     1      -3.676   3.409   0.752  0.00  0.00    -0.274 OA
ATOM     29  N   UNL     1      -1.824   4.186  -0.191  0.00  0.00    -0.301 N 
ATOM     30  C   UNL     1      -2.579   5.046  -1.113  0.00  0.00    +0.108 C 
ATOM     31  C   UNL     1      -2.020   6.470  -1.028  0.00  0.00    +0.019 C 
ATOM     32  C   UNL     1      -0.512   6.439  -1.290  0.00  0.00    +0.003 C 
ATOM     33  C   UNL     1       0.175   5.585  -0.222  0.00  0.00    +0.019 C 
ATOM     34  C   UNL     1      -0.359   4.156  -0.293  0.00  0.00    +0.108 C 
ENDBRANCH  25  27
ENDBRANCH  24  25
ENDBRANCH   2  24
TORSDOF 5
