REMARK  Name = ZINC12140868
REMARK  11 active torsions:
REMARK  status: ('A' for Active; 'I' for Inactive)
REMARK    1  A    between atoms: C_1  and  C_2
REMARK    2  A    between atoms: C_2  and  N_54
REMARK    3  A    between atoms: C_3  and  C_4
REMARK    4  A    between atoms: C_3  and  N_54
REMARK    5  A    between atoms: C_5  and  C_6
REMARK    6  A    between atoms: C_5  and  N_54
REMARK    7  A    between atoms: C_6  and  N_7
REMARK    8  A    between atoms: C_18  and  C_20
REMARK    9  A    between atoms: C_23  and  C_26
REMARK   10  A    between atoms: C_26  and  O_28
REMARK   11  A    between atoms: O_28  and  C_29
REMARK                            x       y       z     vdW  Elec       q    Type
REMARK                         _______ _______ _______ _____ _____    ______ ____
ROOT
ATOM      1  N   UNL     1       4.000  -0.673  -0.203  0.00  0.00    -0.248 N 
ATOM      2  C   UNL     1       2.715  -0.582   0.306  0.00  0.00    +0.168 A 
ATOM      3  N   UNL     1       1.901  -1.547   0.664  0.00  0.00    -0.221 NA
ATOM      4  C   UNL     1       0.663  -1.310   1.149  0.00  0.00    +0.115 A 
ATOM      5  C   UNL     1      -0.307  -2.252   1.570  0.00  0.00    +0.150 A 
ATOM      6  C   UNL     1      -1.527  -1.838   2.041  0.00  0.00    +0.040 A 
ATOM      7  C   UNL     1      -1.853  -0.492   2.124  0.00  0.00    +0.004 A 
ATOM      8  C   UNL     1      -0.928   0.455   1.727  0.00  0.00    +0.017 A 
ATOM      9  C   UNL     1       0.294   0.051   1.249  0.00  0.00    +0.044 A 
ATOM     10  S   UNL     1       1.744   0.880   0.642  0.00  0.00    -0.052 S 
ATOM     11  F   UNL     1      -0.028  -3.572   1.505  0.00  0.00    -0.203 F 
ATOM     12  C   UNL     1       4.567  -1.881  -0.387  0.00  0.00    +0.252 C 
ATOM     13  O   UNL     1       3.986  -2.887  -0.029  0.00  0.00    -0.270 OA
ENDROOT
BRANCH  12  14
ATOM     14  C   UNL     1       5.899  -1.984  -1.025  0.00  0.00    +0.037 A 
ATOM     15  C   UNL     1       6.935  -1.142  -0.618  0.00  0.00    +0.014 A 
ATOM     16  C   UNL     1       8.176  -1.241  -1.208  0.00  0.00    +0.016 A 
ATOM     17  C   UNL     1       8.394  -2.176  -2.221  0.00  0.00    +0.059 A 
ATOM     18  C   UNL     1       7.356  -3.015  -2.633  0.00  0.00    +0.016 A 
ATOM     19  C   UNL     1       6.117  -2.919  -2.038  0.00  0.00    +0.014 A 
BRANCH  17  20
ATOM     20  C   UNL     1       9.725  -2.279  -2.859  0.00  0.00    +0.339 C 
ATOM     21  O   UNL     1       9.915  -3.093  -3.740  0.00  0.00    -0.245 OA
BRANCH  20  22
ATOM     22  O   UNL     1      10.726  -1.470  -2.462  0.00  0.00    -0.464 OA
ATOM     23  C   UNL     1      12.005  -1.627  -3.132  0.00  0.00    +0.280 C 
ENDBRANCH  20  22
ENDBRANCH  17  20
ENDBRANCH  12  14
BRANCH   1  24
ATOM     24  C   UNL     1       4.742   0.544  -0.541  0.00  0.00    +0.097 C 
BRANCH  24  25
ATOM     25  C   UNL     1       5.330   1.153   0.733  0.00  0.00    -0.059 C 
BRANCH  25  26
ATOM     26  N   UNL     1       6.212   2.279   0.359  0.00  0.00    +0.380 N 
ATOM     27  H   UNL     1       6.880   1.958  -0.351  0.00  0.00    -0.082 HD
BRANCH  26  29
ATOM     28  C   UNL     1       4.443   3.935   0.849  0.00  0.00    -0.017 C 
ATOM     29  C   UNL     1       5.409   3.385  -0.203  0.00  0.00    -0.082 C 
ENDBRANCH  26  29
BRANCH  26  30
ATOM     30  C   UNL     1       6.960   2.750   1.544  0.00  0.00    -0.082 C 
ATOM     31  C   UNL     1       8.095   3.664   1.078  0.00  0.00    -0.017 C 
ENDBRANCH  26  30
ENDBRANCH  25  26
ENDBRANCH  24  25
ENDBRANCH   1  24
TORSDOF 8
