REMARK  Name = ZINC22357238
REMARK  10 active torsions:
REMARK  status: ('A' for Active; 'I' for Inactive)
REMARK    1  A    between atoms: C_1  and  C_2
REMARK    2  A    between atoms: C_2  and  C_30
REMARK    3  A    between atoms: C_4  and  N_10
REMARK    4  A    between atoms: C_6  and  C_8
REMARK    5  A    between atoms: C_6  and  C_9
REMARK    6  A    between atoms: N_10  and  C_11
REMARK    7  A    between atoms: C_14  and  S_20
REMARK    8  A    between atoms: C_16  and  N_17
REMARK    9  A    between atoms: S_20  and  N_23
REMARK   10  A    between atoms: N_26  and  C_29
REMARK                            x       y       z     vdW  Elec       q    Type
REMARK                         _______ _______ _______ _____ _____    ______ ____
ROOT
ATOM      1  C   UNL     1       2.200   0.169   5.445  0.00  0.00    +0.058 A 
ATOM      2  C   UNL     1       1.181   1.094   5.638  0.00  0.00    +0.027 A 
ATOM      3  C   UNL     1       0.261   1.324   4.634  0.00  0.00    +0.030 A 
ATOM      4  C   UNL     1       0.353   0.635   3.438  0.00  0.00    +0.108 A 
ATOM      5  C   UNL     1       1.362  -0.290   3.246  0.00  0.00    +0.063 A 
ATOM      6  C   UNL     1       2.289  -0.521   4.243  0.00  0.00    +0.149 A 
ENDROOT
BRANCH   6   7
ATOM      7  N   UNL     1       3.372  -1.508   4.034  0.00  0.00    +0.058 N 
ATOM      8  O   UNL     1       4.487  -1.291   4.475  0.00  0.00    -0.126 OA
ATOM      9  O   UNL     1       3.149  -2.536   3.421  0.00  0.00    -0.126 OA
ENDBRANCH   6   7
BRANCH   4  10
ATOM     10  S   UNL     1      -0.823   0.932   2.160  0.00  0.00    +0.061 S 
ATOM     11  O   UNL     1      -1.990   1.440   2.792  0.00  0.00    -0.153 OA
ATOM     12  O   UNL     1      -0.842  -0.233   1.347  0.00  0.00    -0.153 OA
BRANCH  10  13
ATOM     13  N   UNL     1      -0.224   2.156   1.218  0.00  0.00    -0.180 NA
ATOM     14  C   UNL     1       0.631   1.866   0.057  0.00  0.00    +0.091 C 
ATOM     15  C   UNL     1       0.068   2.603  -1.163  0.00  0.00    -0.062 C 
ATOM     16  N   UNL     1      -0.083   4.029  -0.844  0.00  0.00    +0.380 N 
ATOM     17  C   UNL     1      -1.053   4.232   0.240  0.00  0.00    -0.062 C 
ATOM     18  C   UNL     1      -0.536   3.562   1.517  0.00  0.00    +0.091 C 
ATOM     19  C   UNL     1      -0.456   4.799  -2.037  0.00  0.00    -0.096 C 
ATOM     20  H   UNL     1       0.893   4.397  -0.493  0.00  0.00    -0.082 HD
ENDBRANCH  10  13
ENDBRANCH   4  10
BRANCH   1  21
ATOM     21  N   UNL     1       3.132  -0.066   6.458  0.00  0.00    -0.339 N 
ATOM     22  H   UNL     1       3.881  -0.864   6.343  0.00  0.00    +0.146 HD
BRANCH  21  26
ATOM     23  C   UNL     1       2.363   0.842  10.700  0.00  0.00    -0.010 C 
ATOM     24  C   UNL     1       3.772   0.802  10.098  0.00  0.00    -0.072 C 
ATOM     25  C   UNL     1       3.757  -0.034   8.820  0.00  0.00    +0.009 C 
ATOM     26  C   UNL     1       3.112   0.751   7.678  0.00  0.00    +0.068 C 
ATOM     27  C   UNL     1       3.925   2.024   7.444  0.00  0.00    +0.009 C 
ATOM     28  C   UNL     1       3.940   2.885   8.705  0.00  0.00    -0.072 C 
ATOM     29  N   UNL     1       4.292   2.138   9.894  0.00  0.00    +0.386 N 
ATOM     30  C   UNL     1       2.582   3.578   8.868  0.00  0.00    -0.010 C 
ATOM     31  C   UNL     1       4.997   3.993   8.500  0.00  0.00    -0.010 C 
ATOM     32  C   UNL     1       4.683   0.080  11.115  0.00  0.00    -0.010 C 
ATOM     33  H   UNL     1       3.966   2.788  10.720  0.00  0.00    -0.084 HD
ATOM     34  H   UNL     1       5.391   2.103   9.867  0.00  0.00    -0.084 HD
ENDBRANCH  21  26
ENDBRANCH   1  21
TORSDOF 5
