REMARK  Name = ZINC40445613
REMARK  4 active torsions:
REMARK  status: ('A' for Active; 'I' for Inactive)
REMARK    1  A    between atoms: C_1  and  C_2
REMARK    2  A    between atoms: C_4  and  C_18
REMARK    3  A    between atoms: C_6  and  C_8
REMARK    4  A    between atoms: C_8  and  N_9
REMARK                            x       y       z     vdW  Elec       q    Type
REMARK                         _______ _______ _______ _____ _____    ______ ____
ROOT
ATOM      1  C   UNL     1       0.054  -2.844   2.489  0.00  0.00    +0.178 C 
ENDROOT
BRANCH   1   2
ATOM      2  N   UNL     1       1.440  -3.073   2.903  0.00  0.00    -0.264 N 
ATOM      3  C   UNL     1       1.980  -2.730   4.092  0.00  0.00    +0.126 A 
ATOM      4  C   UNL     1       3.279  -3.113   4.081  0.00  0.00    +0.086 A 
ATOM      5  C   UNL     1       3.540  -3.710   2.842  0.00  0.00    +0.249 A 
ATOM      6  N   UNL     1       2.438  -3.691   2.138  0.00  0.00    -0.145 NA
ATOM      7  N   UNL     1       4.839  -4.271   2.407  0.00  0.00    +0.078 N 
ATOM      8  O   UNL     1       5.792  -4.236   3.149  0.00  0.00    -0.125 OA
ATOM      9  O   UNL     1       4.946  -4.764   1.308  0.00  0.00    -0.125 OA
ATOM     10 BR   UNL     1       4.520  -2.882   5.489  0.00  0.00    -0.045 Br
ENDBRANCH   1   2
BRANCH   1  16
ATOM     11  C   UNL     1      -0.018   1.503   0.010  0.00  0.00    +0.044 C 
ATOM     12  C   UNL     1       0.002  -0.004   0.002  0.00  0.00    -0.050 A 
ATOM     13  C   UNL     1       0.006  -0.689  -1.199  0.00  0.00    +0.006 A 
ATOM     14  C   UNL     1       0.025  -2.071  -1.206  0.00  0.00    -0.050 A 
ATOM     15  C   UNL     1       0.040  -2.768  -0.013  0.00  0.00    +0.008 A 
ATOM     16  C   UNL     1       0.037  -2.084   1.188  0.00  0.00    -0.026 A 
ATOM     17  C   UNL     1       0.023  -0.702   1.195  0.00  0.00    +0.008 A 
ATOM     18  C   UNL     1       0.027  -2.817  -2.516  0.00  0.00    +0.044 C 
ENDBRANCH   1  16
TORSDOF 2
