REMARK  Name = ZINC39449345
REMARK  4 active torsions:
REMARK  status: ('A' for Active; 'I' for Inactive)
REMARK    1  A    between atoms: C_1  and  S_2
REMARK    2  A    between atoms: S_2  and  N_3
REMARK    3  A    between atoms: C_16  and  C_21
REMARK    4  A    between atoms: C_26  and  O_27
REMARK                            x       y       z     vdW  Elec       q    Type
REMARK                         _______ _______ _______ _____ _____    ______ ____
ROOT
ATOM      1  N   UNL     1      -1.147  -0.320   0.308  0.00  0.00    -0.245 N 
ATOM      2  C   UNL     1      -1.934  -0.527   1.434  0.00  0.00    +0.122 A 
ATOM      3  C   UNL     1      -3.260  -0.897   1.315  0.00  0.00    +0.082 A 
ATOM      4  C   UNL     1      -3.849  -1.084  -0.018  0.00  0.00    +0.099 A 
ATOM      5  C   UNL     1      -3.027  -0.869  -1.145  0.00  0.00    +0.069 A 
ATOM      6  C   UNL     1      -1.629  -0.467  -0.940  0.00  0.00    +0.271 A 
ATOM      7  O   UNL     1      -0.905  -0.271  -1.898  0.00  0.00    -0.266 OA
ATOM      8  C   UNL     1      -3.564  -1.040  -2.422  0.00  0.00    +0.031 A 
ATOM      9  C   UNL     1      -4.892  -1.417  -2.523  0.00  0.00    +0.032 A 
ATOM     10  C   UNL     1      -5.640  -1.611  -1.369  0.00  0.00    +0.125 A 
ATOM     11  N   UNL     1      -5.116  -1.444  -0.174  0.00  0.00    -0.252 NA
ATOM     12  I   UNL     1      -5.769  -1.694  -4.406  0.00  0.00    -0.042 I 
ATOM     13  N   UNL     1      -4.028  -1.082   2.449  0.00  0.00    -0.333 N 
ATOM     14  C   UNL     1      -3.654  -0.353   3.671  0.00  0.00    +0.112 C 
ATOM     15  C   UNL     1      -2.174  -0.626   3.959  0.00  0.00    +0.108 C 
ATOM     16  C   UNL     1      -1.365  -0.352   2.717  0.00  0.00    +0.184 C 
ATOM     17  O   UNL     1      -0.214   0.022   2.819  0.00  0.00    -0.290 OA
ATOM     18  H   UNL     1      -4.793  -1.679   2.440  0.00  0.00    +0.147 HD
ENDROOT
BRANCH  14  19
ATOM     19  C   UNL     1      -3.870   1.124   3.467  0.00  0.00    +0.014 A 
ATOM     20  C   UNL     1      -3.998   1.634   2.190  0.00  0.00    +0.009 A 
ATOM     21  C   UNL     1      -4.196   2.990   2.002  0.00  0.00    +0.001 A 
ATOM     22  C   UNL     1      -4.265   3.838   3.092  0.00  0.00    +0.004 A 
ATOM     23  C   UNL     1      -4.138   3.333   4.371  0.00  0.00    +0.046 A 
ATOM     24  C   UNL     1      -3.945   1.972   4.563  0.00  0.00    +0.122 A 
BRANCH  24  25
ATOM     25  O   UNL     1      -3.825   1.472   5.820  0.00  0.00    -0.506 OA
ATOM     26  H   UNL     1      -2.916   1.450   6.150  0.00  0.00    +0.292 HD
ENDBRANCH  24  25
ENDBRANCH  14  19
BRANCH   1  28
ATOM     27  C   UNL     1       0.374   1.941   0.547  0.00  0.00    +0.110 C 
ATOM     28  S   UNL     1       0.434   0.129   0.508  0.00  0.00    -0.044 S 
ENDBRANCH   1  28
TORSDOF 3
