REMARK  Name = ZINC16043254
REMARK  10 active torsions:
REMARK  status: ('A' for Active; 'I' for Inactive)
REMARK    1  A    between atoms: C_1  and  O_2
REMARK    2  A    between atoms: O_2  and  C_3
REMARK    3  A    between atoms: C_6  and  C_9
REMARK    4  A    between atoms: C_9  and  C_10
REMARK    5  A    between atoms: C_10  and  N_11
REMARK    6  A    between atoms: C_31  and  C_33
REMARK    7  A    between atoms: C_37  and  O_41
REMARK    8  A    between atoms: C_38  and  O_39
REMARK    9  A    between atoms: O_39  and  C_40
REMARK   10  A    between atoms: O_41  and  C_42
REMARK                            x       y       z     vdW  Elec       q    Type
REMARK                         _______ _______ _______ _____ _____    ______ ____
ROOT
ATOM      1  N   UNL     1       2.943  -4.669  -1.513  0.00  0.00    -0.291 N 
ATOM      2  C   UNL     1       3.679  -3.766  -2.383  0.00  0.00    +0.203 C 
ATOM      3  C   UNL     1       3.898  -2.431  -1.749  0.00  0.00    +0.234 C 
ATOM      4  O   UNL     1       4.477  -1.585  -2.398  0.00  0.00    -0.274 OA
ATOM      5  N   UNL     1       3.499  -2.105  -0.518  0.00  0.00    -0.276 N 
ATOM      6  C   UNL     1       2.859  -3.054   0.392  0.00  0.00    +0.167 C 
ATOM      7  C   UNL     1       2.568  -4.361  -0.273  0.00  0.00    +0.237 C 
ATOM      8  O   UNL     1       1.951  -5.193   0.357  0.00  0.00    -0.274 OA
ATOM      9  C   UNL     1       3.775  -3.286   1.603  0.00  0.00    +0.069 C 
ATOM     10  C   UNL     1       4.290  -1.954   2.086  0.00  0.00    -0.015 A 
ATOM     11  C   UNL     1       4.891  -1.635   3.365  0.00  0.00    +0.003 A 
ATOM     12  C   UNL     1       5.169  -2.404   4.499  0.00  0.00    +0.010 A 
ATOM     13  C   UNL     1       5.761  -1.758   5.557  0.00  0.00    +0.001 A 
ATOM     14  C   UNL     1       6.072  -0.408   5.514  0.00  0.00    +0.002 A 
ATOM     15  C   UNL     1       5.806   0.376   4.405  0.00  0.00    +0.026 A 
ATOM     16  C   UNL     1       5.205  -0.252   3.317  0.00  0.00    +0.047 A 
ATOM     17  N   UNL     1       4.814   0.210   2.093  0.00  0.00    -0.356 N 
ATOM     18  H   UNL     1       4.909   1.125   1.786  0.00  0.00    +0.166 HD
ATOM     19  C   UNL     1       4.267  -0.812   1.365  0.00  0.00    +0.046 A 
ATOM     20  C   UNL     1       3.709  -0.723  -0.038  0.00  0.00    +0.158 C 
ENDROOT
BRANCH  20  21
ATOM     21  C   UNL     1       2.398   0.020  -0.021  0.00  0.00    +0.024 A 
ATOM     22  C   UNL     1       1.360  -0.428   0.775  0.00  0.00    +0.010 A 
ATOM     23  C   UNL     1       0.156   0.250   0.792  0.00  0.00    +0.004 A 
ATOM     24  C   UNL     1      -0.016   1.380   0.014  0.00  0.00    +0.049 A 
ATOM     25  C   UNL     1       1.020   1.835  -0.785  0.00  0.00    +0.162 A 
ATOM     26  C   UNL     1       2.233   1.151  -0.803  0.00  0.00    +0.167 A 
BRANCH  26  27
ATOM     27  O   UNL     1       3.253   1.594  -1.586  0.00  0.00    -0.491 OA
ATOM     28  C   UNL     1       3.318   1.081  -2.918  0.00  0.00    +0.277 C 
ENDBRANCH  26  27
BRANCH  25  29
ATOM     29  O   UNL     1       0.854   2.946  -1.551  0.00  0.00    -0.491 OA
ATOM     30  C   UNL     1      -0.417   3.596  -1.482  0.00  0.00    +0.277 C 
ENDBRANCH  25  29
ENDBRANCH  20  21
BRANCH   1  31
ATOM     31  C   UNL     1       2.594  -5.994  -2.030  0.00  0.00    +0.113 C 
BRANCH  31  32
ATOM     32  C   UNL     1       1.228  -5.930  -2.717  0.00  0.00    +0.054 C 
BRANCH  32  36
ATOM     33  C   UNL     1       0.209  -9.795  -4.227  0.00  0.00    +0.120 A 
ATOM     34  C   UNL     1      -0.161  -9.432  -2.940  0.00  0.00    +0.046 A 
ATOM     35  C   UNL     1       0.169  -8.182  -2.454  0.00  0.00    +0.007 A 
ATOM     36  C   UNL     1       0.869  -7.293  -3.249  0.00  0.00    -0.046 A 
ATOM     37  C   UNL     1       1.234  -7.650  -4.534  0.00  0.00    +0.007 A 
ATOM     38  C   UNL     1       0.911  -8.902  -5.022  0.00  0.00    +0.046 A 
BRANCH  33  40
ATOM     39  C   UNL     1       0.299 -11.331  -6.040  0.00  0.00    +0.277 C 
ATOM     40  O   UNL     1      -0.115 -11.025  -4.707  0.00  0.00    -0.495 OA
ENDBRANCH  33  40
ENDBRANCH  32  36
ENDBRANCH  31  32
ENDBRANCH   1  31
TORSDOF 7
