REMARK  Name = ZINC12659005
REMARK  6 active torsions:
REMARK  status: ('A' for Active; 'I' for Inactive)
REMARK    1  A    between atoms: C_1  and  C_2
REMARK    2  A    between atoms: N_6  and  N_7
REMARK    3  A    between atoms: C_8  and  C_10
REMARK    4  A    between atoms: C_27  and  C_43
REMARK    5  A    between atoms: N_33  and  N_34
REMARK    6  A    between atoms: C_35  and  C_37
REMARK                            x       y       z     vdW  Elec       q    Type
REMARK                         _______ _______ _______ _____ _____    ______ ____
ROOT
ATOM      1  C   UNL     1       4.382   1.269  -2.088  0.00  0.00    +0.012 C 
ATOM      2  C   UNL     1       3.410   2.222  -1.389  0.00  0.00    -0.025 C 
ATOM      3  C   UNL     1       3.413   3.559  -2.130  0.00  0.00    +0.013 C 
ATOM      4  C   UNL     1       4.872   4.024  -2.270  0.00  0.00    +0.053 C 
ATOM      5  C   UNL     1       5.515   4.048  -0.902  0.00  0.00    +0.037 C 
ATOM      6  N   UNL     1       6.157   5.080  -0.504  0.00  0.00    -0.189 NA
ATOM      7  C   UNL     1       5.387   2.829  -0.009  0.00  0.00    +0.056 C 
ATOM      8  C   UNL     1       3.907   2.444   0.041  0.00  0.00    +0.001 C 
ATOM      9  C   UNL     1       3.689   1.164   0.840  0.00  0.00    +0.005 C 
ATOM     10  C   UNL     1       2.189   0.987   1.070  0.00  0.00    +0.004 C 
ATOM     11  C   UNL     1       1.377   1.713  -0.004  0.00  0.00    -0.003 C 
ATOM     12  C   UNL     1       2.023   1.589  -1.375  0.00  0.00    -0.001 C 
ATOM     13  C   UNL     1       1.159   2.321  -2.412  0.00  0.00    +0.005 C 
ATOM     14  C   UNL     1      -0.213   1.652  -2.473  0.00  0.00    +0.013 C 
ATOM     15  C   UNL     1      -0.893   1.703  -1.137  0.00  0.00    +0.011 C 
ATOM     16  C   UNL     1      -0.039   1.127   0.004  0.00  0.00    +0.004 C 
ATOM     17  C   UNL     1      -0.750   1.713   1.262  0.00  0.00    +0.010 C 
ATOM     18  C   UNL     1      -1.157   3.138   0.803  0.00  0.00    +0.053 C 
ATOM     19  C   UNL     1      -1.220   3.115  -0.714  0.00  0.00    +0.043 C 
ATOM     20  N   UNL     1      -1.497   4.100  -1.484  0.00  0.00    -0.188 NA
ATOM     21  C   UNL     1      -2.204   0.918  -1.220  0.00  0.00    +0.018 C 
ENDROOT
BRANCH   6  22
ATOM     22  N   UNL     1       6.663   5.130   0.802  0.00  0.00    -0.203 N 
ATOM     23  C   UNL     1       7.245   6.258   1.256  0.00  0.00    +0.263 C 
ATOM     24  O   UNL     1       7.332   7.231   0.533  0.00  0.00    -0.268 OA
ATOM     25  H   UNL     1       6.593   4.354   1.379  0.00  0.00    +0.178 HD
BRANCH  23  26
ATOM     26  C   UNL     1       7.779   6.311   2.637  0.00  0.00    +0.041 A 
ATOM     27  C   UNL     1       7.684   5.205   3.487  0.00  0.00    +0.033 A 
ATOM     28  C   UNL     1       8.200   5.296   4.765  0.00  0.00    +0.111 A 
ATOM     29  N   UNL     1       8.766   6.409   5.189  0.00  0.00    -0.263 NA
ATOM     30  C   UNL     1       8.871   7.476   4.422  0.00  0.00    +0.111 A 
ATOM     31  C   UNL     1       8.387   7.470   3.128  0.00  0.00    +0.033 A 
ENDBRANCH  23  26
ENDBRANCH   6  22
BRANCH  20  32
ATOM     32  N   UNL     1      -1.781   5.358  -0.936  0.00  0.00    -0.203 N 
ATOM     33  C   UNL     1      -2.072   6.395  -1.747  0.00  0.00    +0.263 C 
ATOM     34  O   UNL     1      -2.089   6.239  -2.952  0.00  0.00    -0.268 OA
ATOM     35  H   UNL     1      -1.768   5.483   0.025  0.00  0.00    +0.178 HD
BRANCH  33  36
ATOM     36  C   UNL     1      -2.372   7.725  -1.169  0.00  0.00    +0.041 A 
ATOM     37  C   UNL     1      -2.364   7.926   0.215  0.00  0.00    +0.033 A 
ATOM     38  C   UNL     1      -2.646   9.184   0.712  0.00  0.00    +0.111 A 
ATOM     39  N   UNL     1      -2.928  10.184  -0.100  0.00  0.00    -0.263 NA
ATOM     40  C   UNL     1      -2.951  10.037  -1.409  0.00  0.00    +0.111 A 
ATOM     41  C   UNL     1      -2.677   8.814  -1.991  0.00  0.00    +0.033 A 
ENDBRANCH  33  36
ENDBRANCH  20  32
TORSDOF 4
