REMARK  Name = ZINC16932495
REMARK  7 active torsions:
REMARK  status: ('A' for Active; 'I' for Inactive)
REMARK    1  A    between atoms: C_1  and  C_2
REMARK    2  A    between atoms: C_5  and  N_9
REMARK    3  A    between atoms: C_6  and  O_8
REMARK    4  A    between atoms: N_11  and  C_24
REMARK    5  A    between atoms: C_15  and  C_16
REMARK    6  A    between atoms: C_21  and  O_22
REMARK    7  A    between atoms: C_24  and  C_25
REMARK                            x       y       z     vdW  Elec       q    Type
REMARK                         _______ _______ _______ _____ _____    ______ ____
ROOT
ATOM      1  N   UNL     1       3.674   2.127  -0.562  0.00  0.00    -0.222 NA
ATOM      2  C   UNL     1       4.792   1.474  -0.345  0.00  0.00    +0.169 C 
ATOM      3  N   UNL     1       6.064   1.981  -0.180  0.00  0.00    -0.242 N 
ATOM      4  C   UNL     1       7.088   1.174   0.038  0.00  0.00    +0.259 C 
ATOM      5  O   UNL     1       8.216   1.605   0.191  0.00  0.00    -0.269 OA
ATOM      6  C   UNL     1       6.803  -0.273   0.080  0.00  0.00    +0.078 C 
ATOM      7  C   UNL     1       7.654  -1.312   0.277  0.00  0.00    +0.032 C 
ATOM      8  S   UNL     1       5.038  -0.289  -0.200  0.00  0.00    -0.049 S 
ENDROOT
BRANCH   1  13
ATOM      9  C   UNL     1      -1.239  -0.658  -0.702  0.00  0.00    +0.044 C 
ATOM     10  C   UNL     1       0.070   0.086  -0.666  0.00  0.00    -0.047 A 
ATOM     11  C   UNL     1       0.948  -0.115   0.384  0.00  0.00    +0.005 A 
ATOM     12  C   UNL     1       2.151   0.561   0.425  0.00  0.00    +0.032 A 
ATOM     13  C   UNL     1       2.482   1.452  -0.597  0.00  0.00    +0.108 A 
ATOM     14  C   UNL     1       1.591   1.653  -1.658  0.00  0.00    +0.142 A 
ATOM     15  C   UNL     1       0.389   0.967  -1.685  0.00  0.00    +0.051 A 
BRANCH  14  16
ATOM     16  O   UNL     1       1.905   2.518  -2.659  0.00  0.00    -0.505 OA
ATOM     17  H   UNL     1       1.611   3.426  -2.501  0.00  0.00    +0.292 HD
ENDBRANCH  14  16
ENDBRANCH   1  13
BRANCH   7  18
ATOM     18  C   UNL     1       7.176  -2.692   0.120  0.00  0.00    +0.018 A 
ATOM     19  C   UNL     1       5.995  -2.952  -0.586  0.00  0.00    +0.011 A 
ATOM     20  C   UNL     1       5.556  -4.249  -0.733  0.00  0.00    +0.001 A 
ATOM     21  C   UNL     1       6.272  -5.298  -0.177  0.00  0.00    +0.004 A 
ATOM     22  C   UNL     1       7.436  -5.055   0.527  0.00  0.00    +0.046 A 
ATOM     23  C   UNL     1       7.897  -3.758   0.682  0.00  0.00    +0.124 A 
BRANCH  23  24
ATOM     24  O   UNL     1       9.040  -3.518   1.374  0.00  0.00    -0.506 OA
ATOM     25  H   UNL     1       8.903  -3.373   2.320  0.00  0.00    +0.292 HD
ENDBRANCH  23  24
ENDBRANCH   7  18
BRANCH   3  26
ATOM     26  C   UNL     1       6.280   3.429  -0.241  0.00  0.00    +0.142 C 
BRANCH  26  27
ATOM     27  C   UNL     1       6.136   4.017   1.139  0.00  0.00    -0.015 C 
ATOM     28  C   UNL     1       7.105   4.735   1.650  0.00  0.00    +0.005 C 
ENDBRANCH  26  27
ENDBRANCH   3  26
TORSDOF 6
