REMARK  Name = ZINC65107913
REMARK  2 active torsions:
REMARK  status: ('A' for Active; 'I' for Inactive)
REMARK    1  A    between atoms: C_4  and  C_7
REMARK    2  A    between atoms: C_9  and  C_13
REMARK                            x       y       z     vdW  Elec       q    Type
REMARK                         _______ _______ _______ _____ _____    ______ ____
ROOT
ATOM      1  C   UNL     1       3.699  -0.792  -0.332  0.00  0.00    +0.107 A 
ATOM      2  C   UNL     1       3.960  -2.134   0.008  0.00  0.00    +0.075 A 
ATOM      3  C   UNL     1       5.307  -2.176   0.316  0.00  0.00    +0.135 A 
ATOM      4  N   UNL     1       5.781  -0.903   0.153  0.00  0.00    -0.271 N 
ATOM      5  H   UNL     1       6.700  -0.628   0.298  0.00  0.00    +0.189 HD
ATOM      6  N   UNL     1       4.830  -0.128  -0.226  0.00  0.00    -0.172 NA
ATOM      7 BR   UNL     1       2.730  -3.570   0.038  0.00  0.00    -0.046 Br
ENDROOT
BRANCH   3   8
ATOM      8  C   UNL     1       6.078  -3.356   0.736  0.00  0.00    +0.266 C 
ATOM      9  O   UNL     1       5.582  -4.170   1.492  0.00  0.00    -0.268 OA
ATOM     10  N   UNL     1       7.335  -3.537   0.283  0.00  0.00    -0.289 N 
ATOM     11  C   UNL     1       8.001  -2.523  -0.554  0.00  0.00    +0.136 C 
ATOM     12  C   UNL     1       8.583  -3.209  -1.794  0.00  0.00    +0.179 C 
ATOM     13  O   UNL     1       9.370  -4.338  -1.400  0.00  0.00    -0.373 OA
ATOM     14  C   UNL     1       8.625  -5.339  -0.710  0.00  0.00    +0.139 C 
ATOM     15  C   UNL     1       8.098  -4.748   0.608  0.00  0.00    +0.105 C 
ATOM     16  C   UNL     1       7.211  -5.782   1.298  0.00  0.00    +0.025 C 
ATOM     17  C   UNL     1       8.052  -7.023   1.616  0.00  0.00    +0.002 C 
ATOM     18  C   UNL     1       8.630  -7.607   0.326  0.00  0.00    +0.003 C 
ATOM     19  C   UNL     1       9.488  -6.558  -0.395  0.00  0.00    +0.033 C 
ENDBRANCH   3   8
BRANCH   1  23
ATOM     20  C   UNL     1      -0.058   0.817  -1.506  0.00  0.00    +0.000 A 
ATOM     21  C   UNL     1       0.817   1.584  -0.758  0.00  0.00    +0.001 A 
ATOM     22  C   UNL     1       2.037   1.067  -0.374  0.00  0.00    +0.010 A 
ATOM     23  C   UNL     1       2.387  -0.231  -0.741  0.00  0.00    +0.003 A 
ATOM     24  C   UNL     1       1.502  -0.999  -1.494  0.00  0.00    +0.010 A 
ATOM     25  C   UNL     1       0.284  -0.471  -1.873  0.00  0.00    +0.001 A 
ENDBRANCH   1  23
TORSDOF 2
