REMARK  Name = ZINC03572784
REMARK  7 active torsions:
REMARK  status: ('A' for Active; 'I' for Inactive)
REMARK    1  A    between atoms: C_1  and  C_2
REMARK    2  A    between atoms: C_5  and  C_8
REMARK    3  A    between atoms: C_9  and  C_22
REMARK    4  A    between atoms: C_12  and  S_14
REMARK    5  A    between atoms: S_14  and  C_15
REMARK    6  A    between atoms: C_15  and  C_16
REMARK    7  A    between atoms: C_25  and  C_28
REMARK                            x       y       z     vdW  Elec       q    Type
REMARK                         _______ _______ _______ _____ _____    ______ ____
ROOT
ATOM      1  C   UNL     1       2.291  -4.461  -0.044  0.00  0.00    +0.102 A 
ATOM      2  C   UNL     1       0.965  -4.938  -0.034  0.00  0.00    +0.119 A 
ATOM      3  N   UNL     1      -0.034  -4.061  -0.019  0.00  0.00    -0.145 NA
ATOM      4  N   UNL     1       0.208  -2.797  -0.009  0.00  0.00    -0.122 NA
ATOM      5  C   UNL     1       1.450  -2.326  -0.024  0.00  0.00    +0.210 A 
ATOM      6  N   UNL     1       2.493  -3.146  -0.039  0.00  0.00    -0.218 NA
ENDROOT
BRANCH   1  11
ATOM      7  C   UNL     1       6.734  -8.122  -0.103  0.00  0.00    +0.044 C 
ATOM      8  C   UNL     1       5.571  -7.164  -0.087  0.00  0.00    -0.050 A 
ATOM      9  C   UNL     1       5.658  -5.964  -0.770  0.00  0.00    +0.004 A 
ATOM     10  C   UNL     1       4.596  -5.083  -0.760  0.00  0.00    +0.010 A 
ATOM     11  C   UNL     1       3.434  -5.404  -0.059  0.00  0.00    +0.003 A 
ATOM     12  C   UNL     1       3.355  -6.612   0.632  0.00  0.00    +0.010 A 
ATOM     13  C   UNL     1       4.421  -7.488   0.610  0.00  0.00    +0.004 A 
ENDBRANCH   1  11
BRANCH   2  14
ATOM     14  C   UNL     1       0.688  -6.394  -0.039  0.00  0.00    +0.004 A 
ATOM     15  C   UNL     1       1.518  -7.261  -0.749  0.00  0.00    +0.010 A 
ATOM     16  C   UNL     1       1.258  -8.616  -0.747  0.00  0.00    +0.004 A 
ATOM     17  C   UNL     1       0.170  -9.114  -0.051  0.00  0.00    -0.050 A 
ATOM     18  C   UNL     1      -0.659  -8.257   0.651  0.00  0.00    +0.004 A 
ATOM     19  C   UNL     1      -0.406  -6.901   0.660  0.00  0.00    +0.010 A 
ATOM     20  C   UNL     1      -0.112 -10.594  -0.057  0.00  0.00    +0.044 C 
ENDBRANCH   2  14
BRANCH   5  21
ATOM     21  S   UNL     1       1.716  -0.584  -0.018  0.00  0.00    -0.075 S 
BRANCH  21  22
ATOM     22  C   UNL     1       0.002  -0.004   0.002  0.00  0.00    +0.173 C 
BRANCH  22  23
ATOM     23  C   UNL     1      -0.018   1.503   0.010  0.00  0.00    +0.231 C 
ATOM     24  O   UNL     1       1.023   2.123   0.004  0.00  0.00    -0.274 OA
ATOM     25  N   UNL     1      -1.195   2.161   0.019  0.00  0.00    -0.240 N 
ATOM     26  C   UNL     1      -1.213   3.508   0.027  0.00  0.00    +0.303 C 
ATOM     27  O   UNL     1      -0.169   4.130   0.025  0.00  0.00    -0.253 OA
ATOM     28  N   UNL     1      -2.389   4.166   0.036  0.00  0.00    -0.313 N 
ATOM     29  H   UNL     1      -2.028   1.664   0.021  0.00  0.00    +0.159 HD
ATOM     30  H   UNL     1      -3.223   3.670   0.037  0.00  0.00    +0.146 HD
ATOM     31  H   UNL     1      -2.402   5.136   0.041  0.00  0.00    +0.146 HD
ENDBRANCH  22  23
ENDBRANCH  21  22
ENDBRANCH   5  21
TORSDOF 5
