REMARK  Name = ZINC59888532
REMARK  8 active torsions:
REMARK  status: ('A' for Active; 'I' for Inactive)
REMARK    1  A    between atoms: C_1  and  N_2
REMARK    2  A    between atoms: N_2  and  C_3
REMARK    3  A    between atoms: N_2  and  C_24
REMARK    4  A    between atoms: C_3  and  C_4
REMARK    5  A    between atoms: C_9  and  C_10
REMARK    6  A    between atoms: C_10  and  N_11
REMARK    7  A    between atoms: C_12  and  C_14
REMARK    8  A    between atoms: C_19  and  N_20
REMARK                            x       y       z     vdW  Elec       q    Type
REMARK                         _______ _______ _______ _____ _____    ______ ____
ROOT
ATOM      1  C   UNL     1      -0.112  -0.380   0.554  0.00  0.00    -0.059 A 
ATOM      2  C   UNL     1       0.351   0.883   0.874  0.00  0.00    +0.002 A 
ATOM      3  C   UNL     1      -0.212   1.579   1.927  0.00  0.00    +0.000 A 
ATOM      4  C   UNL     1      -1.238   1.012   2.660  0.00  0.00    +0.000 A 
ATOM      5  C   UNL     1      -1.702  -0.250   2.339  0.00  0.00    +0.005 A 
ATOM      6  C   UNL     1      -1.141  -0.945   1.283  0.00  0.00    -0.029 A 
ENDROOT
BRANCH   1   7
ATOM      7  C   UNL     1       0.502  -1.139  -0.594  0.00  0.00    -0.043 C 
BRANCH   7   9
ATOM      8  C   UNL     1      -0.390   0.389  -2.214  0.00  0.00    -0.095 C 
ATOM      9  N   UNL     1      -0.357  -1.014  -1.779  0.00  0.00    +0.382 N 
ATOM     10  H   UNL     1      -1.292  -1.318  -1.550  0.00  0.00    -0.081 HD
BRANCH   9  11
ATOM     11  C   UNL     1       0.178  -1.850  -2.862  0.00  0.00    -0.069 C 
ATOM     12  C   UNL     1      -0.717  -1.720  -4.096  0.00  0.00    -0.015 C 
ATOM     13  C   UNL     1      -0.160  -2.591  -5.224  0.00  0.00    -0.002 C 
ATOM     14  C   UNL     1      -0.126  -4.052  -4.771  0.00  0.00    -0.000 C 
ATOM     15  C   UNL     1       0.769  -4.182  -3.537  0.00  0.00    -0.002 C 
ATOM     16  C   UNL     1       0.212  -3.311  -2.409  0.00  0.00    -0.015 C 
ENDBRANCH   9  11
ENDBRANCH   7   9
ENDBRANCH   1   7
BRANCH   6  17
ATOM     17  C   UNL     1      -1.650  -2.319   0.931  0.00  0.00    +0.140 C 
BRANCH  17  18
ATOM     18  N   UNL     1      -0.749  -3.331   1.488  0.00  0.00    -0.307 N 
ATOM     19  C   UNL     1      -1.006  -4.640   1.298  0.00  0.00    +0.247 C 
ATOM     20  O   UNL     1      -1.986  -4.981   0.664  0.00  0.00    -0.270 OA
ATOM     21  H   UNL     1       0.032  -3.058   1.994  0.00  0.00    +0.149 HD
BRANCH  19  22
ATOM     22  C   UNL     1      -0.098  -5.661   1.860  0.00  0.00    +0.067 A 
ATOM     23  C   UNL     1       1.266  -5.625   1.563  0.00  0.00    +0.017 A 
ATOM     24  C   UNL     1       2.109  -6.580   2.090  0.00  0.00    +0.021 A 
ATOM     25  C   UNL     1       1.605  -7.574   2.914  0.00  0.00    +0.043 A 
ATOM     26  C   UNL     1       0.253  -7.615   3.212  0.00  0.00    +0.053 A 
ATOM     27  C   UNL     1      -0.599  -6.661   2.695  0.00  0.00    +0.140 A 
ATOM     28 CL   UNL     1       2.672  -8.773   3.574  0.00  0.00    -0.083 Cl
BRANCH  27  29
ATOM     29  N   UNL     1      -2.042  -6.702   3.020  0.00  0.00    +0.057 N 
ATOM     30  O   UNL     1      -2.496  -7.635   3.640  0.00  0.00    -0.126 OA
ATOM     31  O   UNL     1      -2.767  -5.802   2.666  0.00  0.00    -0.126 OA
ENDBRANCH  27  29
ENDBRANCH  19  22
ENDBRANCH  17  18
ENDBRANCH   6  17
TORSDOF 7
