REMARK  Name = ZINC04070761
REMARK  13 active torsions:
REMARK  status: ('A' for Active; 'I' for Inactive)
REMARK    1  A    between atoms: C_1  and  C_2
REMARK    2  A    between atoms: C_6  and  C_29
REMARK    3  A    between atoms: C_8  and  O_11
REMARK    4  A    between atoms: O_11  and  P_12
REMARK    5  A    between atoms: P_12  and  N_14
REMARK    6  A    between atoms: P_12  and  O_15
REMARK    7  A    between atoms: O_15  and  C_16
REMARK    8  A    between atoms: C_19  and  C_28
REMARK    9  A    between atoms: C_23  and  C_25
REMARK   10  A    between atoms: C_25  and  C_26
REMARK   11  A    between atoms: C_25  and  C_27
REMARK   12  A    between atoms: C_29  and  C_30
REMARK   13  A    between atoms: C_29  and  C_31
REMARK                            x       y       z     vdW  Elec       q    Type
REMARK                         _______ _______ _______ _____ _____    ______ ____
ROOT
ATOM      1  P   UNL     1       0.997   2.296   3.600  0.00  0.00    +0.406 P 
ATOM      2  O   UNL     1       0.755   1.726   4.944  0.00  0.00    -0.240 OA
ENDROOT
BRANCH   1   3
ATOM      3  N   UNL     1       2.606   2.281   3.282  0.00  0.00    -0.236 NA
ATOM      4  H   UNL     1       2.936   2.623   2.436  0.00  0.00    +0.130 HD
ATOM      5  H   UNL     1       3.227   1.932   3.940  0.00  0.00    +0.130 HD
ENDBRANCH   1   3
BRANCH   1   6
ATOM      6  O   UNL     1       0.224   1.414   2.497  0.00  0.00    -0.293 OA
BRANCH   6  12
ATOM      7  C   UNL     1      -0.019   1.526   0.010  0.00  0.00    +0.007 C 
ATOM      8  C   UNL     1       0.002  -0.004   0.002  0.00  0.00    -0.012 C 
ATOM      9  C   UNL     1      -1.427  -0.534   0.139  0.00  0.00    +0.004 C 
ATOM     10  C   UNL     1      -2.031  -0.040   1.454  0.00  0.00    +0.006 C 
ATOM     11  C   UNL     1      -1.185  -0.545   2.625  0.00  0.00    +0.021 C 
ATOM     12  C   UNL     1       0.244  -0.015   2.489  0.00  0.00    +0.133 C 
ATOM     13  C   UNL     1       0.848  -0.509   1.173  0.00  0.00    +0.035 C 
BRANCH  11  14
ATOM     14  C   UNL     1      -1.789  -0.050   3.941  0.00  0.00    -0.012 C 
ATOM     15  C   UNL     1      -3.218  -0.580   4.078  0.00  0.00    +0.007 C 
ATOM     16  C   UNL     1      -0.944  -0.555   5.112  0.00  0.00    +0.007 C 
ENDBRANCH  11  14
ENDBRANCH   6  12
ENDBRANCH   1   6
BRANCH   1  17
ATOM     17  O   UNL     1       0.454   3.811   3.553  0.00  0.00    -0.293 OA
BRANCH  17  18
ATOM     18  C   UNL     1       0.788   4.788   4.541  0.00  0.00    +0.133 C 
ATOM     19  C   UNL     1      -0.491   5.288   5.216  0.00  0.00    +0.035 C 
ATOM     20  C   UNL     1      -1.409   5.918   4.165  0.00  0.00    -0.012 C 
ATOM     21  C   UNL     1      -0.690   7.093   3.499  0.00  0.00    +0.004 C 
ATOM     22  C   UNL     1       0.589   6.592   2.824  0.00  0.00    +0.006 C 
ATOM     23  C   UNL     1       1.506   5.963   3.875  0.00  0.00    +0.021 C 
ATOM     24  C   UNL     1      -2.688   6.418   4.840  0.00  0.00    +0.007 C 
BRANCH  23  25
ATOM     25  C   UNL     1       2.785   5.462   3.200  0.00  0.00    -0.012 C 
ATOM     26  C   UNL     1       3.504   6.637   2.534  0.00  0.00    +0.007 C 
ATOM     27  C   UNL     1       3.703   4.833   4.251  0.00  0.00    +0.007 C 
ENDBRANCH  23  25
ENDBRANCH  17  18
ENDBRANCH   1  17
TORSDOF 7
