REMARK  Name = ZINC13034031
REMARK  11 active torsions:
REMARK  status: ('A' for Active; 'I' for Inactive)
REMARK    1  A    between atoms: C_1  and  C_2
REMARK    2  A    between atoms: C_2  and  C_3
REMARK    3  A    between atoms: C_10  and  C_15
REMARK    4  A    between atoms: C_15  and  N_66
REMARK    5  A    between atoms: C_16  and  C_17
REMARK    6  A    between atoms: C_16  and  N_66
REMARK    7  A    between atoms: C_22  and  C_24
REMARK    8  A    between atoms: C_22  and  C_26
REMARK    9  A    between atoms: C_22  and  N_66
REMARK   10  A    between atoms: C_24  and  C_25
REMARK   11  A    between atoms: N_30  and  C_31
REMARK                            x       y       z     vdW  Elec       q    Type
REMARK                         _______ _______ _______ _____ _____    ______ ____
ROOT
ATOM      1  N   UNL     1      -1.136   1.628  -1.000  0.00  0.00    +0.392 N 
ATOM      2  H   UNL     1      -1.827   1.212  -0.365  0.00  0.00    -0.080 HD
ENDROOT
BRANCH   1   3
ATOM      3  C   UNL     1      -1.292   1.023  -2.340  0.00  0.00    -0.036 C 
BRANCH   3  11
ATOM      4  C   UNL     1      -4.472  -4.257  -1.796  0.00  0.00    -0.047 A 
ATOM      5  C   UNL     1      -3.368  -5.091  -1.680  0.00  0.00    +0.005 A 
ATOM      6  C   UNL     1      -2.090  -4.577  -1.717  0.00  0.00    +0.026 A 
ATOM      7  C   UNL     1      -1.901  -3.208  -1.870  0.00  0.00    +0.049 A 
ATOM      8  C   UNL     1      -3.022  -2.364  -1.987  0.00  0.00    -0.001 A 
ATOM      9  C   UNL     1      -4.310  -2.909  -1.947  0.00  0.00    +0.013 A 
ATOM     10  C   UNL     1      -2.813  -0.924  -2.142  0.00  0.00    +0.017 A 
ATOM     11  C   UNL     1      -1.542  -0.454  -2.177  0.00  0.00    +0.001 A 
ATOM     12  C   UNL     1      -0.452  -1.342  -2.056  0.00  0.00    +0.251 A 
ATOM     13  O   UNL     1       0.683  -0.898  -2.086  0.00  0.00    -0.268 OA
ATOM     14  N   UNL     1      -0.634  -2.666  -1.908  0.00  0.00    -0.322 N 
ATOM     15  H   UNL     1       0.137  -3.249  -1.828  0.00  0.00    +0.169 HD
BRANCH   4  17
ATOM     16  C   UNL     1      -6.303  -5.205  -3.172  0.00  0.00    +0.009 C 
ATOM     17  C   UNL     1      -5.859  -4.843  -1.754  0.00  0.00    +0.032 C 
ENDBRANCH   4  17
ENDBRANCH   3  11
ENDBRANCH   1   3
BRANCH   1  18
ATOM     18  C   UNL     1       0.220   1.357  -0.478  0.00  0.00    -0.034 C 
BRANCH  18  19
ATOM     19  C   UNL     1       0.241   1.664   0.997  0.00  0.00    -0.027 A 
ATOM     20  C   UNL     1      -0.005   0.840   2.044  0.00  0.00    +0.009 A 
ATOM     21  C   UNL     1       0.074   1.346   3.328  0.00  0.00    +0.008 A 
ATOM     22  C   UNL     1       0.395   2.651   3.502  0.00  0.00    +0.045 A 
ATOM     23  S   UNL     1       0.605   3.207   1.819  0.00  0.00    -0.103 S 
ENDBRANCH  18  19
ENDBRANCH   1  18
BRANCH   1  24
ATOM     24  C   UNL     1      -1.367   3.086  -1.074  0.00  0.00    +0.003 C 
BRANCH  24  25
ATOM     25  C   UNL     1      -0.513   3.702  -2.151  0.00  0.00    +0.138 A 
ATOM     26  N   UNL     1      -0.365   3.266  -3.379  0.00  0.00    -0.115 NA
ATOM     27  N   UNL     1       0.441   4.063  -3.990  0.00  0.00    -0.023 NA
ATOM     28  N   UNL     1       0.818   4.992  -3.183  0.00  0.00    -0.044 NA
ATOM     29  N   UNL     1       0.252   4.804  -2.039  0.00  0.00    -0.228 N 
BRANCH  29  30
ATOM     30  C   UNL     1       0.410   5.635  -0.842  0.00  0.00    +0.111 C 
ATOM     31  C   UNL     1       0.001   7.090  -1.151  0.00  0.00    +0.027 C 
ATOM     32  C   UNL     1       1.008   7.946  -0.342  0.00  0.00    +0.002 C 
ATOM     33  C   UNL     1       2.329   7.150  -0.486  0.00  0.00    +0.002 C 
ATOM     34  C   UNL     1       1.889   5.673  -0.419  0.00  0.00    +0.027 C 
ENDBRANCH  29  30
ENDBRANCH  24  25
BRANCH  24  35
ATOM     35  C   UNL     1      -2.844   3.336  -1.388  0.00  0.00    -0.011 C 
ATOM     36  C   UNL     1      -3.704   2.830  -0.229  0.00  0.00    +0.002 C 
ENDBRANCH  24  35
ENDBRANCH   1  24
TORSDOF 9
