REMARK  Name = ZINC21263055
REMARK  14 active torsions:
REMARK  status: ('A' for Active; 'I' for Inactive)
REMARK    1  A    between atoms: C_1  and  C_2
REMARK    2  A    between atoms: C_2  and  C_3
REMARK    3  A    between atoms: C_2  and  C_4
REMARK    4  A    between atoms: C_7  and  C_10
REMARK    5  A    between atoms: C_10  and  N_11
REMARK    6  A    between atoms: N_11  and  C_12
REMARK    7  A    between atoms: N_11  and  C_19
REMARK    8  A    between atoms: C_12  and  C_13
REMARK    9  A    between atoms: C_19  and  N_21
REMARK   10  A    between atoms: N_21  and  C_22
REMARK   11  A    between atoms: C_24  and  C_30
REMARK   12  A    between atoms: C_24  and  C_31
REMARK   13  A    between atoms: C_26  and  C_28
REMARK   14  A    between atoms: C_26  and  C_29
REMARK                            x       y       z     vdW  Elec       q    Type
REMARK                         _______ _______ _______ _____ _____    ______ ____
ROOT
ATOM      1  N   UNL     1      -0.569   2.498   3.499  0.00  0.00    -0.306 N 
ENDROOT
BRANCH   1   2
ATOM      2  C   UNL     1      -0.880   1.655   4.504  0.00  0.00    +0.133 C 
ATOM      3  S   UNL     1      -1.764   2.224   5.856  0.00  0.00    -0.019 S 
BRANCH   2   4
ATOM      4  N   UNL     1      -0.496   0.364   4.444  0.00  0.00    -0.324 N 
ATOM      5  H   UNL     1       0.071  -0.001   3.576  0.00  0.00    +0.148 HD
BRANCH   4   6
ATOM      6  C   UNL     1      -0.836  -0.554   5.538  0.00  0.00    +0.069 C 
ATOM      7  C   UNL     1       0.239  -0.466   6.621  0.00  0.00    +0.009 C 
ATOM      8  C   UNL     1      -0.078  -1.427   7.764  0.00  0.00    -0.072 C 
ATOM      9  N   UNL     1      -0.386  -2.766   7.307  0.00  0.00    +0.386 N 
ATOM     10  C   UNL     1      -1.198  -2.966   6.125  0.00  0.00    -0.072 C 
ATOM     11  C   UNL     1      -0.870  -1.985   5.003  0.00  0.00    +0.009 C 
ATOM     12  C   UNL     1      -2.692  -2.880   6.460  0.00  0.00    -0.010 C 
ATOM     13  C   UNL     1      -0.931  -4.391   5.591  0.00  0.00    -0.010 C 
ATOM     14  C   UNL     1      -1.221  -0.855   8.612  0.00  0.00    -0.010 C 
ATOM     15  C   UNL     1       1.171  -1.501   8.670  0.00  0.00    -0.010 C 
ATOM     16  H   UNL     1       0.549  -3.299   7.076  0.00  0.00    -0.084 HD
ATOM     17  H   UNL     1      -0.931  -3.307   8.095  0.00  0.00    -0.084 HD
ENDBRANCH   4   6
ENDBRANCH   2   4
ENDBRANCH   1   2
BRANCH   1  18
ATOM     18  C   UNL     1      -0.986   3.901   3.564  0.00  0.00    +0.142 C 
BRANCH  18  22
ATOM     19  C   UNL     1       2.198   6.262   5.155  0.00  0.00    -0.045 A 
ATOM     20  C   UNL     1       2.166   5.965   3.806  0.00  0.00    +0.004 A 
ATOM     21  C   UNL     1       1.135   5.201   3.291  0.00  0.00    +0.005 A 
ATOM     22  C   UNL     1       0.138   4.733   4.126  0.00  0.00    -0.030 A 
ATOM     23  C   UNL     1       0.167   5.035   5.474  0.00  0.00    +0.005 A 
ATOM     24  C   UNL     1       1.200   5.795   5.990  0.00  0.00    +0.004 A 
BRANCH  19  26
ATOM     25  C   UNL     1       2.748   8.363   6.352  0.00  0.00    +0.012 C 
ATOM     26  C   UNL     1       3.322   7.095   5.717  0.00  0.00    +0.013 C 
ATOM     27  C   UNL     1       4.074   6.288   6.778  0.00  0.00    +0.012 C 
ENDBRANCH  19  26
ENDBRANCH  18  22
ENDBRANCH   1  18
BRANCH   1  28
ATOM     28  C   UNL     1       0.187   2.011   2.343  0.00  0.00    +0.138 C 
BRANCH  28  29
ATOM     29  C   UNL     1      -0.774   1.379   1.334  0.00  0.00    +0.136 C 
ATOM     30  C   UNL     1       0.013   0.746   0.165  0.00  0.00    +0.035 C 
ATOM     31  C   UNL     1      -0.861   1.031  -1.077  0.00  0.00    +0.031 C 
ATOM     32  C   UNL     1      -2.075   1.802  -0.513  0.00  0.00    +0.160 C 
ATOM     33  O   UNL     1      -1.599   2.393   0.715  0.00  0.00    -0.375 OA
ENDBRANCH  28  29
ENDBRANCH   1  28
TORSDOF 8
