REMARK  Name = ZINC40318334
REMARK  11 active torsions:
REMARK  status: ('A' for Active; 'I' for Inactive)
REMARK    1  A    between atoms: C_3  and  C_8
REMARK    2  A    between atoms: C_11  and  C_13
REMARK    3  A    between atoms: C_13  and  N_14
REMARK    4  A    between atoms: N_14  and  C_15
REMARK    5  A    between atoms: N_14  and  C_29
REMARK    6  A    between atoms: C_15  and  C_16
REMARK    7  A    between atoms: C_16  and  C_18
REMARK    8  A    between atoms: C_16  and  O_28
REMARK    9  A    between atoms: C_18  and  O_19
REMARK   10  A    between atoms: O_19  and  C_20
REMARK   11  A    between atoms: C_23  and  C_26
REMARK                            x       y       z     vdW  Elec       q    Type
REMARK                         _______ _______ _______ _____ _____    ______ ____
ROOT
ATOM      1  N   UNL     1       5.628   5.677  -1.627  0.00  0.00    +0.389 N 
ATOM      2  H   UNL     1       6.074   4.966  -2.188  0.00  0.00    -0.081 HD
ENDROOT
BRANCH   1   3
ATOM      3  C   UNL     1       4.276   5.931  -2.141  0.00  0.00    -0.045 C 
ATOM      4  C   UNL     1       3.643   7.106  -1.379  0.00  0.00    +0.009 C 
ATOM      5  C   UNL     1       2.126   7.176  -1.682  0.00  0.00    +0.164 C 
ATOM      6  S   UNL     1       1.707   5.424  -2.050  0.00  0.00    -0.033 S 
ATOM      7  O   UNL     1       1.262   5.328  -3.396  0.00  0.00    -0.174 OA
ATOM      8  O   UNL     1       0.890   4.914  -1.006  0.00  0.00    -0.174 OA
ATOM      9  C   UNL     1       3.385   4.675  -1.919  0.00  0.00    +0.151 C 
ENDBRANCH   1   3
BRANCH   1  10
ATOM     10  C   UNL     1       5.544   5.219  -0.233  0.00  0.00    -0.003 C 
BRANCH  10  14
ATOM     11  C   UNL     1       5.173   1.588  -0.082  0.00  0.00    +0.135 A 
ATOM     12  C   UNL     1       6.529   1.669  -0.158  0.00  0.00    +0.050 A 
ATOM     13  C   UNL     1       6.850   3.040  -0.225  0.00  0.00    +0.043 A 
ATOM     14  C   UNL     1       5.687   3.720  -0.187  0.00  0.00    +0.089 A 
ATOM     15  O   UNL     1       4.676   2.839  -0.106  0.00  0.00    -0.462 OA
BRANCH  11  18
ATOM     16  C   UNL     1       2.268  -0.766   0.265  0.00  0.00    +0.002 A 
ATOM     17  C   UNL     1       3.000   0.401   0.185  0.00  0.00    +0.011 A 
ATOM     18  C   UNL     1       4.383   0.342   0.004  0.00  0.00    +0.019 A 
ATOM     19  C   UNL     1       5.016  -0.898  -0.095  0.00  0.00    +0.031 A 
ATOM     20  C   UNL     1       4.272  -2.058  -0.013  0.00  0.00    +0.042 A 
ATOM     21  C   UNL     1       2.900  -1.992   0.167  0.00  0.00    +0.020 A 
ATOM     22 CL   UNL     1       5.056  -3.602  -0.136  0.00  0.00    -0.084 Cl
ENDBRANCH  11  18
ENDBRANCH  10  14
ENDBRANCH   1  10
BRANCH   1  23
ATOM     23  C   UNL     1       6.416   6.915  -1.689  0.00  0.00    -0.043 C 
BRANCH  23  24
ATOM     24  C   UNL     1       6.688   7.274  -3.151  0.00  0.00    +0.135 C 
BRANCH  24  25
ATOM     25  O   UNL     1       5.451   7.544  -3.813  0.00  0.00    -0.390 OA
ATOM     26  H   UNL     1       4.997   8.335  -3.491  0.00  0.00    +0.210 HD
ENDBRANCH  24  25
BRANCH  24  27
ATOM     27  C   UNL     1       7.582   8.514  -3.215  0.00  0.00    +0.258 C 
BRANCH  27  28
ATOM     28  O   UNL     1       7.931   8.780  -4.574  0.00  0.00    -0.489 OA
BRANCH  28  29
ATOM     29  C   UNL     1       8.726   9.854  -4.807  0.00  0.00    +0.121 A 
ATOM     30  C   UNL     1       9.167  10.634  -3.743  0.00  0.00    +0.046 A 
ATOM     31  C   UNL     1       9.971  11.720  -3.972  0.00  0.00    +0.014 A 
ATOM     32  C   UNL     1      10.349  12.044  -5.281  0.00  0.00    +0.014 A 
ATOM     33  C   UNL     1       9.903  11.256  -6.349  0.00  0.00    +0.014 A 
ATOM     34  C   UNL     1       9.103  10.169  -6.108  0.00  0.00    +0.046 A 
BRANCH  32  35
ATOM     35  C   UNL     1      11.210  13.207  -5.533  0.00  0.00    +0.258 C 
ATOM     36  O   UNL     1      11.536  13.486  -6.668  0.00  0.00    -0.296 OA
ENDBRANCH  32  35
ENDBRANCH  28  29
ENDBRANCH  27  28
ENDBRANCH  24  27
ENDBRANCH  23  24
ENDBRANCH   1  23
TORSDOF 11
