REMARK  Name = ZINC66684875
REMARK  9 active torsions:
REMARK  status: ('A' for Active; 'I' for Inactive)
REMARK    1  A    between atoms: C_1  and  C_2
REMARK    2  A    between atoms: C_5  and  N_14
REMARK    3  A    between atoms: C_7  and  C_8
REMARK    4  A    between atoms: N_10  and  C_11
REMARK    5  A    between atoms: C_11  and  C_12
REMARK    6  A    between atoms: C_11  and  C_13
REMARK    7  A    between atoms: N_17  and  C_18
REMARK    8  A    between atoms: C_18  and  C_20
REMARK    9  A    between atoms: C_18  and  C_21
REMARK                            x       y       z     vdW  Elec       q    Type
REMARK                         _______ _______ _______ _____ _____    ______ ____
ROOT
ATOM      1  N   UNL     1       0.086  -4.353  -0.296  0.00  0.00    -0.269 N 
ATOM      2  C   UNL     1      -0.499  -5.193   0.580  0.00  0.00    +0.304 C 
ATOM      3  O   UNL     1      -1.015  -4.754   1.591  0.00  0.00    -0.252 OA
ATOM      4  N   UNL     1      -0.513  -6.518   0.337  0.00  0.00    -0.293 N 
ATOM      5  H   UNL     1       0.560  -4.707  -1.065  0.00  0.00    +0.156 HD
ATOM      6  H   UNL     1      -0.102  -6.868  -0.469  0.00  0.00    +0.151 HD
ENDROOT
BRANCH   1  11
ATOM      7  C   UNL     1      -0.227   1.268   0.480  0.00  0.00    +0.044 C 
ATOM      8  C   UNL     1      -0.144  -0.223   0.278  0.00  0.00    -0.038 A 
ATOM      9  C   UNL     1      -0.169  -0.748  -0.998  0.00  0.00    +0.006 A 
ATOM     10  C   UNL     1      -0.092  -2.115  -1.189  0.00  0.00    +0.023 A 
ATOM     11  C   UNL     1       0.010  -2.969  -0.098  0.00  0.00    +0.035 A 
ATOM     12  C   UNL     1       0.036  -2.451   1.188  0.00  0.00    +0.036 A 
ATOM     13  C   UNL     1      -0.035  -1.071   1.380  0.00  0.00    +0.041 A 
BRANCH  13  14
ATOM     14  C   UNL     1      -0.002  -0.511   2.748  0.00  0.00    +0.245 C 
ATOM     15  O   UNL     1      -0.133   0.686   2.917  0.00  0.00    -0.270 OA
ATOM     16  N   UNL     1       0.174  -1.326   3.807  0.00  0.00    -0.309 N 
ATOM     17  H   UNL     1       0.278  -2.281   3.671  0.00  0.00    +0.149 HD
BRANCH  16  18
ATOM     18  C   UNL     1       0.207  -0.770   5.162  0.00  0.00    +0.067 C 
ATOM     19  C   UNL     1      -1.222  -0.632   5.691  0.00  0.00    +0.027 C 
ATOM     20  C   UNL     1       1.002  -1.704   6.077  0.00  0.00    +0.027 C 
ENDBRANCH  16  18
ENDBRANCH  13  14
ENDBRANCH   1  11
BRANCH   4  21
ATOM     21  C   UNL     1      -1.150  -7.431   1.290  0.00  0.00    +0.102 C 
ATOM     22  C   UNL     1      -2.649  -7.510   0.997  0.00  0.00    +0.033 C 
BRANCH  21  23
ATOM     23  C   UNL     1      -0.539  -8.802   1.157  0.00  0.00    -0.024 A 
ATOM     24  C   UNL     1      -0.228  -9.300  -0.095  0.00  0.00    +0.009 A 
ATOM     25  C   UNL     1       0.333 -10.557  -0.222  0.00  0.00    +0.050 A 
ATOM     26  C   UNL     1       0.584 -11.322   0.905  0.00  0.00    +0.166 A 
ATOM     27  C   UNL     1       0.271 -10.820   2.166  0.00  0.00    +0.167 A 
ATOM     28  C   UNL     1      -0.285  -9.557   2.287  0.00  0.00    +0.055 A 
ATOM     29  O   UNL     1       0.611 -11.753   3.103  0.00  0.00    -0.453 OA
ATOM     30  C   UNL     1       0.755 -12.990   2.380  0.00  0.00    +0.466 C 
ATOM     31  O   UNL     1       1.120 -12.569   1.052  0.00  0.00    -0.453 OA
ENDBRANCH  21  23
ENDBRANCH   4  21
TORSDOF 5
