REMARK  Name = ZINC27976704
REMARK  2 active torsions:
REMARK  status: ('A' for Active; 'I' for Inactive)
REMARK    1  A    between atoms: C_7  and  C_17
REMARK    2  A    between atoms: C_9  and  C_11
REMARK                            x       y       z     vdW  Elec       q    Type
REMARK                         _______ _______ _______ _____ _____    ______ ____
ROOT
ATOM      1  C   UNL     1       3.857  -0.702   0.278  0.00  0.00    +0.001 A 
ATOM      2  C   UNL     1       5.024   0.059   0.265  0.00  0.00    +0.002 A 
ATOM      3  C   UNL     1       4.977   1.416   0.169  0.00  0.00    +0.028 A 
ATOM      4  C   UNL     1       3.732   2.066   0.080  0.00  0.00    +0.072 A 
ATOM      5  C   UNL     1       2.548   1.286   0.094  0.00  0.00    +0.013 A 
ATOM      6  C   UNL     1       2.634  -0.106   0.194  0.00  0.00    +0.011 A 
ATOM      7  C   UNL     1       1.256   1.968   0.001  0.00  0.00    +0.048 A 
ATOM      8  C   UNL     1       1.270   3.350  -0.101  0.00  0.00    +0.042 A 
ATOM      9  C   UNL     1       2.502   4.030  -0.099  0.00  0.00    +0.079 A 
ATOM     10  N   UNL     1       3.655   3.394  -0.015  0.00  0.00    -0.246 NA
ENDROOT
BRANCH   7  11
ATOM     11  C   UNL     1      -0.014   1.211   0.009  0.00  0.00    +0.250 C 
ATOM     12  O   UNL     1       0.002  -0.004  -0.005  0.00  0.00    -0.270 OA
ATOM     13  N   UNL     1      -1.191   1.869   0.026  0.00  0.00    -0.264 N 
ATOM     14  C   UNL     1      -2.388   1.156   0.028  0.00  0.00    +0.168 A 
ATOM     15  C   UNL     1      -2.540  -0.256   0.007  0.00  0.00    +0.088 A 
ATOM     16  C   UNL     1      -3.880  -0.441   0.022  0.00  0.00    +0.232 A 
ATOM     17  O   UNL     1      -4.434   0.780   0.040  0.00  0.00    -0.361 OA
ATOM     18  N   UNL     1      -3.598   1.652   0.043  0.00  0.00    -0.063 NA
ATOM     19  H   UNL     1      -1.206   2.969   0.039  0.00  0.00    +0.157 HD
ENDBRANCH   7  11
BRANCH   9  20
ATOM     20  C   UNL     1       2.504   5.501  -0.202  0.00  0.00    +0.039 A 
ATOM     21  C   UNL     1       3.569   6.364  -0.218  0.00  0.00    +0.019 A 
ATOM     22  C   UNL     1       3.326   7.713  -0.327  0.00  0.00    +0.028 A 
ATOM     23  C   UNL     1       2.039   8.150  -0.402  0.00  0.00    +0.079 A 
ATOM     24  S   UNL     1       1.120   6.622  -0.327  0.00  0.00    -0.075 S 
ATOM     25 CL   UNL     1       1.445   9.776  -0.534  0.00  0.00    -0.076 Cl
ENDBRANCH   9  20
TORSDOF 2
