REMARK  Name = ZINC20058222
REMARK  6 active torsions:
REMARK  status: ('A' for Active; 'I' for Inactive)
REMARK    1  A    between atoms: C_1  and  C_2
REMARK    2  A    between atoms: C_2  and  O_3
REMARK    3  A    between atoms: O_3  and  C_4
REMARK    4  A    between atoms: C_4  and  C_6
REMARK    5  A    between atoms: C_18  and  C_23
REMARK    6  A    between atoms: C_19  and  C_22
REMARK                            x       y       z     vdW  Elec       q    Type
REMARK                         _______ _______ _______ _____ _____    ______ ____
ROOT
ATOM      1  C   UNL     1      -0.686   1.412  -1.806  0.00  0.00    +0.184 C 
ATOM      2  C   UNL     1       0.157   1.162  -0.573  0.00  0.00    +0.035 C 
ATOM      3  C   UNL     1       1.682   1.207  -0.724  0.00  0.00    +0.033 C 
ATOM      4  C   UNL     1       2.125   0.229   0.368  0.00  0.00    -0.030 C 
ATOM      5  C   UNL     1       1.160  -0.653   0.604  0.00  0.00    -0.023 C 
ATOM      6  C   UNL     1       0.029  -0.372  -0.314  0.00  0.00    +0.049 C 
ATOM      7  C   UNL     1      -1.381  -0.625   0.056  0.00  0.00    -0.019 A 
ATOM      8  C   UNL     1      -1.726  -1.616   0.953  0.00  0.00    +0.007 A 
ATOM      9  C   UNL     1      -3.047  -1.847   1.273  0.00  0.00    +0.016 A 
ATOM     10  C   UNL     1      -4.045  -1.069   0.680  0.00  0.00    +0.068 A 
ATOM     11  C   UNL     1      -3.699  -0.066  -0.219  0.00  0.00    -0.015 A 
ATOM     12  C   UNL     1      -2.363   0.175  -0.537  0.00  0.00    +0.035 A 
ATOM     13  N   UNL     1      -2.092   1.223  -1.416  0.00  0.00    -0.331 N 
ATOM     14  C   UNL     1      -4.779   0.771  -0.855  0.00  0.00    +0.046 C 
ATOM     15  H   UNL     1      -2.869   1.892  -1.815  0.00  0.00    +0.147 HD
ENDROOT
BRANCH  10  16
ATOM     16  C   UNL     1      -5.465  -1.311   1.009  0.00  0.00    +0.387 C 
ATOM     17  O   UNL     1      -6.322  -0.563   0.584  0.00  0.00    -0.241 OA
ATOM     18  O   UNL     1      -5.808  -2.361   1.779  0.00  0.00    -0.241 OA
ENDBRANCH  10  16
BRANCH   1  19
ATOM     19  C   UNL     1      -0.474   2.822  -2.296  0.00  0.00    +0.328 C 
ATOM     20  O   UNL     1      -1.282   3.681  -2.032  0.00  0.00    -0.249 OA
BRANCH  19  21
ATOM     21  O   UNL     1       0.612   3.124  -3.024  0.00  0.00    -0.464 OA
BRANCH  21  23
ATOM     22  C   UNL     1       2.039   4.652  -4.273  0.00  0.00    +0.048 C 
ATOM     23  C   UNL     1       0.750   4.501  -3.462  0.00  0.00    +0.229 C 
ENDBRANCH  21  23
ENDBRANCH  19  21
ENDBRANCH   1  19
TORSDOF 4
