REMARK  Name = ZINC09516974
REMARK  6 active torsions:
REMARK  status: ('A' for Active; 'I' for Inactive)
REMARK    1  A    between atoms: N_9  and  C_10
REMARK    2  A    between atoms: C_13  and  C_16
REMARK    3  A    between atoms: C_17  and  C_18
REMARK    4  A    between atoms: C_17  and  C_31
REMARK    5  A    between atoms: C_21  and  S_23
REMARK    6  A    between atoms: S_23  and  N_26
REMARK                            x       y       z     vdW  Elec       q    Type
REMARK                         _______ _______ _______ _____ _____    ______ ____
ROOT
ATOM      1  C   UNL     1      -0.023  -0.044  -0.242  0.00  0.00    +0.024 C 
ATOM      2  C   UNL     1      -1.165  -0.703   0.112  0.00  0.00    +0.077 C 
ENDROOT
BRANCH   1   6
ATOM      3  C   UNL     1      -0.256   3.820  -1.968  0.00  0.00    +0.048 A 
ATOM      4  C   UNL     1       0.639   3.577  -0.931  0.00  0.00    +0.027 A 
ATOM      5  C   UNL     1       0.719   2.324  -0.367  0.00  0.00    +0.010 A 
ATOM      6  C   UNL     1      -0.104   1.292  -0.840  0.00  0.00    -0.024 A 
ATOM      7  C   UNL     1      -0.999   1.541  -1.889  0.00  0.00    +0.010 A 
ATOM      8  C   UNL     1      -1.074   2.799  -2.442  0.00  0.00    +0.027 A 
BRANCH   3  17
ATOM      9  C   UNL     1      -0.263   6.640  -6.359  0.00  0.00    +0.002 A 
ATOM     10  C   UNL     1      -0.153   5.260  -6.271  0.00  0.00    +0.002 A 
ATOM     11  C   UNL     1      -0.164   4.636  -5.041  0.00  0.00    +0.028 A 
ATOM     12  C   UNL     1      -0.282   5.395  -3.886  0.00  0.00    +0.073 A 
ATOM     13  C   UNL     1      -0.400   6.792  -3.976  0.00  0.00    +0.089 A 
ATOM     14  C   UNL     1      -0.386   7.403  -5.233  0.00  0.00    +0.030 A 
ATOM     15  N   UNL     1      -0.505   7.264  -2.707  0.00  0.00    -0.235 NA
ATOM     16  C   UNL     1      -0.466   6.273  -1.865  0.00  0.00    +0.205 A 
ATOM     17  N   UNL     1      -0.333   5.094  -2.537  0.00  0.00    -0.299 N 
ENDBRANCH   3  17
ENDBRANCH   1   6
BRANCH   2  18
ATOM     18  C   UNL     1      -1.109  -2.130   0.479  0.00  0.00    +0.028 A 
ATOM     19  C   UNL     1      -1.374  -2.723   1.687  0.00  0.00    +0.018 A 
ATOM     20  C   UNL     1      -1.254  -4.091   1.793  0.00  0.00    +0.037 A 
ATOM     21  C   UNL     1      -0.878  -4.809   0.703  0.00  0.00    +0.143 A 
ATOM     22  S   UNL     1      -0.686  -3.537  -0.535  0.00  0.00    -0.068 S 
BRANCH  21  23
ATOM     23  S   UNL     1      -0.646  -6.548   0.549  0.00  0.00    +0.067 S 
ATOM     24  O   UNL     1       0.247  -6.744  -0.539  0.00  0.00    -0.152 OA
ATOM     25  O   UNL     1      -0.375  -7.039   1.854  0.00  0.00    -0.152 OA
BRANCH  23  26
ATOM     26  N   UNL     1      -2.099  -7.197   0.091  0.00  0.00    -0.176 NA
ATOM     27  C   UNL     1      -3.147  -7.681   1.003  0.00  0.00    +0.109 C 
ATOM     28  C   UNL     1      -4.301  -8.217   0.131  0.00  0.00    +0.018 C 
ATOM     29  C   UNL     1      -3.599  -8.533  -1.216  0.00  0.00    +0.018 C 
ATOM     30  C   UNL     1      -2.554  -7.392  -1.297  0.00  0.00    +0.109 C 
ENDBRANCH  23  26
ENDBRANCH  21  23
ENDBRANCH   2  18
BRANCH   2  31
ATOM     31  C   UNL     1      -2.450   0.011   0.129  0.00  0.00    +0.388 C 
ATOM     32  O   UNL     1      -2.480   1.213  -0.047  0.00  0.00    -0.241 OA
ATOM     33  O   UNL     1      -3.596  -0.668   0.339  0.00  0.00    -0.241 OA
ENDBRANCH   2  31
TORSDOF 6
