REMARK  Name = ZINC47872019
REMARK  5 active torsions:
REMARK  status: ('A' for Active; 'I' for Inactive)
REMARK    1  A    between atoms: C_5  and  C_6
REMARK    2  A    between atoms: N_8  and  N_9
REMARK    3  A    between atoms: N_9  and  C_10
REMARK    4  A    between atoms: C_10  and  N_12
REMARK    5  A    between atoms: N_12  and  C_13
REMARK                            x       y       z     vdW  Elec       q    Type
REMARK                         _______ _______ _______ _____ _____    ______ ____
ROOT
ATOM      1  N   UNL     1      -2.136  -3.058   0.007  0.00  0.00    -0.246 N 
ATOM      2  H   UNL     1      -3.027  -2.675   0.018  0.00  0.00    +0.172 HD
ENDROOT
BRANCH   1   5
ATOM      3  C   UNL     1      -1.172  -0.881   0.009  0.00  0.00    +0.295 C 
ATOM      4  O   UNL     1      -2.290  -0.401   0.023  0.00  0.00    -0.265 OA
ATOM      5  N   UNL     1      -1.014  -2.220   0.000  0.00  0.00    -0.229 N 
ATOM      6  H   UNL     1      -0.122  -2.602  -0.011  0.00  0.00    +0.173 HD
BRANCH   3  11
ATOM      7  C   UNL     1      -0.016   1.362   0.009  0.00  0.00    +0.056 A 
ATOM      8  C   UNL     1       1.321   1.784  -0.001  0.00  0.00    +0.058 A 
ATOM      9  C   UNL     1       2.090   0.670  -0.014  0.00  0.00    +0.171 A 
ATOM     10  O   UNL     1       1.291  -0.405  -0.012  0.00  0.00    -0.444 OA
ATOM     11  C   UNL     1       0.002  -0.004   0.002  0.00  0.00    +0.192 A 
ATOM     12 BR   UNL     1       3.981   0.637  -0.033  0.00  0.00    -0.008 Br
ENDBRANCH   3  11
ENDBRANCH   1   5
BRANCH   1  13
ATOM     13  C   UNL     1      -1.977  -4.396  -0.002  0.00  0.00    +0.147 C 
ATOM     14  S   UNL     1      -3.349  -5.421   0.006  0.00  0.00    -0.017 S 
BRANCH  13  15
ATOM     15  N   UNL     1      -0.739  -4.928  -0.017  0.00  0.00    -0.323 N 
ATOM     16  H   UNL     1       0.038  -4.348  -0.022  0.00  0.00    +0.148 HD
BRANCH  15  17
ATOM     17  C   UNL     1      -0.567  -6.383  -0.027  0.00  0.00    +0.072 C 
ATOM     18  C   UNL     1      -0.544  -6.922   1.419  0.00  0.00    +0.022 C 
ATOM     19  C   UNL     1       0.504  -8.062   1.383  0.00  0.00    +0.002 C 
ATOM     20  C   UNL     1       1.590  -7.497   0.433  0.00  0.00    +0.002 C 
ATOM     21  C   UNL     1       0.790  -6.749  -0.653  0.00  0.00    +0.022 C 
ENDBRANCH  15  17
ENDBRANCH  13  15
ENDBRANCH   1  13
TORSDOF 5
