REMARK  Name = ZINC46581310
REMARK  7 active torsions:
REMARK  status: ('A' for Active; 'I' for Inactive)
REMARK    1  A    between atoms: C_1  and  C_2
REMARK    2  A    between atoms: C_3  and  C_32
REMARK    3  A    between atoms: C_7  and  N_31
REMARK    4  A    between atoms: C_9  and  S_11
REMARK    5  A    between atoms: S_11  and  C_12
REMARK    6  A    between atoms: C_12  and  C_13
REMARK    7  A    between atoms: C_19  and  C_21
REMARK                            x       y       z     vdW  Elec       q    Type
REMARK                         _______ _______ _______ _____ _____    ______ ____
ROOT
ATOM      1  C   UNL     1       3.132  -3.096   6.624  0.00  0.00    +0.226 C 
ATOM      2  O   UNL     1       3.217  -4.303   6.538  0.00  0.00    -0.275 OA
ATOM      3  N   UNL     1       3.710  -2.451   7.657  0.00  0.00    -0.294 N 
ATOM      4  C   UNL     1       3.679  -0.995   7.886  0.00  0.00    +0.108 C 
ATOM      5  C   UNL     1       4.926  -0.705   8.759  0.00  0.00    +0.021 C 
ATOM      6  C   UNL     1       4.962  -1.956   9.676  0.00  0.00    +0.029 C 
ATOM      7  C   UNL     1       4.469  -3.084   8.745  0.00  0.00    +0.106 C 
ENDROOT
BRANCH   7   8
ATOM      8  C   UNL     1       3.579  -4.030   9.509  0.00  0.00    -0.023 A 
ATOM      9  C   UNL     1       2.259  -3.695   9.747  0.00  0.00    +0.009 A 
ATOM     10  C   UNL     1       1.439  -4.559  10.448  0.00  0.00    +0.050 A 
ATOM     11  C   UNL     1       1.939  -5.766  10.914  0.00  0.00    +0.162 A 
ATOM     12  C   UNL     1       3.265  -6.104  10.673  0.00  0.00    +0.162 A 
ATOM     13  C   UNL     1       4.081  -5.234   9.965  0.00  0.00    +0.055 A 
ATOM     14  O   UNL     1       3.774  -7.287  11.115  0.00  0.00    -0.485 OA
ATOM     15  C   UNL     1       3.032  -7.966  12.133  0.00  0.00    +0.270 C 
ATOM     16  C   UNL     1       1.551  -7.965  11.731  0.00  0.00    +0.270 C 
ATOM     17  O   UNL     1       1.121  -6.605  11.607  0.00  0.00    -0.485 OA
ENDBRANCH   7   8
BRANCH   1  18
ATOM     18  C   UNL     1       2.381  -2.318   5.575  0.00  0.00    +0.173 C 
BRANCH  18  19
ATOM     19  S   UNL     1       1.725  -3.460   4.328  0.00  0.00    -0.077 S 
BRANCH  19  28
ATOM     20  C   UNL     1      -1.287   1.427   0.444  0.00  0.00    +0.045 C 
ATOM     21  C   UNL     1      -1.146  -0.073   0.394  0.00  0.00    -0.028 A 
ATOM     22  C   UNL     1      -1.693  -0.773  -0.610  0.00  0.00    -0.008 A 
ATOM     23  S   UNL     1      -1.260  -2.459  -0.227  0.00  0.00    -0.073 S 
ATOM     24  C   UNL     1      -0.356  -2.179   1.272  0.00  0.00    +0.115 A 
ATOM     25  C   UNL     1      -0.410  -0.777   1.431  0.00  0.00    +0.050 A 
ATOM     26  C   UNL     1       0.255  -0.264   2.579  0.00  0.00    +0.129 A 
ATOM     27  N   UNL     1       0.869  -1.101   3.400  0.00  0.00    -0.207 NA
ATOM     28  C   UNL     1       0.886  -2.411   3.188  0.00  0.00    +0.191 A 
ATOM     29  N   UNL     1       0.274  -2.947   2.139  0.00  0.00    -0.214 NA
ATOM     30  C   UNL     1      -2.486  -0.257  -1.783  0.00  0.00    +0.052 C 
BRANCH  26  31
ATOM     31  N   UNL     1       0.261   1.095   2.835  0.00  0.00    -0.343 N 
ATOM     32  H   UNL     1       0.109   1.725   2.113  0.00  0.00    +0.144 HD
ATOM     33  H   UNL     1       0.416   1.418   3.736  0.00  0.00    +0.144 HD
ENDBRANCH  26  31
ENDBRANCH  19  28
ENDBRANCH  18  19
ENDBRANCH   1  18
TORSDOF 5
