REMARK  Name = ZINC09568783
REMARK  5 active torsions:
REMARK  status: ('A' for Active; 'I' for Inactive)
REMARK    1  A    between atoms: C_4  and  C_7
REMARK    2  A    between atoms: C_7  and  C_8
REMARK    3  A    between atoms: C_7  and  N_14
REMARK    4  A    between atoms: N_17  and  C_18
REMARK    5  A    between atoms: N_23  and  C_25
REMARK                            x       y       z     vdW  Elec       q    Type
REMARK                         _______ _______ _______ _____ _____    ______ ____
ROOT
ATOM      1  N   UNL     1       0.074   4.466  -3.365  0.00  0.00    -0.289 N 
ATOM      2  C   UNL     1      -0.424   3.286  -2.947  0.00  0.00    +0.301 C 
ATOM      3  O   UNL     1      -1.025   2.570  -3.724  0.00  0.00    -0.253 OA
ATOM      4  N   UNL     1      -0.256   2.899  -1.667  0.00  0.00    -0.295 N 
ATOM      5  H   UNL     1       0.554   5.037  -2.745  0.00  0.00    +0.151 HD
ATOM      6  H   UNL     1       0.223   3.471  -1.046  0.00  0.00    +0.151 HD
ENDROOT
BRANCH   4   7
ATOM      7  C   UNL     1      -0.798   1.617  -1.212  0.00  0.00    +0.101 C 
ATOM      8  C   UNL     1      -2.216   1.792  -0.622  0.00  0.00    +0.120 C 
ATOM      9  C   UNL     1      -1.981   1.975   0.862  0.00  0.00    +0.222 C 
ATOM     10  O   UNL     1      -2.795   2.417   1.645  0.00  0.00    -0.275 OA
ATOM     11  N   UNL     1      -0.737   1.577   1.186  0.00  0.00    -0.269 N 
ATOM     12  C   UNL     1      -0.013   1.086   0.008  0.00  0.00    +0.136 C 
BRANCH  11  13
ATOM     13  C   UNL     1      -0.201   1.626   2.480  0.00  0.00    +0.040 A 
ATOM     14  C   UNL     1       1.095   1.186   2.712  0.00  0.00    +0.027 A 
ATOM     15  C   UNL     1       1.626   1.238   3.986  0.00  0.00    +0.051 A 
ATOM     16  C   UNL     1       0.862   1.719   5.039  0.00  0.00    +0.162 A 
ATOM     17  C   UNL     1      -0.437   2.158   4.811  0.00  0.00    +0.164 A 
ATOM     18  C   UNL     1      -0.967   2.109   3.531  0.00  0.00    +0.073 A 
ATOM     19  O   UNL     1      -1.198   2.642   5.830  0.00  0.00    -0.485 OA
ATOM     20  C   UNL     1      -0.767   2.331   7.160  0.00  0.00    +0.270 C 
ATOM     21  C   UNL     1       0.743   2.591   7.249  0.00  0.00    +0.270 C 
ATOM     22  O   UNL     1       1.399   1.755   6.291  0.00  0.00    -0.485 OA
ENDBRANCH  11  13
ENDBRANCH   4   7
BRANCH   1  23
ATOM     23  C   UNL     1      -0.108   4.887  -4.756  0.00  0.00    +0.135 C 
BRANCH  23  27
ATOM     24  C   UNL     1      -3.901   6.804  -5.179  0.00  0.00    +0.000 A 
ATOM     25  C   UNL     1      -3.446   5.949  -6.165  0.00  0.00    +0.000 A 
ATOM     26  C   UNL     1      -2.218   5.329  -6.028  0.00  0.00    +0.006 A 
ATOM     27  C   UNL     1      -1.446   5.563  -4.906  0.00  0.00    -0.023 A 
ATOM     28  C   UNL     1      -1.904   6.414  -3.917  0.00  0.00    +0.006 A 
ATOM     29  C   UNL     1      -3.130   7.039  -4.056  0.00  0.00    +0.000 A 
ENDBRANCH  23  27
BRANCH  23  30
ATOM     30  C   UNL     1       0.987   5.849  -5.138  0.00  0.00    -0.023 A 
ATOM     31  C   UNL     1       1.406   6.811  -4.238  0.00  0.00    +0.006 A 
ATOM     32  C   UNL     1       2.414   7.691  -4.587  0.00  0.00    +0.000 A 
ATOM     33  C   UNL     1       2.996   7.615  -5.838  0.00  0.00    +0.000 A 
ATOM     34  C   UNL     1       2.573   6.657  -6.740  0.00  0.00    +0.000 A 
ATOM     35  C   UNL     1       1.569   5.774  -6.390  0.00  0.00    +0.006 A 
ENDBRANCH  23  30
ENDBRANCH   1  23
TORSDOF 5
