REMARK  Name = ZINC49561730
REMARK  8 active torsions:
REMARK  status: ('A' for Active; 'I' for Inactive)
REMARK    1  A    between atoms: C_1  and  C_2
REMARK    2  A    between atoms: C_3  and  C_9
REMARK    3  A    between atoms: C_4  and  N_8
REMARK    4  A    between atoms: N_11  and  C_12
REMARK    5  A    between atoms: C_12  and  C_14
REMARK    6  A    between atoms: C_12  and  C_19
REMARK    7  A    between atoms: C_19  and  C_20
REMARK    8  A    between atoms: C_19  and  C_21
REMARK                            x       y       z     vdW  Elec       q    Type
REMARK                         _______ _______ _______ _____ _____    ______ ____
ROOT
ATOM      1  C   UNL     1      -0.005  -0.377  -2.545  0.00  0.00    +0.250 C 
ATOM      2  O   UNL     1       1.043  -0.175  -3.130  0.00  0.00    -0.270 OA
ATOM      3  N   UNL     1      -1.178  -0.186  -3.181  0.00  0.00    -0.304 N 
ATOM      4  H   UNL     1      -2.014  -0.347  -2.715  0.00  0.00    +0.150 HD
ENDROOT
BRANCH   1   7
ATOM      5  C   UNL     1      -0.018   1.503   0.010  0.00  0.00    +0.068 C 
ATOM      6  C   UNL     1       0.002  -0.004   0.002  0.00  0.00    +0.074 A 
ATOM      7  C   UNL     1       0.008  -0.828  -1.149  0.00  0.00    +0.098 A 
ATOM      8  C   UNL     1       0.029  -2.147  -0.704  0.00  0.00    +0.124 A 
ATOM      9  N   UNL     1       0.034  -2.112   0.644  0.00  0.00    -0.264 N 
ATOM     10  H   UNL     1       0.048  -2.883   1.232  0.00  0.00    +0.190 HD
ATOM     11  N   UNL     1       0.023  -0.774   1.053  0.00  0.00    -0.177 NA
BRANCH   8  12
ATOM     12  N   UNL     1       0.041  -3.279  -1.494  0.00  0.00    -0.343 N 
ATOM     13  H   UNL     1       0.035  -3.196  -2.460  0.00  0.00    +0.144 HD
ATOM     14  H   UNL     1       0.055  -4.157  -1.083  0.00  0.00    +0.144 HD
ENDBRANCH   8  12
ENDBRANCH   1   7
BRANCH   3  15
ATOM     15  C   UNL     1      -1.192   0.264  -4.575  0.00  0.00    +0.113 C 
BRANCH  15  16
ATOM     16  C   UNL     1      -2.491   0.971  -4.862  0.00  0.00    +0.010 A 
ATOM     17  C   UNL     1      -2.711   2.085  -5.602  0.00  0.00    +0.013 A 
ATOM     18  C   UNL     1      -4.002   2.561  -5.730  0.00  0.00    +0.008 A 
ATOM     19  C   UNL     1      -5.011   1.899  -5.112  0.00  0.00    +0.045 A 
ATOM     20  S   UNL     1      -4.141   0.554  -4.322  0.00  0.00    -0.100 S 
ENDBRANCH  15  16
BRANCH  15  21
ATOM     21  C   UNL     1      -1.053  -0.945  -5.502  0.00  0.00    +0.008 C 
ATOM     22  C   UNL     1      -1.067  -0.475  -6.958  0.00  0.00    +0.009 C 
ATOM     23  C   UNL     1       0.266  -1.663  -5.211  0.00  0.00    +0.009 C 
ENDBRANCH  15  21
ENDBRANCH   3  15
TORSDOF 5
