REMARK  Name = ZINC27298030
REMARK  15 active torsions:
REMARK  status: ('A' for Active; 'I' for Inactive)
REMARK    1  A    between atoms: C_1  and  C_2
REMARK    2  A    between atoms: C_2  and  C_3
REMARK    3  A    between atoms: C_3  and  O_4
REMARK    4  A    between atoms: O_4  and  C_5
REMARK    5  A    between atoms: C_8  and  C_14
REMARK    6  A    between atoms: C_10  and  O_11
REMARK    7  A    between atoms: O_11  and  C_12
REMARK    8  A    between atoms: C_12  and  C_13
REMARK    9  A    between atoms: N_19  and  C_33
REMARK   10  A    between atoms: C_23  and  C_31
REMARK   11  A    between atoms: C_24  and  N_30
REMARK   12  A    between atoms: C_25  and  C_26
REMARK   13  A    between atoms: C_25  and  C_28
REMARK   14  A    between atoms: C_33  and  C_34
REMARK   15  A    between atoms: C_33  and  C_35
REMARK                            x       y       z     vdW  Elec       q    Type
REMARK                         _______ _______ _______ _____ _____    ______ ____
ROOT
ATOM      1  C   UNL     1       3.715  -0.701  -0.037  0.00  0.00    +0.068 C 
ATOM      2  C   UNL     1       4.582  -0.224   1.129  0.00  0.00    +0.044 C 
ATOM      3  C   UNL     1       4.041  -0.679   2.465  0.00  0.00    +0.094 C 
ATOM      4  N   UNL     1       3.313   0.388   3.157  0.00  0.00    -0.296 NA
ATOM      5  C   UNL     1       4.200   1.544   3.385  0.00  0.00    +0.112 C 
ATOM      6  C   UNL     1       4.598   2.086   2.035  0.00  0.00    -0.006 C 
ATOM      7  C   UNL     1       4.744   1.265   1.011  0.00  0.00    -0.026 C 
ATOM      8  C   UNL     1       5.078   1.803  -0.331  0.00  0.00    +0.074 C 
ATOM      9  C   UNL     1       4.921   1.008  -1.420  0.00  0.00    +0.054 C 
ATOM     10  C   UNL     1       4.446  -0.411  -1.349  0.00  0.00    +0.188 C 
ENDROOT
BRANCH   1  14
ATOM     11  C   UNL     1      -0.022   1.377   0.013  0.00  0.00    +0.162 A 
ATOM     12  C   UNL     1       0.112   0.171   0.682  0.00  0.00    +0.050 A 
ATOM     13  C   UNL     1       1.321  -0.498   0.663  0.00  0.00    +0.008 A 
ATOM     14  C   UNL     1       2.399   0.033  -0.021  0.00  0.00    -0.037 A 
ATOM     15  C   UNL     1       2.272   1.236  -0.690  0.00  0.00    +0.053 A 
ATOM     16  C   UNL     1       1.062   1.912  -0.676  0.00  0.00    +0.162 A 
BRANCH  11  17
ATOM     17  O   UNL     1      -1.210   2.040   0.035  0.00  0.00    -0.488 OA
BRANCH  17  18
ATOM     18  C   UNL     1      -2.279   1.432   0.762  0.00  0.00    +0.229 C 
BRANCH  18  20
ATOM     19  C   UNL     1      -4.669   1.665   1.451  0.00  0.00    +0.007 C 
ATOM     20  C   UNL     1      -3.524   2.316   0.673  0.00  0.00    +0.038 C 
ENDBRANCH  18  20
ENDBRANCH  17  18
ENDBRANCH  11  17
BRANCH  16  21
ATOM     21  O   UNL     1       0.935   3.096  -1.333  0.00  0.00    -0.489 OA
BRANCH  21  22
ATOM     22  C   UNL     1       2.090   3.584  -2.019  0.00  0.00    +0.226 C 
ATOM     23  C   UNL     1       1.758   4.916  -2.694  0.00  0.00    +0.048 C 
ENDBRANCH  21  22
ENDBRANCH  16  21
ENDBRANCH   1  14
BRANCH   9  24
ATOM     24  N   UNL     1       5.212   1.531  -2.649  0.00  0.00    -0.358 N 
ATOM     25  H   UNL     1       5.095   0.913  -3.551  0.00  0.00    +0.142 HD
ATOM     26  H   UNL     1       5.562   2.570  -2.736  0.00  0.00    +0.142 HD
ENDBRANCH   9  24
BRANCH   4  27
ATOM     27  C   UNL     1       2.744  -0.097   4.421  0.00  0.00    +0.051 C 
ATOM     28  C   UNL     1       2.016   1.049   5.126  0.00  0.00    +0.024 C 
ATOM     29  C   UNL     1       1.756  -1.229   4.135  0.00  0.00    +0.024 C 
ENDBRANCH   4  27
BRANCH  10  30
ATOM     30  C   UNL     1       5.606  -1.311  -1.459  0.00  0.00    +0.091 C 
ATOM     31  N   UNL     1       6.501  -2.006  -1.545  0.00  0.00    -0.194 NA
ENDBRANCH  10  30
BRANCH  10  32
ATOM     32  C   UNL     1       3.533  -0.669  -2.474  0.00  0.00    +0.091 C 
ATOM     33  N   UNL     1       2.828  -0.868  -3.342  0.00  0.00    -0.194 NA
ENDBRANCH  10  32
BRANCH   8  34
ATOM     34  C   UNL     1       5.560   3.144  -0.475  0.00  0.00    +0.101 C 
ATOM     35  N   UNL     1       5.942   4.208  -0.589  0.00  0.00    -0.191 NA
ENDBRANCH   8  34
TORSDOF 11
