REMARK  Name = ZINC36741007
REMARK  9 active torsions:
REMARK  status: ('A' for Active; 'I' for Inactive)
REMARK    1  A    between atoms: C_1  and  C_2
REMARK    2  A    between atoms: C_4  and  C_35
REMARK    3  A    between atoms: C_8  and  C_11
REMARK    4  A    between atoms: N_13  and  C_14
REMARK    5  A    between atoms: C_14  and  C_15
REMARK    6  A    between atoms: C_15  and  C_17
REMARK    7  A    between atoms: C_15  and  C_25
REMARK    8  A    between atoms: C_20  and  O_23
REMARK    9  A    between atoms: O_23  and  C_24
REMARK                            x       y       z     vdW  Elec       q    Type
REMARK                         _______ _______ _______ _____ _____    ______ ____
ROOT
ATOM      1  C   UNL     1       6.842  -4.542  -0.055  0.00  0.00    +0.068 C 
ENDROOT
BRANCH   1   2
ATOM      2  C   UNL     1       6.595  -5.280  -1.346  0.00  0.00    -0.013 A 
ATOM      3  C   UNL     1       6.849  -4.829  -2.585  0.00  0.00    +0.088 A 
ATOM      4  N   UNL     1       6.494  -5.775  -3.507  0.00  0.00    -0.360 N 
ATOM      5  H   UNL     1       6.584  -5.678  -4.468  0.00  0.00    +0.165 HD
ATOM      6  C   UNL     1       5.991  -6.886  -2.869  0.00  0.00    +0.047 A 
ATOM      7  C   UNL     1       6.038  -6.627  -1.486  0.00  0.00    +0.003 A 
ATOM      8  C   UNL     1       5.591  -7.591  -0.581  0.00  0.00    +0.010 A 
ATOM      9  C   UNL     1       5.112  -8.785  -1.043  0.00  0.00    +0.001 A 
ATOM     10  C   UNL     1       5.068  -9.047  -2.405  0.00  0.00    +0.002 A 
ATOM     11  C   UNL     1       5.495  -8.106  -3.317  0.00  0.00    +0.026 A 
ENDBRANCH   1   2
BRANCH   1  12
ATOM     12  C   UNL     1       8.309  -4.215   0.063  0.00  0.00    -0.038 A 
ATOM     13  C   UNL     1       8.918  -3.423  -0.892  0.00  0.00    +0.008 A 
ATOM     14  C   UNL     1      10.263  -3.122  -0.786  0.00  0.00    +0.046 A 
ATOM     15  C   UNL     1      11.000  -3.615   0.281  0.00  0.00    +0.120 A 
ATOM     16  C   UNL     1      10.386  -4.409   1.238  0.00  0.00    +0.046 A 
ATOM     17  C   UNL     1       9.040  -4.703   1.130  0.00  0.00    +0.008 A 
BRANCH  15  18
ATOM     18  O   UNL     1      12.323  -3.321   0.387  0.00  0.00    -0.495 OA
ATOM     19  C   UNL     1      13.020  -3.863   1.511  0.00  0.00    +0.277 C 
ENDBRANCH  15  18
ENDBRANCH   1  12
BRANCH   1  20
ATOM     20  C   UNL     1       6.028  -3.246  -0.044  0.00  0.00    +0.117 C 
BRANCH  20  23
ATOM     21  C   UNL     1       3.686  -2.577  -0.030  0.00  0.00    +0.249 C 
ATOM     22  O   UNL     1       4.048  -1.415  -0.025  0.00  0.00    -0.270 OA
ATOM     23  N   UNL     1       4.599  -3.568  -0.039  0.00  0.00    -0.310 N 
ATOM     24  H   UNL     1       4.310  -4.494  -0.043  0.00  0.00    +0.149 HD
BRANCH  21  32
ATOM     25  C   UNL     1      -0.018   1.503   0.010  0.00  0.00    +0.066 C 
ATOM     26  C   UNL     1       0.002  -0.004   0.002  0.00  0.00    +0.042 A 
ATOM     27  C   UNL     1      -1.201  -0.719   0.004  0.00  0.00    +0.046 A 
ATOM     28  C   UNL     1      -1.169  -2.076  -0.004  0.00  0.00    +0.044 A 
ATOM     29  N   UNL     1       0.037  -2.712  -0.013  0.00  0.00    -0.218 N 
ATOM     30  C   UNL     1       1.190  -1.978  -0.014  0.00  0.00    +0.168 A 
ATOM     31  N   UNL     1       1.150  -0.645  -0.012  0.00  0.00    -0.232 NA
ATOM     32  C   UNL     1       2.255  -2.898  -0.025  0.00  0.00    +0.100 A 
ATOM     33  C   UNL     1       1.686  -4.184  -0.029  0.00  0.00    +0.150 A 
ATOM     34  N   UNL     1       0.385  -4.067  -0.022  0.00  0.00    -0.172 NA
ATOM     35  C   UNL     1      -2.450  -2.870  -0.001  0.00  0.00    +0.066 C 
ENDBRANCH  21  32
ENDBRANCH  20  23
ENDBRANCH   1  20
TORSDOF 6
