REMARK  Name = ZINC58913632
REMARK  11 active torsions:
REMARK  status: ('A' for Active; 'I' for Inactive)
REMARK    1  A    between atoms: C_1  and  C_2
REMARK    2  A    between atoms: C_4  and  C_15
REMARK    3  A    between atoms: C_5  and  C_14
REMARK    4  A    between atoms: N_6  and  C_7
REMARK    5  A    between atoms: N_16  and  N_17
REMARK    6  A    between atoms: C_18  and  C_20
REMARK    7  A    between atoms: N_22  and  C_23
REMARK    8  A    between atoms: C_25  and  O_31
REMARK    9  A    between atoms: C_28  and  O_29
REMARK   10  A    between atoms: O_29  and  C_30
REMARK   11  A    between atoms: O_31  and  C_32
REMARK                            x       y       z     vdW  Elec       q    Type
REMARK                         _______ _______ _______ _____ _____    ______ ____
ROOT
ATOM      1  N   UNL     1       0.097  -5.711  -1.696  0.00  0.00    -0.199 N 
ATOM      2  C   UNL     1       0.109  -6.927  -1.115  0.00  0.00    +0.318 C 
ATOM      3  O   UNL     1       0.118  -7.021   0.096  0.00  0.00    -0.263 OA
ATOM      4  H   UNL     1       0.089  -5.636  -2.663  0.00  0.00    +0.178 HD
ENDROOT
BRANCH   2   5
ATOM      5  C   UNL     1       0.110  -8.156  -1.958  0.00  0.00    +0.305 C 
ATOM      6  O   UNL     1       0.101  -8.062  -3.168  0.00  0.00    -0.265 OA
ATOM      7  N   UNL     1       0.122  -9.372  -1.377  0.00  0.00    -0.275 N 
ATOM      8  H   UNL     1       0.195  -9.448  -0.412  0.00  0.00    +0.155 HD
BRANCH   7   9
ATOM      9  C   UNL     1       0.029 -10.524  -2.164  0.00  0.00    +0.079 A 
ATOM     10  C   UNL     1       0.616 -10.557  -3.421  0.00  0.00    +0.072 A 
ATOM     11  C   UNL     1       0.522 -11.700  -4.199  0.00  0.00    +0.122 A 
ATOM     12  C   UNL     1      -0.158 -12.812  -3.721  0.00  0.00    +0.049 A 
ATOM     13  C   UNL     1      -0.744 -12.782  -2.469  0.00  0.00    +0.051 A 
ATOM     14  C   UNL     1      -0.648 -11.644  -1.685  0.00  0.00    +0.141 A 
BRANCH  14  15
ATOM     15  O   UNL     1      -1.220 -11.618  -0.451  0.00  0.00    -0.493 OA
ATOM     16  C   UNL     1      -1.898 -12.801  -0.025  0.00  0.00    +0.277 C 
ENDBRANCH  14  15
BRANCH  11  17
ATOM     17  O   UNL     1       1.096 -11.733  -5.431  0.00  0.00    -0.495 OA
ATOM     18  C   UNL     1       0.961 -12.944  -6.177  0.00  0.00    +0.277 C 
ENDBRANCH  11  17
ENDBRANCH   7   9
ENDBRANCH   2   5
BRANCH   1  20
ATOM     19  C   UNL     1       0.084  -3.383  -1.464  0.00  0.00    +0.140 C 
ATOM     20  N   UNL     1       0.096  -4.556  -0.904  0.00  0.00    -0.187 NA
BRANCH  19  24
ATOM     21  C   UNL     1       0.064   1.504   0.005  0.00  0.00    +0.064 C 
ATOM     22  C   UNL     1       0.073  -0.003  -0.002  0.00  0.00    +0.022 A 
ATOM     23  C   UNL     1       0.070  -0.780  -1.101  0.00  0.00    +0.032 A 
ATOM     24  C   UNL     1       0.083  -2.169  -0.631  0.00  0.00    +0.016 A 
ATOM     25  C   UNL     1       0.093  -2.111   0.735  0.00  0.00    +0.030 A 
ATOM     26  N   UNL     1       0.093  -0.803   1.105  0.00  0.00    -0.317 N 
ATOM     27  C   UNL     1       0.107  -3.293   1.669  0.00  0.00    +0.064 C 
BRANCH  26  28
ATOM     28  C   UNL     1       0.108  -0.342   2.429  0.00  0.00    +0.047 A 
ATOM     29  C   UNL     1       1.212  -0.582   3.236  0.00  0.00    +0.027 A 
ATOM     30  C   UNL     1       1.225  -0.127   4.540  0.00  0.00    +0.017 A 
ATOM     31  C   UNL     1       0.138   0.567   5.042  0.00  0.00    +0.018 A 
ATOM     32  C   UNL     1      -0.964   0.806   4.240  0.00  0.00    +0.017 A 
ATOM     33  C   UNL     1      -0.979   0.359   2.934  0.00  0.00    +0.027 A 
ATOM     34 BR   UNL     1       0.158   1.187   6.829  0.00  0.00    -0.050 Br
ENDBRANCH  26  28
ENDBRANCH  19  24
ENDBRANCH   1  20
TORSDOF 7
