REMARK  Name = ZINC40149853
REMARK  4 active torsions:
REMARK  status: ('A' for Active; 'I' for Inactive)
REMARK    1  A    between atoms: C_3  and  N_8
REMARK    2  A    between atoms: C_9  and  C_11
REMARK    3  A    between atoms: N_16  and  S_18
REMARK    4  A    between atoms: S_18  and  C_21
REMARK                            x       y       z     vdW  Elec       q    Type
REMARK                         _______ _______ _______ _____ _____    ______ ____
ROOT
ATOM      1  C   UNL     1       4.950   4.062  -0.240  0.00  0.00    +0.091 C 
ATOM      2  C   UNL     1       5.811   3.760   0.989  0.00  0.00    +0.015 C 
ATOM      3  C   UNL     1       7.165   4.459   0.849  0.00  0.00    +0.018 C 
ATOM      4  C   UNL     1       6.947   5.974   0.773  0.00  0.00    +0.109 C 
ATOM      5  N   UNL     1       6.004   6.261  -0.317  0.00  0.00    -0.175 NA
ATOM      6  C   UNL     1       4.707   5.572  -0.330  0.00  0.00    +0.122 C 
ENDROOT
BRANCH   1   8
ATOM      7  N   UNL     1       3.597   2.002  -0.022  0.00  0.00    -0.270 N 
ATOM      8  C   UNL     1       3.629   3.346  -0.117  0.00  0.00    +0.223 C 
ATOM      9  O   UNL     1       2.595   3.980  -0.104  0.00  0.00    -0.275 OA
ATOM     10  H   UNL     1       4.425   1.501   0.042  0.00  0.00    +0.156 HD
BRANCH   7  13
ATOM     11  C   UNL     1       1.130  -0.710  -0.017  0.00  0.00    +0.025 A 
ATOM     12  C   UNL     1       2.350  -0.057  -0.024  0.00  0.00    +0.045 A 
ATOM     13  C   UNL     1       2.374   1.332  -0.015  0.00  0.00    +0.125 A 
ATOM     14  N   UNL     1       1.247   2.026   0.000  0.00  0.00    -0.239 NA
ATOM     15  C   UNL     1       0.069   1.433   0.007  0.00  0.00    +0.132 A 
ATOM     16  C   UNL     1      -0.030   0.054  -0.001  0.00  0.00    +0.059 A 
ATOM     17 CL   UNL     1      -1.587  -0.714   0.009  0.00  0.00    -0.082 Cl
ENDBRANCH   7  13
ENDBRANCH   1   8
BRANCH   5  18
ATOM     18  S   UNL     1       6.396   7.342  -1.509  0.00  0.00    +0.067 S 
ATOM     19  O   UNL     1       5.170   7.817  -2.046  0.00  0.00    -0.152 OA
ATOM     20  O   UNL     1       7.376   8.213  -0.961  0.00  0.00    -0.152 OA
BRANCH  18  21
ATOM     21  C   UNL     1       7.191   6.435  -2.794  0.00  0.00    +0.144 A 
ATOM     22  C   UNL     1       6.644   5.833  -3.877  0.00  0.00    +0.038 A 
ATOM     23  C   UNL     1       7.471   5.170  -4.765  0.00  0.00    +0.030 A 
ATOM     24  C   UNL     1       8.806   5.141  -4.524  0.00  0.00    +0.080 A 
ATOM     25  S   UNL     1       8.927   6.078  -3.009  0.00  0.00    -0.057 S 
ATOM     26 CL   UNL     1      10.068   4.393  -5.451  0.00  0.00    -0.076 Cl
ENDBRANCH  18  21
ENDBRANCH   5  18
TORSDOF 4
