REMARK  Name = ZINC01704484
REMARK  7 active torsions:
REMARK  status: ('A' for Active; 'I' for Inactive)
REMARK    1  A    between atoms: C_1  and  C_2
REMARK    2  A    between atoms: C_2  and  C_3
REMARK    3  A    between atoms: C_3  and  C_5
REMARK    4  A    between atoms: C_3  and  C_6
REMARK    5  A    between atoms: C_7  and  C_20
REMARK    6  A    between atoms: C_12  and  C_18
REMARK    7  A    between atoms: C_13  and  O_17
REMARK                            x       y       z     vdW  Elec       q    Type
REMARK                         _______ _______ _______ _____ _____    ______ ____
ROOT
ATOM      1  C   UNL     1       0.799  -2.021  -1.453  0.00  0.00    +0.111 A 
ATOM      2  C   UNL     1      -0.062  -2.565  -2.336  0.00  0.00    -0.004 A 
ATOM      3  C   UNL     1      -0.314  -4.005  -2.249  0.00  0.00    -0.002 A 
ATOM      4  C   UNL     1      -1.179  -4.653  -3.110  0.00  0.00    +0.061 A 
ATOM      5  C   UNL     1      -1.385  -6.031  -2.984  0.00  0.00    +0.197 A 
ATOM      6  O   UNL     1      -2.151  -6.604  -3.747  0.00  0.00    -0.287 OA
ATOM      7  C   UNL     1      -0.688  -6.792  -1.944  0.00  0.00    +0.152 A 
ATOM      8  C   UNL     1       0.186  -6.149  -1.070  0.00  0.00    +0.145 A 
ATOM      9  C   UNL     1       0.393  -4.756  -1.198  0.00  0.00    +0.060 A 
ATOM     10  C   UNL     1       1.248  -4.061  -0.363  0.00  0.00    +0.207 A 
ATOM     11  O   UNL     1       1.421  -2.749  -0.519  0.00  0.00    -0.467 OA
ATOM     12  C   UNL     1      -0.742  -1.719  -3.380  0.00  0.00    +0.048 C 
ENDROOT
BRANCH   7  13
ATOM     13  C   UNL     1      -0.912  -8.236  -1.822  0.00  0.00    +0.394 C 
ATOM     14  O   UNL     1      -0.208  -9.015  -2.436  0.00  0.00    -0.240 OA
ATOM     15  O   UNL     1      -1.898  -8.701  -1.028  0.00  0.00    -0.240 OA
ENDBRANCH   7  13
BRANCH   1  16
ATOM     16  C   UNL     1       1.074  -0.541  -1.524  0.00  0.00    +0.052 C 
ATOM     17  C   UNL     1       2.584  -0.306  -1.603  0.00  0.00    +0.015 C 
BRANCH  16  19
ATOM     18  C   UNL     1       0.685   1.657  -0.401  0.00  0.00    +0.004 C 
ATOM     19  C   UNL     1       0.517   0.142  -0.273  0.00  0.00    +0.007 C 
ENDBRANCH  16  19
ENDBRANCH   1  16
BRANCH   8  20
ATOM     20  O   UNL     1       0.830  -6.849  -0.110  0.00  0.00    -0.505 OA
ATOM     21  H   UNL     1       1.686  -7.203  -0.388  0.00  0.00    +0.292 HD
ENDBRANCH   8  20
TORSDOF 4
