REMARK  Name = ZINC23115363
REMARK  7 active torsions:
REMARK  status: ('A' for Active; 'I' for Inactive)
REMARK    1  A    between atoms: C_1  and  C_2
REMARK    2  A    between atoms: C_2  and  C_3
REMARK    3  A    between atoms: C_5  and  C_12
REMARK    4  A    between atoms: N_7  and  O_11
REMARK    5  A    between atoms: C_8  and  C_9
REMARK    6  A    between atoms: C_8  and  C_10
REMARK    7  A    between atoms: C_17  and  O_18
REMARK                            x       y       z     vdW  Elec       q    Type
REMARK                         _______ _______ _______ _____ _____    ______ ____
ROOT
ATOM      1  C   UNL     1      -2.267   3.466  -1.533  0.00  0.00    +0.037 C 
ATOM      2  N   UNL     1      -1.236   3.332  -0.792  0.00  0.00    -0.265 NA
ATOM      3  C   UNL     1      -1.332   2.114   0.020  0.00  0.00    +0.234 C 
ATOM      4  N   UNL     1      -2.386   1.287  -0.615  0.00  0.00    -0.151 NA
ATOM      5  C   UNL     1      -3.214   2.310  -1.301  0.00  0.00    +0.081 C 
ATOM      6  C   UNL     1      -4.378   2.743  -0.407  0.00  0.00    +0.036 C 
ATOM      7  C   UNL     1      -3.735   1.770  -2.634  0.00  0.00    +0.036 C 
ENDROOT
BRANCH   3   8
ATOM      8  C   UNL     1      -0.017   1.377   0.010  0.00  0.00    +0.036 A 
ATOM      9  C   UNL     1       0.002  -0.004   0.002  0.00  0.00    +0.026 A 
ATOM     10  C   UNL     1       1.209  -0.680  -0.013  0.00  0.00    +0.018 A 
ATOM     11  C   UNL     1       2.399   0.025  -0.021  0.00  0.00    +0.019 A 
ATOM     12  C   UNL     1       2.385   1.406  -0.013  0.00  0.00    +0.047 A 
ATOM     13  C   UNL     1       1.176   2.086   0.002  0.00  0.00    +0.123 A 
ATOM     14 BR   UNL     1       1.231  -2.571  -0.024  0.00  0.00    -0.050 Br
BRANCH  13  15
ATOM     15  O   UNL     1       1.159   3.445   0.009  0.00  0.00    -0.506 OA
ATOM     16  H   UNL     1       2.105   4.007   0.003  0.00  0.00    +0.292 HD
ENDBRANCH  13  15
ENDBRANCH   3   8
BRANCH   1  18
ATOM     17  C   UNL     1      -1.321   5.571  -2.440  0.00  0.00    +0.010 C 
ATOM     18  C   UNL     1      -2.505   4.604  -2.493  0.00  0.00    +0.049 C 
ENDBRANCH   1  18
BRANCH   4  19
ATOM     19  O   UNL     1      -3.167   0.569   0.393  0.00  0.00    -0.309 OA
ATOM     20  H   UNL     1      -3.991  -0.090   0.083  0.00  0.00    +0.237 HD
ENDBRANCH   4  19
TORSDOF 4
