REMARK  Name = ZINC18240780
REMARK  7 active torsions:
REMARK  status: ('A' for Active; 'I' for Inactive)
REMARK    1  A    between atoms: C_1  and  O_2
REMARK    2  A    between atoms: O_2  and  C_3
REMARK    3  A    between atoms: C_6  and  N_9
REMARK    4  A    between atoms: C_13  and  N_47
REMARK    5  A    between atoms: C_17  and  C_18
REMARK    6  A    between atoms: C_17  and  N_47
REMARK    7  A    between atoms: C_18  and  C_19
REMARK                            x       y       z     vdW  Elec       q    Type
REMARK                         _______ _______ _______ _____ _____    ______ ____
ROOT
ATOM      1  N   UNL     1      -0.801   1.547  -1.118  0.00  0.00    +0.387 N 
ATOM      2  H   UNL     1      -0.197   1.629  -1.945  0.00  0.00    -0.085 HD
ATOM      3  H   UNL     1      -1.195   2.467  -0.889  0.00  0.00    -0.085 HD
ENDROOT
BRANCH   1   8
ATOM      4  N   UNL     1       0.342   2.333   1.940  0.00  0.00    -0.212 N 
ATOM      5  C   UNL     1       1.495   2.461   1.272  0.00  0.00    +0.225 C 
ATOM      6  O   UNL     1       2.452   3.106   1.642  0.00  0.00    -0.275 OA
ATOM      7  C   UNL     1       1.413   1.673  -0.017  0.00  0.00    +0.090 C 
ATOM      8  C   UNL     1      -0.002   1.061   0.022  0.00  0.00    +0.026 C 
ATOM      9  C   UNL     1      -0.571   1.567   1.330  0.00  0.00    +0.213 C 
ATOM     10  O   UNL     1      -1.679   1.319   1.756  0.00  0.00    -0.277 OA
BRANCH   4  14
ATOM     11  C   UNL     1      -0.350   4.166   5.624  0.00  0.00    +0.120 A 
ATOM     12  C   UNL     1      -1.061   4.570   4.503  0.00  0.00    +0.047 A 
ATOM     13  C   UNL     1      -0.833   3.964   3.284  0.00  0.00    +0.027 A 
ATOM     14  C   UNL     1       0.109   2.950   3.179  0.00  0.00    +0.044 A 
ATOM     15  C   UNL     1       0.817   2.542   4.302  0.00  0.00    +0.027 A 
ATOM     16  C   UNL     1       0.592   3.152   5.519  0.00  0.00    +0.047 A 
BRANCH  11  18
ATOM     17  C   UNL     1       0.193   4.297   7.935  0.00  0.00    +0.277 C 
ATOM     18  O   UNL     1      -0.575   4.763   6.824  0.00  0.00    -0.495 OA
ENDBRANCH  11  18
ENDBRANCH   4  14
ENDBRANCH   1   8
BRANCH   1  19
ATOM     19  C   UNL     1      -1.900   0.607  -1.411  0.00  0.00    -0.077 C 
BRANCH  19  20
ATOM     20  C   UNL     1      -2.710   1.136  -2.596  0.00  0.00    +0.018 C 
BRANCH  20  21
ATOM     21  C   UNL     1      -3.836   0.182  -2.902  0.00  0.00    -0.024 A 
ATOM     22  C   UNL     1      -3.820  -0.806  -3.811  0.00  0.00    +0.087 A 
ATOM     23  N   UNL     1      -5.021  -1.462  -3.806  0.00  0.00    -0.360 N 
ATOM     24  H   UNL     1      -5.247  -2.213  -4.377  0.00  0.00    +0.165 HD
ATOM     25  C   UNL     1      -5.860  -0.898  -2.870  0.00  0.00    +0.047 A 
ATOM     26  C   UNL     1      -5.152   0.152  -2.259  0.00  0.00    +0.004 A 
ATOM     27  C   UNL     1      -5.762   0.917  -1.262  0.00  0.00    +0.030 A 
ATOM     28  C   UNL     1      -7.052   0.628  -0.877  0.00  0.00    +0.042 A 
ATOM     29  C   UNL     1      -7.748  -0.413  -1.478  0.00  0.00    +0.022 A 
ATOM     30  C   UNL     1      -7.162  -1.172  -2.466  0.00  0.00    +0.027 A 
ATOM     31 CL   UNL     1      -7.813   1.571   0.366  0.00  0.00    -0.084 Cl
ENDBRANCH  20  21
ENDBRANCH  19  20
ENDBRANCH   1  19
TORSDOF 6
