REMARK  Name = ZINC65315154
REMARK  7 active torsions:
REMARK  status: ('A' for Active; 'I' for Inactive)
REMARK    1  A    between atoms: C_1  and  C_2
REMARK    2  A    between atoms: C_7  and  N_8
REMARK    3  A    between atoms: N_11  and  C_12
REMARK    4  A    between atoms: C_12  and  C_13
REMARK    5  A    between atoms: C_13  and  C_14
REMARK    6  A    between atoms: N_17  and  S_20
REMARK    7  A    between atoms: S_20  and  C_23
REMARK                            x       y       z     vdW  Elec       q    Type
REMARK                         _______ _______ _______ _____ _____    ______ ____
ROOT
ATOM      1  C   UNL     1      -0.348   0.223   7.170  0.00  0.00    +0.022 C 
ENDROOT
BRANCH   1   2
ATOM      2  C   UNL     1      -0.441  -0.549   8.488  0.00  0.00    -0.007 C 
ATOM      3  C   UNL     1       0.862  -1.317   8.722  0.00  0.00    +0.021 C 
ATOM      4  C   UNL     1       0.753  -2.115  10.024  0.00  0.00    +0.110 C 
ATOM      5  N   UNL     1       0.390  -1.197  11.113  0.00  0.00    -0.177 NA
ATOM      6  C   UNL     1      -0.796  -0.345  10.952  0.00  0.00    +0.110 C 
ATOM      7  C   UNL     1      -0.669   0.434   9.639  0.00  0.00    +0.021 C 
BRANCH   5   8
ATOM      8  S   UNL     1       1.300  -1.125  12.494  0.00  0.00    +0.061 S 
ATOM      9  O   UNL     1       0.447  -0.628  13.517  0.00  0.00    -0.153 OA
ATOM     10  O   UNL     1       1.973  -2.372  12.603  0.00  0.00    -0.153 OA
BRANCH   8  11
ATOM     11  C   UNL     1       2.543   0.097  12.236  0.00  0.00    +0.105 A 
ATOM     12  C   UNL     1       3.761  -0.261  11.691  0.00  0.00    +0.028 A 
ATOM     13  C   UNL     1       4.736   0.698  11.488  0.00  0.00    +0.002 A 
ATOM     14  C   UNL     1       4.492   2.015  11.831  0.00  0.00    +0.000 A 
ATOM     15  C   UNL     1       3.273   2.373  12.376  0.00  0.00    +0.002 A 
ATOM     16  C   UNL     1       2.297   1.415  12.574  0.00  0.00    +0.028 A 
ENDBRANCH   8  11
ENDBRANCH   5   8
ENDBRANCH   1   2
BRANCH   1  17
ATOM     17  C   UNL     1      -0.245  -0.765   6.006  0.00  0.00    +0.106 C 
BRANCH  17  21
ATOM     18  N   UNL     1       0.025  -0.015   2.417  0.00  0.00    -0.269 N 
ATOM     19  C   UNL     1      -0.056  -0.694   3.578  0.00  0.00    +0.304 C 
ATOM     20  O   UNL     1      -0.040  -1.910   3.573  0.00  0.00    -0.253 OA
ATOM     21  N   UNL     1      -0.156  -0.026   4.745  0.00  0.00    -0.299 N 
ATOM     22  H   UNL     1       0.078   0.954   2.425  0.00  0.00    +0.156 HD
ATOM     23  H   UNL     1      -0.169   0.944   4.748  0.00  0.00    +0.150 HD
BRANCH  18  30
ATOM     24  C   UNL     1      -1.266   1.182   0.182  0.00  0.00    +0.045 C 
ATOM     25  C   UNL     1      -0.585  -0.158   0.085  0.00  0.00    -0.029 A 
ATOM     26  C   UNL     1      -0.570  -0.841  -1.116  0.00  0.00    +0.005 A 
ATOM     27  C   UNL     1       0.055  -2.071  -1.206  0.00  0.00    +0.000 A 
ATOM     28  C   UNL     1       0.667  -2.622  -0.095  0.00  0.00    +0.002 A 
ATOM     29  C   UNL     1       0.655  -1.945   1.108  0.00  0.00    +0.023 A 
ATOM     30  C   UNL     1       0.034  -0.706   1.200  0.00  0.00    +0.038 A 
ENDBRANCH  18  30
ENDBRANCH  17  21
ENDBRANCH   1  17
TORSDOF 6
