REMARK  Name = ZINC04717870
REMARK  3 active torsions:
REMARK  status: ('A' for Active; 'I' for Inactive)
REMARK    1  A    between atoms: C_4  and  C_7
REMARK    2  A    between atoms: C_8  and  C_17
REMARK    3  A    between atoms: C_17  and  C_19
REMARK                            x       y       z     vdW  Elec       q    Type
REMARK                         _______ _______ _______ _____ _____    ______ ____
ROOT
ATOM      1  C   UNL     1      -6.019   2.413  -1.494  0.00  0.00    +0.059 A 
ATOM      2  C   UNL     1      -4.790   1.788  -1.266  0.00  0.00    +0.060 A 
ATOM      3  C   UNL     1      -4.890   0.452  -1.880  0.00  0.00    +0.011 A 
ATOM      4  C   UNL     1      -4.014  -0.627  -1.985  0.00  0.00    +0.011 A 
ATOM      5  C   UNL     1      -4.416  -1.771  -2.639  0.00  0.00    +0.001 A 
ATOM      6  C   UNL     1      -5.686  -1.852  -3.191  0.00  0.00    +0.002 A 
ATOM      7  C   UNL     1      -6.562  -0.792  -3.095  0.00  0.00    +0.026 A 
ATOM      8  C   UNL     1      -6.176   0.372  -2.439  0.00  0.00    +0.048 A 
ATOM      9  N   UNL     1      -6.825   1.567  -2.192  0.00  0.00    -0.354 N 
ATOM     10  H   UNL     1      -7.730   1.772  -2.473  0.00  0.00    +0.166 HD
ENDROOT
BRANCH   1  14
ATOM     11  C   UNL     1      -7.068   6.323  -0.221  0.00  0.00    +0.000 A 
ATOM     12  C   UNL     1      -7.370   5.914  -1.508  0.00  0.00    +0.001 A 
ATOM     13  C   UNL     1      -7.032   4.645  -1.929  0.00  0.00    +0.010 A 
ATOM     14  C   UNL     1      -6.384   3.771  -1.052  0.00  0.00    -0.001 A 
ATOM     15  C   UNL     1      -6.088   4.189   0.249  0.00  0.00    +0.010 A 
ATOM     16  C   UNL     1      -6.426   5.464   0.653  0.00  0.00    +0.001 A 
ENDBRANCH   1  14
BRANCH   2  17
ATOM     17  C   UNL     1      -3.677   2.328  -0.580  0.00  0.00    +0.250 C 
ATOM     18  O   UNL     1      -3.508   2.075   0.599  0.00  0.00    -0.282 OA
BRANCH  17  19
ATOM     19  C   UNL     1      -2.711   3.204  -1.299  0.00  0.00    +0.292 C 
ATOM     20  O   UNL     1      -2.934   4.393  -1.408  0.00  0.00    -0.266 OA
ATOM     21  N   UNL     1      -1.589   2.678  -1.830  0.00  0.00    -0.254 N 
ATOM     22  C   UNL     1      -1.237   1.267  -1.613  0.00  0.00    +0.210 C 
ATOM     23  C   UNL     1       0.241   1.166  -1.337  0.00  0.00    +0.235 C 
ATOM     24  O   UNL     1       0.661   0.267  -0.639  0.00  0.00    -0.274 OA
ATOM     25  N   UNL     1       1.102   2.063  -1.856  0.00  0.00    -0.283 N 
ATOM     26  C   UNL     1       0.637   3.137  -2.622  0.00  0.00    +0.055 A 
ATOM     27  C   UNL     1      -0.722   3.458  -2.606  0.00  0.00    +0.058 A 
ATOM     28  C   UNL     1      -1.193   4.526  -3.350  0.00  0.00    +0.025 A 
ATOM     29  C   UNL     1      -0.313   5.271  -4.114  0.00  0.00    +0.002 A 
ATOM     30  C   UNL     1       1.033   4.952  -4.134  0.00  0.00    +0.002 A 
ATOM     31  C   UNL     1       1.511   3.888  -3.392  0.00  0.00    +0.025 A 
ATOM     32  H   UNL     1       2.053   1.962  -1.696  0.00  0.00    +0.155 HD
ENDBRANCH  17  19
ENDBRANCH   2  17
TORSDOF 3
