REMARK  Name = ZINC63745180
REMARK  3 active torsions:
REMARK  status: ('A' for Active; 'I' for Inactive)
REMARK    1  A    between atoms: C_5  and  C_7
REMARK    2  A    between atoms: C_9  and  C_12
REMARK    3  A    between atoms: N_14  and  C_15
REMARK                            x       y       z     vdW  Elec       q    Type
REMARK                         _______ _______ _______ _____ _____    ______ ____
ROOT
ATOM      1  C   UNL     1       1.277  -2.195  -0.010  0.00  0.00    +0.112 A 
ATOM      2  N   UNL     1       0.259  -3.036  -0.018  0.00  0.00    -0.234 NA
ATOM      3  C   UNL     1       0.506  -4.329   0.138  0.00  0.00    +0.133 A 
ATOM      4  C   UNL     1       1.802  -4.745   0.300  0.00  0.00    +0.080 A 
ATOM      5  S   UNL     1       2.660  -3.299   0.223  0.00  0.00    -0.075 S 
ENDROOT
BRANCH   1  10
ATOM      6  C   UNL     1       0.073   1.331  -0.479  0.00  0.00    +0.001 A 
ATOM      7  C   UNL     1       1.266   2.032  -0.447  0.00  0.00    +0.003 A 
ATOM      8  C   UNL     1       2.463   1.363  -0.273  0.00  0.00    +0.039 A 
ATOM      9  C   UNL     1       2.475  -0.012  -0.130  0.00  0.00    +0.133 A 
ATOM     10  C   UNL     1       1.274  -0.724  -0.162  0.00  0.00    +0.042 A 
ATOM     11  C   UNL     1       0.070  -0.041  -0.338  0.00  0.00    +0.013 A 
ATOM     12  F   UNL     1       3.646  -0.665   0.039  0.00  0.00    -0.205 F 
ENDBRANCH   1  10
BRANCH   3  13
ATOM     13  C   UNL     1      -0.596  -5.306   0.137  0.00  0.00    +0.267 C 
ATOM     14  O   UNL     1      -0.359  -6.490   0.281  0.00  0.00    -0.268 OA
ATOM     15  N   UNL     1      -1.867  -4.887  -0.023  0.00  0.00    -0.276 N 
ATOM     16  H   UNL     1      -2.063  -3.938  -0.066  0.00  0.00    +0.155 HD
BRANCH  15  17
ATOM     17  C   UNL     1      -2.906  -5.824  -0.129  0.00  0.00    +0.097 A 
ATOM     18  C   UNL     1      -3.939  -5.806   0.749  0.00  0.00    +0.110 A 
ATOM     19  N   UNL     1      -4.946  -6.712   0.650  0.00  0.00    -0.365 N 
ATOM     20  C   UNL     1      -4.956  -7.656  -0.321  0.00  0.00    +0.086 A 
ATOM     21  C   UNL     1      -3.956  -7.727  -1.228  0.00  0.00    +0.070 A 
ATOM     22  C   UNL     1      -2.893  -6.799  -1.161  0.00  0.00    +0.203 A 
ATOM     23  O   UNL     1      -1.978  -6.837  -1.972  0.00  0.00    -0.286 OA
ATOM     24  H   UNL     1      -5.675  -6.682   1.289  0.00  0.00    +0.165 HD
ENDBRANCH  15  17
ENDBRANCH   3  13
TORSDOF 3
