REMARK  Name = ZINC21602476
REMARK  11 active torsions:
REMARK  status: ('A' for Active; 'I' for Inactive)
REMARK    1  A    between atoms: C_1  and  C_2
REMARK    2  A    between atoms: C_2  and  C_4
REMARK    3  A    between atoms: C_2  and  O_14
REMARK    4  A    between atoms: N_9  and  C_10
REMARK    5  A    between atoms: C_10  and  C_11
REMARK    6  A    between atoms: C_10  and  C_12
REMARK    7  A    between atoms: C_10  and  C_13
REMARK    8  A    between atoms: O_14  and  C_15
REMARK    9  A    between atoms: C_15  and  C_17
REMARK   10  A    between atoms: C_21  and  N_22
REMARK   11  A    between atoms: C_23  and  C_25
REMARK                            x       y       z     vdW  Elec       q    Type
REMARK                         _______ _______ _______ _____ _____    ______ ____
ROOT
ATOM      1  C   UNL     1      -1.659   0.761   1.708  0.00  0.00    +0.343 C 
ATOM      2  O   UNL     1      -1.927  -0.294   1.164  0.00  0.00    -0.245 OA
ENDROOT
BRANCH   1   3
ATOM      3  C   UNL     1      -2.387   1.169   2.911  0.00  0.00    +0.091 A 
ATOM      4  C   UNL     1      -3.602   1.963   2.824  0.00  0.00    -0.021 A 
ATOM      5  C   UNL     1      -4.176   2.267   4.008  0.00  0.00    -0.004 A 
ATOM      6  S   UNL     1      -3.123   1.529   5.225  0.00  0.00    -0.077 S 
ATOM      7  C   UNL     1      -1.940   0.818   4.178  0.00  0.00    +0.086 A 
ATOM      8  C   UNL     1      -5.426   3.062   4.229  0.00  0.00    +0.043 C 
ATOM      9  C   UNL     1      -5.768   3.797   2.924  0.00  0.00    +0.005 C 
ATOM     10  C   UNL     1      -5.683   2.803   1.762  0.00  0.00    +0.005 C 
ATOM     11  C   UNL     1      -4.224   2.420   1.510  0.00  0.00    +0.037 C 
BRANCH   7  12
ATOM     12  N   UNL     1      -0.818   0.080   4.521  0.00  0.00    -0.280 N 
ATOM     13  C   UNL     1      -0.542  -0.163   5.817  0.00  0.00    +0.214 C 
ATOM     14  O   UNL     1      -1.274   0.265   6.684  0.00  0.00    -0.276 OA
ATOM     15  C   UNL     1       0.678  -0.966   6.191  0.00  0.00    +0.109 C 
ATOM     16  H   UNL     1      -0.154  -0.309   3.735  0.00  0.00    +0.155 HD
ENDBRANCH   7  12
ENDBRANCH   1   3
BRANCH   1  17
ATOM     17  O   UNL     1      -0.692   1.554   1.203  0.00  0.00    -0.449 OA
BRANCH  17  19
ATOM     18  C   UNL     1      -0.753   1.593  -1.232  0.00  0.00    +0.062 C 
ATOM     19  C   UNL     1      -0.013   1.086   0.008  0.00  0.00    +0.259 C 
BRANCH  19  20
ATOM     20  C   UNL     1       1.401   1.607  -0.003  0.00  0.00    +0.261 C 
ATOM     21  O   UNL     1       1.797   2.305   0.907  0.00  0.00    -0.271 OA
ATOM     22  N   UNL     1       2.226   1.299  -1.023  0.00  0.00    -0.237 N 
ATOM     23  C   UNL     1       3.490   1.765  -1.033  0.00  0.00    +0.306 C 
ATOM     24  O   UNL     1       3.887   2.464  -0.121  0.00  0.00    -0.252 OA
ATOM     25  N   UNL     1       4.315   1.456  -2.053  0.00  0.00    -0.294 N 
ATOM     26  H   UNL     1       1.867   0.666  -1.848  0.00  0.00    +0.159 HD
ATOM     27  H   UNL     1       3.956   0.824  -2.878  0.00  0.00    +0.151 HD
BRANCH  25  28
ATOM     28  C   UNL     1       5.689   1.963  -2.063  0.00  0.00    +0.028 C 
ATOM     29  C   UNL     1       6.429   1.456  -0.824  0.00  0.00    +0.031 C 
ATOM     30  C   UNL     1       6.405   1.470  -3.322  0.00  0.00    +0.031 C 
ATOM     31  C   UNL     1       5.668   3.493  -2.055  0.00  0.00    +0.031 C 
ENDBRANCH  25  28
ENDBRANCH  19  20
ENDBRANCH  17  19
ENDBRANCH   1  17
TORSDOF 6
