REMARK  Name = ZINC41550651
REMARK  6 active torsions:
REMARK  status: ('A' for Active; 'I' for Inactive)
REMARK    1  A    between atoms: C_1  and  C_2
REMARK    2  A    between atoms: C_9  and  N_13
REMARK    3  A    between atoms: C_10  and  C_11
REMARK    4  A    between atoms: C_14  and  C_16
REMARK    5  A    between atoms: C_25  and  O_27
REMARK    6  A    between atoms: O_27  and  C_28
REMARK                            x       y       z     vdW  Elec       q    Type
REMARK                         _______ _______ _______ _____ _____    ______ ____
ROOT
ATOM      1  N   UNL     1       1.923  -5.828   1.701  0.00  0.00    -0.275 N 
ATOM      2  C   UNL     1       2.249  -6.087   2.982  0.00  0.00    +0.250 C 
ATOM      3  O   UNL     1       2.333  -5.177   3.784  0.00  0.00    -0.270 OA
ATOM      4  H   UNL     1       1.931  -6.542   1.045  0.00  0.00    +0.156 HD
ENDROOT
BRANCH   2   5
ATOM      5  C   UNL     1       2.507  -7.481   3.415  0.00  0.00    +0.054 A 
ATOM      6  C   UNL     1       2.535  -8.506   2.509  0.00  0.00    +0.105 A 
ATOM      7  C   UNL     1       2.783  -9.826   2.954  0.00  0.00    +0.338 A 
ATOM      8  O   UNL     1       2.806 -10.731   2.141  0.00  0.00    -0.245 OA
ATOM      9  O   UNL     1       2.994 -10.105   4.249  0.00  0.00    -0.422 OA
ATOM     10  C   UNL     1       2.980  -9.142   5.195  0.00  0.00    +0.143 A 
ATOM     11  C   UNL     1       2.746  -7.803   4.831  0.00  0.00    +0.030 A 
ATOM     12  C   UNL     1       2.736  -6.803   5.807  0.00  0.00    +0.016 A 
ATOM     13  C   UNL     1       2.960  -7.128   7.114  0.00  0.00    +0.046 A 
ATOM     14  C   UNL     1       3.198  -8.451   7.481  0.00  0.00    +0.124 A 
ATOM     15  C   UNL     1       3.201  -9.456   6.528  0.00  0.00    +0.092 A 
BRANCH  14  16
ATOM     16  O   UNL     1       3.420  -8.758   8.785  0.00  0.00    -0.495 OA
ATOM     17  C   UNL     1       3.394  -7.678   9.720  0.00  0.00    +0.277 C 
ENDBRANCH  14  16
ENDBRANCH   2   5
BRANCH   1  25
ATOM     18  C   UNL     1      -0.060   1.521   0.029  0.00  0.00    +0.008 C 
ATOM     19  C   UNL     1      -0.038  -0.009   0.022  0.00  0.00    -0.009 C 
ATOM     20  C   UNL     1       0.668  -0.507  -1.242  0.00  0.00    +0.008 C 
ATOM     21  C   UNL     1       0.480  -2.019  -1.383  0.00  0.00    +0.037 C 
ATOM     22  C   UNL     1       0.894  -2.685  -0.080  0.00  0.00    -0.018 A 
ATOM     23  C   UNL     1       0.993  -1.980   1.069  0.00  0.00    -0.004 A 
ATOM     24  S   UNL     1       1.496  -3.167   2.281  0.00  0.00    -0.077 S 
ATOM     25  C   UNL     1       1.576  -4.542   1.320  0.00  0.00    +0.090 A 
ATOM     26  C   UNL     1       1.215  -4.094   0.059  0.00  0.00    +0.084 A 
ATOM     27  C   UNL     1       0.725  -0.518   1.254  0.00  0.00    +0.046 C 
BRANCH  26  28
ATOM     28  C   UNL     1       1.160  -4.985  -1.061  0.00  0.00    +0.102 C 
ATOM     29  N   UNL     1       1.117  -5.692  -1.949  0.00  0.00    -0.191 NA
ENDBRANCH  26  28
ENDBRANCH   1  25
TORSDOF 4
