REMARK  Name = ZINC39845155
REMARK  10 active torsions:
REMARK  status: ('A' for Active; 'I' for Inactive)
REMARK    1  A    between atoms: C_1  and  C_2
REMARK    2  A    between atoms: C_2  and  N_3
REMARK    3  A    between atoms: N_3  and  C_4
REMARK    4  A    between atoms: C_5  and  S_18
REMARK    5  A    between atoms: C_7  and  C_9
REMARK    6  A    between atoms: C_12  and  O_15
REMARK    7  A    between atoms: O_15  and  C_16
REMARK    8  A    between atoms: C_16  and  C_17
REMARK    9  A    between atoms: S_18  and  C_21
REMARK   10  A    between atoms: C_24  and  C_27
REMARK                            x       y       z     vdW  Elec       q    Type
REMARK                         _______ _______ _______ _____ _____    ______ ____
ROOT
ATOM      1  C   UNL     1       0.858  -1.857   1.400  0.00  0.00    +0.233 A 
ATOM      2  C   UNL     1       1.481  -2.446   2.449  0.00  0.00    +0.243 A 
ATOM      3  N   UNL     1       1.404  -3.775   2.277  0.00  0.00    -0.188 NA
ATOM      4  C   UNL     1       0.757  -4.018   1.161  0.00  0.00    +0.231 A 
ATOM      5  O   UNL     1       0.404  -2.844   0.603  0.00  0.00    -0.420 OA
ENDROOT
BRANCH   4   6
ATOM      6  C   UNL     1       0.461  -5.356   0.613  0.00  0.00    +0.037 A 
ATOM      7  C   UNL     1       0.875  -6.501   1.298  0.00  0.00    +0.017 A 
ATOM      8  C   UNL     1       0.596  -7.749   0.782  0.00  0.00    +0.046 A 
ATOM      9  C   UNL     1      -0.095  -7.868  -0.417  0.00  0.00    +0.121 A 
ATOM     10  C   UNL     1      -0.507  -6.732  -1.101  0.00  0.00    +0.046 A 
ATOM     11  C   UNL     1      -0.238  -5.481  -0.590  0.00  0.00    +0.017 A 
BRANCH   9  12
ATOM     12  O   UNL     1      -0.367  -9.100  -0.922  0.00  0.00    -0.492 OA
BRANCH  12  13
ATOM     13  C   UNL     1      -1.081  -9.150  -2.159  0.00  0.00    +0.225 C 
ATOM     14  C   UNL     1      -1.293 -10.610  -2.566  0.00  0.00    +0.048 C 
ENDBRANCH  12  13
ENDBRANCH   9  12
ENDBRANCH   4   6
BRANCH   2  15
ATOM     15  S   UNL     1       2.254  -1.616   3.798  0.00  0.00    +0.047 S 
ATOM     16  O   UNL     1       3.217  -2.515   4.329  0.00  0.00    -0.163 OA
ATOM     17  O   UNL     1       2.598  -0.318   3.333  0.00  0.00    -0.163 OA
BRANCH  15  18
ATOM     18  C   UNL     1       1.029  -1.397   5.045  0.00  0.00    +0.095 A 
ATOM     19  C   UNL     1       0.247  -0.257   5.053  0.00  0.00    +0.028 A 
ATOM     20  C   UNL     1      -0.715  -0.084   6.031  0.00  0.00    +0.005 A 
ATOM     21  C   UNL     1      -0.894  -1.052   7.002  0.00  0.00    -0.050 A 
ATOM     22  C   UNL     1      -0.112  -2.192   6.994  0.00  0.00    +0.005 A 
ATOM     23  C   UNL     1       0.846  -2.366   6.013  0.00  0.00    +0.028 A 
ATOM     24  C   UNL     1      -1.941  -0.863   8.069  0.00  0.00    +0.044 C 
ENDBRANCH  15  18
ENDBRANCH   2  15
BRANCH   1  25
ATOM     25  N   UNL     1       0.711  -0.489   1.189  0.00  0.00    -0.313 N 
ATOM     26  H   UNL     1       1.077   0.142   1.827  0.00  0.00    +0.149 HD
BRANCH  25  28
ATOM     27  C   UNL     1      -0.019   1.526   0.010  0.00  0.00    +0.024 C 
ATOM     28  C   UNL     1       0.002  -0.004   0.002  0.00  0.00    +0.101 C 
ENDBRANCH  25  28
ENDBRANCH   1  25
TORSDOF 7
