REMARK  Name = ZINC04920469
REMARK  8 active torsions:
REMARK  status: ('A' for Active; 'I' for Inactive)
REMARK    1  A    between atoms: C_1  and  C_2
REMARK    2  A    between atoms: C_2  and  C_3
REMARK    3  A    between atoms: C_3  and  N_4
REMARK    4  A    between atoms: N_4  and  C_5
REMARK    5  A    between atoms: C_10  and  C_11
REMARK    6  A    between atoms: C_12  and  C_14
REMARK    7  A    between atoms: C_14  and  C_15
REMARK    8  A    between atoms: CA_24  and  C_25
REMARK                            x       y       z     vdW  Elec       q    Type
REMARK                         _______ _______ _______ _____ _____    ______ ____
ROOT
ATOM      1  C   UNL     1       1.341   3.158   2.387  0.00  0.00    +0.134 C 
ENDROOT
BRANCH   1   2
ATOM      2  C   UNL     1       2.463   3.778   3.179  0.00  0.00    +0.001 A 
ATOM      3  C   UNL     1       3.848   3.596   2.948  0.00  0.00    +0.005 A 
ATOM      4  C   UNL     1       4.577   2.859   2.005  0.00  0.00    +0.030 A 
ATOM      5  C   UNL     1       5.942   2.881   2.034  0.00  0.00    +0.042 A 
ATOM      6  C   UNL     1       6.617   3.631   2.991  0.00  0.00    +0.022 A 
ATOM      7  C   UNL     1       5.922   4.363   3.927  0.00  0.00    +0.027 A 
ATOM      8  C   UNL     1       4.530   4.356   3.918  0.00  0.00    +0.047 A 
ATOM      9  N   UNL     1       3.581   4.969   4.702  0.00  0.00    -0.349 N 
ATOM     10  H   UNL     1       3.762   5.557   5.452  0.00  0.00    +0.166 HD
ATOM     11  CA  UNL     1       2.327   4.616   4.240  0.00  0.00    +0.133 A 
ATOM     12 CL   UNL     1       6.842   1.967   0.865  0.00  0.00    -0.084 Cl
BRANCH  11  13
ATOM     13  C   UNL     1       1.052   5.072   4.809  0.00  0.00    +0.403 C 
ATOM     14  O   UNL     1       0.002   4.695   4.324  0.00  0.00    -0.239 OA
ATOM     15  OXT UNL     1       1.045   5.907   5.867  0.00  0.00    -0.239 OA
ENDBRANCH  11  13
ENDBRANCH   1   2
BRANCH   1  17
ATOM     16  N   UNL     1      -0.020   1.094   2.454  0.00  0.00    -0.271 N 
ATOM     17  C   UNL     1       0.967   1.833   2.998  0.00  0.00    +0.224 C 
ATOM     18  O   UNL     1       1.553   1.431   3.981  0.00  0.00    -0.275 OA
BRANCH  16  19
ATOM     19  C   UNL     1      -0.368  -0.137   3.022  0.00  0.00    +0.039 A 
ATOM     20  C   UNL     1       0.257  -1.301   2.595  0.00  0.00    +0.024 A 
ATOM     21  C   UNL     1      -0.084  -2.514   3.162  0.00  0.00    +0.002 A 
ATOM     22  C   UNL     1      -1.056  -2.570   4.145  0.00  0.00    +0.000 A 
ATOM     23  C   UNL     1      -1.684  -1.413   4.567  0.00  0.00    +0.005 A 
ATOM     24  C   UNL     1      -1.343  -0.197   4.008  0.00  0.00    -0.029 A 
ATOM     25  C   UNL     1      -2.029   1.064   4.469  0.00  0.00    +0.045 C 
ENDBRANCH  16  19
BRANCH  16  26
ATOM     26  C   UNL     1      -0.729   1.579   1.267  0.00  0.00    +0.113 C 
BRANCH  26  28
ATOM     27  C   UNL     1      -0.753   1.593  -1.232  0.00  0.00    +0.005 C 
ATOM     28  C   UNL     1      -0.013   1.086   0.008  0.00  0.00    +0.016 C 
ENDBRANCH  26  28
ENDBRANCH  16  26
ENDBRANCH   1  17
TORSDOF 6
