REMARK  Name = ZINC12772480
REMARK  12 active torsions:
REMARK  status: ('A' for Active; 'I' for Inactive)
REMARK    1  A    between atoms: C_1  and  C_2
REMARK    2  A    between atoms: C_2  and  C_3
REMARK    3  A    between atoms: C_2  and  C_4
REMARK    4  A    between atoms: C_4  and  N_5
REMARK    5  A    between atoms: C_6  and  N_30
REMARK    6  A    between atoms: C_7  and  N_14
REMARK    7  A    between atoms: N_14  and  C_15
REMARK    8  A    between atoms: C_15  and  C_16
REMARK    9  A    between atoms: C_16  and  C_17
REMARK   10  A    between atoms: C_17  and  O_18
REMARK   11  A    between atoms: O_18  and  C_19
REMARK   12  A    between atoms: C_20  and  C_22
REMARK                            x       y       z     vdW  Elec       q    Type
REMARK                         _______ _______ _______ _____ _____    ______ ____
ROOT
ATOM      1  N   UNL     1       5.182   6.931  -1.035  0.00  0.00    -0.280 N 
ATOM      2  C   UNL     1       4.068   6.124  -1.049  0.00  0.00    +0.127 A 
ATOM      3  C   UNL     1       3.310   6.002   0.098  0.00  0.00    +0.140 A 
ATOM      4  C   UNL     1       3.698   6.715   1.248  0.00  0.00    +0.277 A 
ATOM      5  O   UNL     1       3.043   6.630   2.273  0.00  0.00    -0.266 OA
ATOM      6  N   UNL     1       4.801   7.488   1.210  0.00  0.00    -0.273 N 
ATOM      7  H   UNL     1       5.082   7.989   2.029  0.00  0.00    +0.173 HD
ATOM      8  C   UNL     1       5.528   7.594   0.083  0.00  0.00    +0.331 A 
ATOM      9  O   UNL     1       6.516   8.303   0.075  0.00  0.00    -0.246 OA
ENDROOT
BRANCH   3  10
ATOM     10  N   UNL     1       2.162   5.183   0.115  0.00  0.00    -0.260 N 
ATOM     11  C   UNL     1       2.274   3.861  -0.124  0.00  0.00    +0.252 C 
ATOM     12  O   UNL     1       1.288   3.151  -0.087  0.00  0.00    -0.270 OA
BRANCH  11  13
ATOM     13  C   UNL     1       3.595   3.275  -0.430  0.00  0.00    +0.057 A 
ATOM     14  C   UNL     1       4.753   3.829   0.120  0.00  0.00    +0.029 A 
ATOM     15  C   UNL     1       5.984   3.277  -0.171  0.00  0.00    +0.019 A 
ATOM     16  C   UNL     1       6.072   2.173  -1.002  0.00  0.00    +0.017 A 
ATOM     17  C   UNL     1       4.931   1.622  -1.555  0.00  0.00    +0.022 A 
ATOM     18  C   UNL     1       3.692   2.165  -1.272  0.00  0.00    +0.053 A 
ATOM     19 CL   UNL     1       2.260   1.468  -1.963  0.00  0.00    -0.083 Cl
ATOM     20 BR   UNL     1       7.553   4.025   0.574  0.00  0.00    -0.050 Br
ENDBRANCH  11  13
BRANCH  10  21
ATOM     21  C   UNL     1       0.848   5.768   0.392  0.00  0.00    +0.116 C 
BRANCH  21  22
ATOM     22  C   UNL     1       0.500   5.564   1.868  0.00  0.00    +0.047 C 
BRANCH  22  23
ATOM     23  C   UNL     1      -0.927   6.053   2.127  0.00  0.00    +0.161 C 
BRANCH  23  24
ATOM     24  O   UNL     1      -1.252   5.862   3.506  0.00  0.00    -0.383 OA
ATOM     25  C   UNL     1      -2.570   6.288   3.856  0.00  0.00    +0.193 C 
ENDBRANCH  23  24
ENDBRANCH  22  23
ENDBRANCH  21  22
ENDBRANCH  10  21
ENDBRANCH   3  10
BRANCH   2  26
ATOM     26  N   UNL     1       3.715   5.446  -2.191  0.00  0.00    -0.343 N 
ATOM     27  H   UNL     1       2.879   4.956  -2.226  0.00  0.00    +0.144 HD
ATOM     28  H   UNL     1       4.303   5.458  -2.963  0.00  0.00    +0.144 HD
ENDBRANCH   2  26
BRANCH   1  29
ATOM     29  C   UNL     1       5.996   7.070  -2.245  0.00  0.00    +0.131 C 
BRANCH  29  31
ATOM     30  C   UNL     1       6.396   8.463  -4.280  0.00  0.00    +0.009 C 
ATOM     31  C   UNL     1       5.472   8.239  -3.081  0.00  0.00    +0.003 C 
ATOM     32  C   UNL     1       4.061   7.919  -3.577  0.00  0.00    +0.009 C 
ENDBRANCH  29  31
ENDBRANCH   1  29
TORSDOF 9
