REMARK  Name = ZINC59966504
REMARK  11 active torsions:
REMARK  status: ('A' for Active; 'I' for Inactive)
REMARK    1  A    between atoms: C_1  and  C_2
REMARK    2  A    between atoms: C_2  and  C_4
REMARK    3  A    between atoms: C_2  and  N_14
REMARK    4  A    between atoms: C_15  and  C_17
REMARK    5  A    between atoms: C_17  and  N_30
REMARK    6  A    between atoms: C_23  and  O_25
REMARK    7  A    between atoms: O_25  and  C_26
REMARK    8  A    between atoms: C_26  and  C_27
REMARK    9  A    between atoms: C_26  and  C_28
REMARK   10  A    between atoms: C_26  and  C_29
REMARK   11  A    between atoms: N_30  and  C_31
REMARK                            x       y       z     vdW  Elec       q    Type
REMARK                         _______ _______ _______ _____ _____    ______ ____
ROOT
ATOM      1  C   UNL     1      -3.471  -1.279  -1.174  0.00  0.00    +0.111 C 
ATOM      2  C   UNL     1      -3.218  -2.784  -1.055  0.00  0.00    +0.054 C 
ATOM      3  C   UNL     1      -4.557  -3.511  -0.889  0.00  0.00    +0.113 C 
ATOM      4  N   UNL     1      -5.440  -3.133  -2.001  0.00  0.00    -0.267 N 
ATOM      5  C   UNL     1      -5.679  -1.707  -2.260  0.00  0.00    +0.113 C 
ATOM      6  C   UNL     1      -4.328  -1.000  -2.410  0.00  0.00    +0.054 C 
ATOM      7  C   UNL     1      -6.021  -4.077  -2.768  0.00  0.00    +0.403 C 
ATOM      8  O   UNL     1      -5.815  -5.254  -2.543  0.00  0.00    -0.226 OA
ENDROOT
BRANCH   1  10
ATOM      9  N   UNL     1      -1.461  -0.218  -0.197  0.00  0.00    -0.307 N 
ATOM     10  C   UNL     1      -2.154  -0.557  -1.302  0.00  0.00    +0.237 C 
ATOM     11  O   UNL     1      -1.718  -0.282  -2.400  0.00  0.00    -0.273 OA
ATOM     12  H   UNL     1      -1.842  -0.373   0.681  0.00  0.00    +0.149 HD
BRANCH   9  14
ATOM     13  C   UNL     1      -0.274   1.896  -0.520  0.00  0.00    +0.033 C 
ATOM     14  C   UNL     1      -0.132   0.385  -0.323  0.00  0.00    +0.100 C 
BRANCH  14  15
ATOM     15  C   UNL     1       0.663   0.115   0.928  0.00  0.00    -0.024 A 
ATOM     16  C   UNL     1       0.047   0.178   2.164  0.00  0.00    +0.009 A 
ATOM     17  C   UNL     1       0.773  -0.068   3.314  0.00  0.00    +0.050 A 
ATOM     18  C   UNL     1       2.122  -0.381   3.231  0.00  0.00    +0.162 A 
ATOM     19  C   UNL     1       2.740  -0.447   1.988  0.00  0.00    +0.162 A 
ATOM     20  C   UNL     1       2.005  -0.203   0.838  0.00  0.00    +0.055 A 
ATOM     21  O   UNL     1       4.061  -0.759   1.883  0.00  0.00    -0.485 OA
ATOM     22  C   UNL     1       4.848  -0.637   3.074  0.00  0.00    +0.270 C 
ATOM     23  C   UNL     1       4.078  -1.293   4.228  0.00  0.00    +0.270 C 
ATOM     24  O   UNL     1       2.824  -0.617   4.372  0.00  0.00    -0.485 OA
ENDBRANCH  14  15
ENDBRANCH   9  14
ENDBRANCH   1  10
BRANCH   1  25
ATOM     25  N   UNL     1      -4.172  -0.806   0.023  0.00  0.00    -0.330 N 
ATOM     26  H   UNL     1      -4.398  -1.429   0.731  0.00  0.00    +0.147 HD
BRANCH  25  27
ATOM     27  C   UNL     1      -4.514   0.543   0.144  0.00  0.00    +0.028 A 
ATOM     28  C   UNL     1      -4.061   1.463  -0.792  0.00  0.00    +0.023 A 
ATOM     29  C   UNL     1      -4.401   2.796  -0.669  0.00  0.00    +0.002 A 
ATOM     30  C   UNL     1      -5.192   3.214   0.385  0.00  0.00    +0.000 A 
ATOM     31  C   UNL     1      -5.646   2.301   1.319  0.00  0.00    +0.002 A 
ATOM     32  C   UNL     1      -5.313   0.966   1.199  0.00  0.00    +0.023 A 
ENDBRANCH  25  27
ENDBRANCH   1  25
BRANCH   7  33
ATOM     33  O   UNL     1      -6.828  -3.717  -3.783  0.00  0.00    -0.445 OA
BRANCH  33  34
ATOM     34  C   UNL     1      -7.409  -4.770  -4.555  0.00  0.00    +0.107 C 
ATOM     35  C   UNL     1      -8.262  -5.657  -3.646  0.00  0.00    +0.055 C 
ATOM     36  C   UNL     1      -8.289  -4.171  -5.654  0.00  0.00    +0.055 C 
ATOM     37  C   UNL     1      -6.299  -5.609  -5.190  0.00  0.00    +0.055 C 
ENDBRANCH  33  34
ENDBRANCH   7  33
TORSDOF 7
