REMARK  Name = ZINC39923303
REMARK  9 active torsions:
REMARK  status: ('A' for Active; 'I' for Inactive)
REMARK    1  A    between atoms: C_1  and  C_2
REMARK    2  A    between atoms: C_5  and  C_8
REMARK    3  A    between atoms: C_8  and  S_9
REMARK    4  A    between atoms: S_9  and  C_10
REMARK    5  A    between atoms: C_14  and  S_17
REMARK    6  A    between atoms: S_17  and  C_18
REMARK    7  A    between atoms: C_18  and  C_19
REMARK    8  A    between atoms: N_21  and  N_22
REMARK    9  A    between atoms: C_23  and  C_24
REMARK                            x       y       z     vdW  Elec       q    Type
REMARK                         _______ _______ _______ _____ _____    ______ ____
ROOT
ATOM      1  S   UNL     1      -1.918  -8.847   0.713  0.00  0.00    -0.121 S 
ENDROOT
BRANCH   1   5
ATOM      2  C   UNL     1       1.628  -6.666  -0.043  0.00  0.00    +0.187 C 
ATOM      3  N   UNL     1       0.788  -7.142  -1.185  0.00  0.00    -0.232 NA
ATOM      4  N   UNL     1       0.211  -8.446  -0.935  0.00  0.00    -0.232 NA
ATOM      5  C   UNL     1      -0.122  -8.739   0.479  0.00  0.00    +0.187 C 
ATOM      6  S   UNL     1       0.571  -7.267   1.350  0.00  0.00    -0.099 S 
ATOM      7  H   UNL     1       0.072  -6.468  -1.414  0.00  0.00    +0.143 HD
ATOM      8  H   UNL     1       0.784  -9.177  -1.330  0.00  0.00    +0.143 HD
BRANCH   2   9
ATOM      9  S   UNL     1       1.777  -4.858  -0.034  0.00  0.00    -0.125 S 
BRANCH   9  10
ATOM     10  C   UNL     1       0.059  -4.275  -0.021  0.00  0.00    +0.106 C 
BRANCH  10  15
ATOM     11  C   UNL     1      -0.018   1.503   0.010  0.00  0.00    +0.044 C 
ATOM     12  C   UNL     1       0.002  -0.004   0.002  0.00  0.00    -0.050 A 
ATOM     13  C   UNL     1       0.006  -0.689  -1.199  0.00  0.00    +0.003 A 
ATOM     14  C   UNL     1       0.025  -2.071  -1.206  0.00  0.00    +0.005 A 
ATOM     15  C   UNL     1       0.040  -2.768  -0.013  0.00  0.00    -0.037 A 
ATOM     16  C   UNL     1       0.037  -2.084   1.188  0.00  0.00    +0.005 A 
ATOM     17  C   UNL     1       0.023  -0.702   1.195  0.00  0.00    +0.003 A 
ENDBRANCH  10  15
ENDBRANCH   9  10
ENDBRANCH   2   9
ENDBRANCH   1   5
BRANCH   1  18
ATOM     18  C   UNL     1      -2.525  -7.213   0.211  0.00  0.00    +0.169 C 
BRANCH  18  19
ATOM     19  C   UNL     1      -4.024  -7.166   0.359  0.00  0.00    +0.242 C 
ATOM     20  O   UNL     1      -4.623  -8.139   0.763  0.00  0.00    -0.273 OA
ATOM     21  N   UNL     1      -4.697  -6.043   0.042  0.00  0.00    -0.206 N 
ATOM     22  H   UNL     1      -4.217  -5.264  -0.282  0.00  0.00    +0.177 HD
BRANCH  21  23
ATOM     23  N   UNL     1      -6.091  -5.999   0.179  0.00  0.00    -0.188 NA
ATOM     24  C   UNL     1      -6.745  -4.908  -0.129  0.00  0.00    +0.136 C 
BRANCH  24  25
ATOM     25  C   UNL     1      -8.140  -4.865   0.008  0.00  0.00    +0.000 C 
ATOM     26  C   UNL     1      -8.982  -3.793  -0.279  0.00  0.00    +0.004 A 
ATOM     27  C   UNL     1      -8.736  -2.490  -0.766  0.00  0.00    +0.010 A 
ATOM     28  C   UNL     1      -9.772  -1.635  -0.954  0.00  0.00    +0.001 A 
ATOM     29  C   UNL     1     -11.090  -2.009  -0.677  0.00  0.00    +0.002 A 
ATOM     30  C   UNL     1     -11.401  -3.241  -0.208  0.00  0.00    +0.026 A 
ATOM     31  C   UNL     1     -10.369  -4.192   0.015  0.00  0.00    +0.043 A 
ATOM     32  N   UNL     1     -10.408  -5.432   0.457  0.00  0.00    -0.380 N 
ATOM     33  C   UNL     1      -9.046  -5.975   0.493  0.00  0.00    +0.150 C 
ATOM     34  H   UNL     1     -11.210  -5.911   0.715  0.00  0.00    +0.160 HD
ENDBRANCH  24  25
ENDBRANCH  21  23
ENDBRANCH  18  19
ENDBRANCH   1  18
TORSDOF 8
