REMARK  Name = ZINC05920730
REMARK  6 active torsions:
REMARK  status: ('A' for Active; 'I' for Inactive)
REMARK    1  A    between atoms: C_1  and  C_2
REMARK    2  A    between atoms: C_8  and  N_10
REMARK    3  A    between atoms: C_11  and  C_13
REMARK    4  A    between atoms: C_13  and  C_14
REMARK    5  A    between atoms: C_17  and  N_23
REMARK    6  A    between atoms: C_19  and  N_20
REMARK                            x       y       z     vdW  Elec       q    Type
REMARK                         _______ _______ _______ _____ _____    ______ ____
ROOT
ATOM      1  C   UNL     1      -0.253   0.830   5.124  0.00  0.00    +0.133 C 
ENDROOT
BRANCH   1   2
ATOM      2  C   UNL     1       0.875   0.757   6.122  0.00  0.00    -0.008 A 
ATOM      3  C   UNL     1       0.909  -0.265   7.053  0.00  0.00    +0.008 A 
ATOM      4  C   UNL     1       1.942  -0.332   7.968  0.00  0.00    +0.033 A 
ATOM      5  C   UNL     1       2.943   0.623   7.951  0.00  0.00    +0.128 A 
ATOM      6  C   UNL     1       2.909   1.643   7.020  0.00  0.00    +0.065 A 
ATOM      7  C   UNL     1       1.878   1.707   6.102  0.00  0.00    +0.132 A 
BRANCH   7   8
ATOM      8  N   UNL     1       1.845   2.797   5.101  0.00  0.00    +0.057 N 
ATOM      9  O   UNL     1       2.659   3.689   5.151  0.00  0.00    -0.126 OA
ATOM     10  O   UNL     1       1.003   2.795   4.233  0.00  0.00    -0.126 OA
ENDBRANCH   7   8
BRANCH   5  11
ATOM     11  N   UNL     1       4.050   0.552   8.932  0.00  0.00    +0.056 N 
ATOM     12  O   UNL     1       4.079  -0.341   9.747  0.00  0.00    -0.126 OA
ATOM     13  O   UNL     1       4.924   1.386   8.917  0.00  0.00    -0.126 OA
ENDBRANCH   5  11
ENDBRANCH   1   2
BRANCH   1  15
ATOM     14  N   UNL     1      -0.631   0.252   2.749  0.00  0.00    -0.312 N 
ATOM     15  C   UNL     1       0.214   0.286   3.798  0.00  0.00    +0.218 C 
ATOM     16  O   UNL     1       1.350  -0.121   3.675  0.00  0.00    -0.275 OA
ATOM     17  H   UNL     1      -1.540   0.577   2.847  0.00  0.00    +0.149 HD
BRANCH  14  24
ATOM     18  C   UNL     1      -0.861   1.853   0.346  0.00  0.00    +0.009 C 
ATOM     19  C   UNL     1      -1.018   0.331   0.335  0.00  0.00    +0.006 C 
ATOM     20  C   UNL     1      -0.544  -0.221  -1.011  0.00  0.00    +0.005 C 
ATOM     21  C   UNL     1      -0.702  -1.743  -1.022  0.00  0.00    +0.000 C 
ATOM     22  C   UNL     1       0.139  -2.351   0.103  0.00  0.00    +0.002 C 
ATOM     23  C   UNL     1      -0.335  -1.799   1.449  0.00  0.00    +0.022 C 
ATOM     24  C   UNL     1      -0.177  -0.277   1.460  0.00  0.00    +0.076 C 
ENDBRANCH  14  24
ENDBRANCH   1  15
TORSDOF 5
