REMARK  Name = ZINC57892913
REMARK  6 active torsions:
REMARK  status: ('A' for Active; 'I' for Inactive)
REMARK    1  A    between atoms: C_1  and  C_2
REMARK    2  A    between atoms: C_5  and  C_16
REMARK    3  A    between atoms: C_7  and  N_8
REMARK    4  A    between atoms: C_9  and  C_11
REMARK    5  A    between atoms: N_18  and  C_19
REMARK    6  A    between atoms: C_19  and  C_20
REMARK                            x       y       z     vdW  Elec       q    Type
REMARK                         _______ _______ _______ _____ _____    ______ ____
ROOT
ATOM      1  C   UNL     1      -0.010   1.493   0.004  0.00  0.00    +0.045 C 
ATOM      2  C   UNL     1       0.015  -0.014   0.002  0.00  0.00    -0.029 A 
ATOM      3  C   UNL     1       0.027  -0.701  -1.198  0.00  0.00    +0.006 A 
ATOM      4  C   UNL     1       0.049  -2.081  -1.208  0.00  0.00    +0.013 A 
ATOM      5  C   UNL     1       0.060  -2.788  -0.003  0.00  0.00    +0.038 A 
ATOM      6  C   UNL     1       0.049  -2.095   1.207  0.00  0.00    +0.036 A 
ATOM      7  C   UNL     1       0.031  -0.708   1.206  0.00  0.00    +0.037 A 
ENDROOT
BRANCH   7   8
ATOM      8  N   UNL     1       0.025  -0.008   2.417  0.00  0.00    -0.279 N 
ATOM      9  C   UNL     1      -0.632  -0.509   3.481  0.00  0.00    +0.284 C 
ATOM     10  O   UNL     1      -1.151  -1.608   3.414  0.00  0.00    -0.266 OA
ATOM     11  H   UNL     1       0.494   0.838   2.490  0.00  0.00    +0.155 HD
BRANCH   9  12
ATOM     12  C   UNL     1      -0.723   0.270   4.720  0.00  0.00    +0.189 A 
ATOM     13  C   UNL     1      -1.351  -0.119   5.869  0.00  0.00    +0.054 A 
ATOM     14  C   UNL     1      -1.189   0.926   6.791  0.00  0.00    +0.042 A 
ATOM     15  C   UNL     1      -0.479   1.896   6.173  0.00  0.00    +0.196 A 
ATOM     16  O   UNL     1      -0.196   1.494   4.927  0.00  0.00    -0.458 OA
ENDBRANCH   9  12
ENDBRANCH   7   8
BRANCH   5  17
ATOM     17  C   UNL     1       0.084  -4.266  -0.011  0.00  0.00    +0.244 C 
ATOM     18  O   UNL     1       0.093  -4.879   1.038  0.00  0.00    -0.270 OA
ATOM     19  N   UNL     1       0.095  -4.934  -1.182  0.00  0.00    -0.311 N 
ATOM     20  H   UNL     1       0.087  -4.444  -2.019  0.00  0.00    +0.149 HD
BRANCH  19  21
ATOM     21  C   UNL     1       0.118  -6.398  -1.190  0.00  0.00    +0.111 C 
BRANCH  21  22
ATOM     22  C   UNL     1       0.126  -6.901  -2.635  0.00  0.00    +0.048 C 
ATOM     23  C   UNL     1       0.262  -8.425  -2.651  0.00  0.00    +0.047 C 
ATOM     24  C   UNL     1      -0.025  -8.946  -4.036  0.00  0.00    -0.005 A 
ATOM     25  C   UNL     1       0.397 -10.223  -4.368  0.00  0.00    +0.007 A 
ATOM     26  C   UNL     1       0.148 -10.734  -5.627  0.00  0.00    +0.000 A 
ATOM     27  C   UNL     1      -0.526  -9.970  -6.562  0.00  0.00    +0.004 A 
ATOM     28  C   UNL     1      -0.948  -8.697  -6.237  0.00  0.00    +0.046 A 
ATOM     29  C   UNL     1      -0.697  -8.178  -4.970  0.00  0.00    +0.124 A 
ATOM     30  O   UNL     1      -1.118  -6.917  -4.691  0.00  0.00    -0.491 OA
ATOM     31  C   UNL     1      -1.195  -6.527  -3.320  0.00  0.00    +0.234 C 
ENDBRANCH  21  22
ENDBRANCH  19  21
ENDBRANCH   5  17
TORSDOF 5
