REMARK  Name = ZINC19461719
REMARK  6 active torsions:
REMARK  status: ('A' for Active; 'I' for Inactive)
REMARK    1  A    between atoms: C_1  and  C_2
REMARK    2  A    between atoms: C_2  and  C_27
REMARK    3  A    between atoms: C_8  and  C_20
REMARK    4  A    between atoms: C_16  and  C_18
REMARK    5  A    between atoms: C_16  and  C_19
REMARK    6  A    between atoms: C_20  and  C_21
REMARK                            x       y       z     vdW  Elec       q    Type
REMARK                         _______ _______ _______ _____ _____    ______ ____
ROOT
ATOM      1  C   UNL     1       0.005   7.251  -2.151  0.00  0.00    +0.028 C 
ATOM      2  C   UNL     1       0.189   7.573  -0.665  0.00  0.00    +0.018 C 
ATOM      3  C   UNL     1       0.738   6.337   0.055  0.00  0.00    +0.058 C 
ATOM      4  C   UNL     1      -0.358   5.275   0.051  0.00  0.00    -0.021 A 
ATOM      5  C   UNL     1      -0.106   3.842   0.030  0.00  0.00    +0.055 A 
ATOM      6  C   UNL     1       1.182   3.120   0.006  0.00  0.00    +0.168 A 
ATOM      7  N   UNL     1       2.441   3.511  -0.011  0.00  0.00    -0.210 NA
ATOM      8  C   UNL     1       3.236   2.446  -0.023  0.00  0.00    +0.156 A 
ATOM      9  N   UNL     1       2.510   1.355  -0.014  0.00  0.00    -0.148 NA
ATOM     10  N   UNL     1       1.165   1.755   0.000  0.00  0.00    -0.201 N 
ATOM     11  C   UNL     1      -0.013   1.076   0.008  0.00  0.00    +0.226 A 
ATOM     12  N   UNL     1      -1.160   1.696   0.017  0.00  0.00    -0.228 NA
ATOM     13  C   UNL     1      -1.247   3.021   0.033  0.00  0.00    +0.114 A 
ATOM     14  S   UNL     1      -2.591   4.180   0.057  0.00  0.00    -0.071 S 
ATOM     15  C   UNL     1      -1.648   5.680   0.067  0.00  0.00    +0.015 A 
ATOM     16  C   UNL     1      -2.142   7.091   0.092  0.00  0.00    +0.046 C 
ATOM     17  N   UNL     1      -1.051   8.045  -0.073  0.00  0.00    -0.301 NA
ATOM     18  C   UNL     1      -3.194   7.283  -1.010  0.00  0.00    +0.033 C 
ATOM     19  C   UNL     1      -2.827   7.342   1.449  0.00  0.00    +0.033 C 
ATOM     20  C   UNL     1       1.243   8.690  -0.552  0.00  0.00    +0.028 C 
ATOM     21  H   UNL     1      -0.852   8.427   0.939  0.00  0.00    +0.123 HD
ENDROOT
BRANCH   8  22
ATOM     22  C   UNL     1       4.743   2.486  -0.042  0.00  0.00    +0.113 C 
BRANCH  22  23
ATOM     23  C   UNL     1       5.226   2.499  -1.469  0.00  0.00    -0.040 A 
ATOM     24  C   UNL     1       5.485   1.308  -2.122  0.00  0.00    +0.004 A 
ATOM     25  C   UNL     1       5.924   1.320  -3.433  0.00  0.00    +0.000 A 
ATOM     26  C   UNL     1       6.115   2.523  -4.087  0.00  0.00    +0.000 A 
ATOM     27  C   UNL     1       5.861   3.714  -3.432  0.00  0.00    +0.000 A 
ATOM     28  C   UNL     1       5.417   3.702  -2.123  0.00  0.00    +0.004 A 
ENDBRANCH  22  23
ENDBRANCH   8  22
TORSDOF 2
