REMARK  Name = ZINC37359339
REMARK  2 active torsions:
REMARK  status: ('A' for Active; 'I' for Inactive)
REMARK    1  A    between atoms: C_4  and  C_8
REMARK    2  A    between atoms: C_8  and  C_10
REMARK                            x       y       z     vdW  Elec       q    Type
REMARK                         _______ _______ _______ _____ _____    ______ ____
ROOT
ATOM      1  C   UNL     1       3.725  -2.154   0.065  0.00  0.00    +0.024 A 
ATOM      2  C   UNL     1       2.528  -2.879   0.068  0.00  0.00    +0.014 A 
ATOM      3  C   UNL     1       2.548  -4.242   0.164  0.00  0.00    +0.028 A 
ATOM      4  C   UNL     1       3.759  -4.918   0.258  0.00  0.00    +0.067 A 
ATOM      5  C   UNL     1       4.962  -4.204   0.256  0.00  0.00    +0.067 A 
ATOM      6  C   UNL     1       4.947  -2.826   0.154  0.00  0.00    +0.039 A 
ATOM      7  N   UNL     1       5.986  -5.143   0.362  0.00  0.00    -0.306 N 
ATOM      8  H   UNL     1       6.936  -4.948   0.386  0.00  0.00    +0.170 HD
ATOM      9  C   UNL     1       5.430  -6.368   0.425  0.00  0.00    +0.325 A 
ATOM     10  O   UNL     1       6.046  -7.413   0.523  0.00  0.00    -0.247 OA
ATOM     11  N   UNL     1       4.090  -6.262   0.365  0.00  0.00    -0.306 N 
ATOM     12  H   UNL     1       3.461  -7.000   0.392  0.00  0.00    +0.170 HD
ENDROOT
BRANCH   1  13
ATOM     13  C   UNL     1       3.697  -0.683  -0.038  0.00  0.00    +0.196 C 
ATOM     14  O   UNL     1       4.737  -0.060  -0.138  0.00  0.00    -0.287 OA
BRANCH  13  18
ATOM     15  C   UNL     1      -0.016   1.381   0.013  0.00  0.00    +0.003 A 
ATOM     16  C   UNL     1       0.598   1.040   1.205  0.00  0.00    +0.021 A 
ATOM     17  C   UNL     1       1.805   0.369   1.197  0.00  0.00    +0.053 A 
ATOM     18  C   UNL     1       2.406   0.034  -0.021  0.00  0.00    +0.059 A 
ATOM     19  C   UNL     1       1.779   0.382  -1.221  0.00  0.00    +0.053 A 
ATOM     20  C   UNL     1       0.572   1.052  -1.196  0.00  0.00    +0.021 A 
ATOM     21 CL   UNL     1       2.515  -0.029  -2.739  0.00  0.00    -0.083 Cl
ATOM     22 CL   UNL     1       2.575  -0.056   2.694  0.00  0.00    -0.083 Cl
ENDBRANCH  13  18
ENDBRANCH   1  13
TORSDOF 2
