REMARK  Name = ZINC33070922
REMARK  5 active torsions:
REMARK  status: ('A' for Active; 'I' for Inactive)
REMARK    1  A    between atoms: C_1  and  C_2
REMARK    2  A    between atoms: C_15  and  C_18
REMARK    3  A    between atoms: N_20  and  C_21
REMARK    4  A    between atoms: C_21  and  C_23
REMARK    5  A    between atoms: C_21  and  C_24
REMARK                            x       y       z     vdW  Elec       q    Type
REMARK                         _______ _______ _______ _____ _____    ______ ____
ROOT
ATOM      1  C   UNL     1     -11.193   2.962  10.813  0.00  0.00    +0.044 C 
ATOM      2  C   UNL     1     -10.947   2.295   9.484  0.00  0.00    -0.048 A 
ATOM      3  C   UNL     1     -12.022   1.925   8.690  0.00  0.00    +0.005 A 
ATOM      4  C   UNL     1     -11.814   1.316   7.473  0.00  0.00    +0.028 A 
ATOM      5  C   UNL     1     -10.511   1.067   7.034  0.00  0.00    +0.065 A 
ATOM      6  C   UNL     1      -9.426   1.444   7.843  0.00  0.00    +0.066 A 
ATOM      7  C   UNL     1      -9.654   2.057   9.066  0.00  0.00    +0.031 A 
ATOM      8  N   UNL     1      -8.284   1.075   7.151  0.00  0.00    -0.327 N 
ATOM      9  H   UNL     1      -7.292   1.267   7.585  0.00  0.00    +0.169 HD
ATOM     10  C   UNL     1      -8.688   0.502   5.979  0.00  0.00    +0.174 A 
ATOM     11  N   UNL     1      -9.996   0.504   5.910  0.00  0.00    -0.327 N 
ATOM     12  N   UNL     1      -7.844   0.001   5.011  0.00  0.00    -0.303 N 
ATOM     13  C   UNL     1      -8.606  -0.543   3.879  0.00  0.00    +0.108 C 
ATOM     14  C   UNL     1      -7.648  -1.218   2.895  0.00  0.00    +0.032 C 
ATOM     15  C   UNL     1      -6.626  -0.191   2.399  0.00  0.00    +0.078 C 
ATOM     16  C   UNL     1      -5.880   0.396   3.601  0.00  0.00    +0.032 C 
ATOM     17  C   UNL     1      -6.889   1.024   4.565  0.00  0.00    +0.108 C 
ATOM     18  H   UNL     1     -10.668   0.136   5.121  0.00  0.00    +0.169 HD
ENDROOT
BRANCH  15  19
ATOM     19  C   UNL     1      -5.643  -0.864   1.476  0.00  0.00    +0.217 C 
ATOM     20  O   UNL     1      -5.749  -2.048   1.237  0.00  0.00    -0.275 OA
ATOM     21  N   UNL     1      -4.647  -0.149   0.915  0.00  0.00    -0.309 N 
ATOM     22  H   UNL     1      -4.552   0.925   1.132  0.00  0.00    +0.149 HD
BRANCH  21  23
ATOM     23  C   UNL     1      -3.692  -0.803   0.018  0.00  0.00    +0.100 C 
ATOM     24  C   UNL     1      -4.266  -0.838  -1.400  0.00  0.00    +0.033 C 
BRANCH  23  25
ATOM     25  C   UNL     1      -2.397  -0.033   0.016  0.00  0.00    -0.024 A 
ATOM     26  C   UNL     1      -2.415   1.349   0.026  0.00  0.00    +0.009 A 
ATOM     27  C   UNL     1      -1.229   2.059   0.019  0.00  0.00    +0.050 A 
ATOM     28  C   UNL     1      -0.017   1.385   0.010  0.00  0.00    +0.162 A 
ATOM     29  C   UNL     1       0.002  -0.004   0.002  0.00  0.00    +0.162 A 
ATOM     30  C   UNL     1      -1.192  -0.710   0.004  0.00  0.00    +0.055 A 
ATOM     31  O   UNL     1       1.181  -0.685  -0.007  0.00  0.00    -0.485 OA
ATOM     32  C   UNL     1       2.347   0.053  -0.387  0.00  0.00    +0.270 C 
ATOM     33  C   UNL     1       2.334   1.392   0.364  0.00  0.00    +0.270 C 
ATOM     34  O   UNL     1       1.143   2.098   0.002  0.00  0.00    -0.485 OA
ENDBRANCH  23  25
ENDBRANCH  21  23
ENDBRANCH  15  19
TORSDOF 3
