REMARK  Name = ZINC02344485
REMARK  4 active torsions:
REMARK  status: ('A' for Active; 'I' for Inactive)
REMARK    1  A    between atoms: C_9  and  C_12
REMARK    2  A    between atoms: N_14  and  N_15
REMARK    3  A    between atoms: C_16  and  C_17
REMARK    4  A    between atoms: C_20  and  C_22
REMARK                            x       y       z     vdW  Elec       q    Type
REMARK                         _______ _______ _______ _____ _____    ______ ____
ROOT
ATOM      1  N   UNL     1       6.355  -4.522  -0.120  0.00  0.00    -0.185 NA
ATOM      2  C   UNL     1       6.591  -5.763   0.192  0.00  0.00    +0.176 C 
ENDROOT
BRANCH   2   3
ATOM      3  C   UNL     1       7.858  -6.387  -0.196  0.00  0.00    +0.148 A 
ATOM      4  C   UNL     1       8.232  -7.687   0.063  0.00  0.00    +0.051 A 
ATOM      5  C   UNL     1       9.511  -7.856  -0.482  0.00  0.00    +0.050 A 
ATOM      6  C   UNL     1       9.866  -6.668  -1.048  0.00  0.00    +0.137 A 
ATOM      7  O   UNL     1       8.859  -5.790  -0.874  0.00  0.00    -0.454 OA
BRANCH   6   8
ATOM      8  C   UNL     1      11.139  -6.390  -1.740  0.00  0.00    +0.037 A 
ATOM      9  C   UNL     1      12.354  -6.723  -1.136  0.00  0.00    +0.033 A 
ATOM     10  C   UNL     1      13.541  -6.461  -1.790  0.00  0.00    +0.042 A 
ATOM     11  C   UNL     1      13.530  -5.868  -3.042  0.00  0.00    +0.021 A 
ATOM     12  C   UNL     1      12.331  -5.535  -3.646  0.00  0.00    +0.022 A 
ATOM     13  C   UNL     1      11.135  -5.797  -3.006  0.00  0.00    +0.052 A 
ATOM     14 CL   UNL     1       9.632  -5.386  -3.770  0.00  0.00    -0.083 Cl
ATOM     15 CL   UNL     1      15.051  -6.874  -1.041  0.00  0.00    -0.084 Cl
ENDBRANCH   6   8
ENDBRANCH   2   3
BRANCH   1  18
ATOM     16  C   UNL     1       4.898  -2.639  -0.071  0.00  0.00    +0.276 C 
ATOM     17  O   UNL     1       5.728  -1.999  -0.682  0.00  0.00    -0.270 OA
ATOM     18  N   UNL     1       5.143  -3.925   0.251  0.00  0.00    -0.204 N 
ATOM     19  H   UNL     1       4.479  -4.437   0.740  0.00  0.00    +0.177 HD
BRANCH  16  28
ATOM     20  C   UNL     1      -0.017   1.378   0.010  0.00  0.00    +0.004 A 
ATOM     21  C   UNL     1       1.170   2.088   0.002  0.00  0.00    +0.004 A 
ATOM     22  C   UNL     1       2.378   1.418  -0.014  0.00  0.00    +0.049 A 
ATOM     23  C   UNL     1       2.404   0.031  -0.023  0.00  0.00    +0.163 A 
ATOM     24  C   UNL     1       1.212  -0.683  -0.013  0.00  0.00    +0.162 A 
ATOM     25  C   UNL     1       0.002  -0.004   0.002  0.00  0.00    +0.049 A 
ATOM     26  O   UNL     1       1.214  -2.044  -0.013  0.00  0.00    -0.484 OA
ATOM     27  C   UNL     1       2.434  -2.685  -0.404  0.00  0.00    +0.283 C 
ATOM     28  C   UNL     1       3.594  -1.997   0.328  0.00  0.00    +0.297 C 
ATOM     29  O   UNL     1       3.602  -0.615  -0.043  0.00  0.00    -0.472 OA
ENDBRANCH  16  28
ENDBRANCH   1  18
TORSDOF 4
