REMARK  Name = ZINC63194760
REMARK  5 active torsions:
REMARK  status: ('A' for Active; 'I' for Inactive)
REMARK    1  A    between atoms: C_7  and  C_10
REMARK    2  A    between atoms: C_10  and  C_12
REMARK    3  A    between atoms: C_10  and  C_28
REMARK    4  A    between atoms: C_12  and  N_13
REMARK    5  A    between atoms: C_14  and  C_16
REMARK                            x       y       z     vdW  Elec       q    Type
REMARK                         _______ _______ _______ _____ _____    ______ ____
ROOT
ATOM      1  C   UNL     1       0.691  -3.186  -0.024  0.00  0.00    +0.066 C 
ENDROOT
BRANCH   1   8
ATOM      2  C   UNL     1      -0.016   1.348   0.009  0.00  0.00    +0.001 A 
ATOM      3  C   UNL     1       1.166   2.101   0.002  0.00  0.00    +0.002 A 
ATOM      4  C   UNL     1       2.391   1.535  -0.013  0.00  0.00    +0.026 A 
ATOM      5  C   UNL     1       2.529   0.120  -0.022  0.00  0.00    +0.043 A 
ATOM      6  N   UNL     1       3.587  -0.654  -0.037  0.00  0.00    -0.380 N 
ATOM      7  C   UNL     1       3.143  -2.053  -0.041  0.00  0.00    +0.145 C 
ATOM      8  C   UNL     1       1.631  -2.008  -0.025  0.00  0.00    -0.033 C 
ATOM      9  C   UNL     1       1.295  -0.698  -0.014  0.00  0.00    -0.000 A 
ATOM     10  C   UNL     1       0.002  -0.004   0.002  0.00  0.00    +0.010 A 
ATOM     11  H   UNL     1       4.509  -0.353  -0.045  0.00  0.00    +0.160 HD
ENDBRANCH   1   8
BRANCH   1  12
ATOM     12  C   UNL     1       0.920  -4.014  -1.262  0.00  0.00    -0.020 A 
ATOM     13  C   UNL     1       2.158  -4.583  -1.493  0.00  0.00    +0.006 A 
ATOM     14  C   UNL     1       2.369  -5.342  -2.629  0.00  0.00    +0.000 A 
ATOM     15  C   UNL     1       1.341  -5.534  -3.534  0.00  0.00    +0.001 A 
ATOM     16  C   UNL     1       0.103  -4.965  -3.303  0.00  0.00    +0.020 A 
ATOM     17  C   UNL     1      -0.110  -4.210  -2.164  0.00  0.00    +0.045 A 
ATOM     18 CL   UNL     1      -1.668  -3.501  -1.871  0.00  0.00    -0.083 Cl
ENDBRANCH   1  12
BRANCH   1  19
ATOM     19  C   UNL     1       0.947  -4.042   1.218  0.00  0.00    +0.117 C 
BRANCH  19  20
ATOM     20  N   UNL     1      -0.044  -5.118   1.282  0.00  0.00    -0.310 N 
ATOM     21  C   UNL     1      -0.013  -6.003   2.298  0.00  0.00    +0.245 C 
ATOM     22  O   UNL     1       0.838  -5.908   3.162  0.00  0.00    -0.270 OA
ATOM     23  H   UNL     1      -0.723  -5.194   0.593  0.00  0.00    +0.149 HD
BRANCH  21  24
ATOM     24  C   UNL     1      -1.011  -7.085   2.363  0.00  0.00    +0.051 C 
ATOM     25  C   UNL     1      -0.993  -7.990   3.396  0.00  0.00    +0.089 C 
ATOM     26  N   UNL     1      -1.901  -8.998   3.476  0.00  0.00    -0.288 N 
ATOM     27  C   UNL     1      -1.714  -9.932   4.592  0.00  0.00    +0.136 C 
ATOM     28  C   UNL     1      -3.068 -10.373   5.155  0.00  0.00    +0.212 C 
ATOM     29  S   UNL     1      -3.996 -11.124   3.781  0.00  0.00    +0.073 S 
ATOM     30  O   UNL     1      -5.382 -11.181   4.091  0.00  0.00    -0.151 OA
ATOM     31  O   UNL     1      -3.312 -12.267   3.287  0.00  0.00    -0.151 OA
ATOM     32  N   UNL     1      -3.870  -9.993   2.581  0.00  0.00    -0.118 NA
ATOM     33  C   UNL     1      -2.901  -9.107   2.549  0.00  0.00    +0.147 C 
ATOM     34  C   UNL     1      -2.945  -8.206   1.441  0.00  0.00    +0.046 C 
ATOM     35  C   UNL     1      -2.041  -7.211   1.330  0.00  0.00    +0.018 C 
ENDBRANCH  21  24
ENDBRANCH  19  20
ENDBRANCH   1  19
TORSDOF 5
