REMARK  Name = ZINC63490347
REMARK  8 active torsions:
REMARK  status: ('A' for Active; 'I' for Inactive)
REMARK    1  A    between atoms: C_1  and  C_2
REMARK    2  A    between atoms: C_3  and  C_17
REMARK    3  A    between atoms: C_4  and  C_16
REMARK    4  A    between atoms: C_17  and  C_18
REMARK    5  A    between atoms: C_18  and  C_19
REMARK    6  A    between atoms: N_21  and  C_22
REMARK    7  A    between atoms: C_22  and  C_23
REMARK    8  A    between atoms: C_23  and  C_24
REMARK                            x       y       z     vdW  Elec       q    Type
REMARK                         _______ _______ _______ _____ _____    ______ ____
ROOT
ATOM      1  C   UNL     1       0.003  -0.028  -2.485  0.00  0.00    +0.047 C 
ENDROOT
BRANCH   1   4
ATOM      2  C   UNL     1      -0.018   1.503   0.010  0.00  0.00    +0.062 C 
ATOM      3  C   UNL     1       0.002  -0.004   0.002  0.00  0.00    +0.030 C 
ATOM      4  C   UNL     1       0.007  -0.728  -1.150  0.00  0.00    -0.008 C 
ATOM      5  C   UNL     1       0.015  -2.138  -1.087  0.00  0.00    +0.040 C 
ATOM      6  N   UNL     1      -0.236  -2.802   0.001  0.00  0.00    -0.259 NA
ATOM      7  C   UNL     1      -0.583  -2.098   1.236  0.00  0.00    +0.243 C 
ATOM      8  N   UNL     1       0.023  -0.746   1.155  0.00  0.00    -0.227 N 
ATOM      9  N   UNL     1       0.614  -0.485   2.388  0.00  0.00    -0.246 N 
ATOM     10  C   UNL     1       0.787  -1.668   3.081  0.00  0.00    +0.142 A 
ATOM     11  C   UNL     1       0.060  -2.710   2.438  0.00  0.00    +0.037 A 
ATOM     12  C   UNL     1       0.049  -4.002   2.922  0.00  0.00    +0.012 A 
ATOM     13  C   UNL     1       0.771  -4.208   4.100  0.00  0.00    +0.020 A 
ATOM     14  C   UNL     1       1.433  -3.163   4.705  0.00  0.00    +0.113 A 
ATOM     15  N   UNL     1       1.466  -1.901   4.201  0.00  0.00    -0.239 NA
ATOM     16  C   UNL     1       0.329  -2.910  -2.342  0.00  0.00    +0.065 C 
ATOM     17  H   UNL     1       0.867   0.394   2.711  0.00  0.00    +0.172 HD
ENDBRANCH   1   4
BRANCH   1  18
ATOM     18  C   UNL     1       1.440   0.105  -2.994  0.00  0.00    +0.100 C 
BRANCH  18  19
ATOM     19  C   UNL     1       1.436   0.805  -4.329  0.00  0.00    +0.213 C 
ATOM     20  O   UNL     1       0.388   1.161  -4.824  0.00  0.00    -0.276 OA
ATOM     21  N   UNL     1       2.598   1.034  -4.973  0.00  0.00    -0.315 N 
ATOM     22  H   UNL     1       3.436   0.749  -4.577  0.00  0.00    +0.149 HD
BRANCH  21  23
ATOM     23  C   UNL     1       2.594   1.714  -6.270  0.00  0.00    +0.108 C 
BRANCH  23  24
ATOM     24  C   UNL     1       4.031   1.847  -6.780  0.00  0.00    +0.052 C 
BRANCH  24  25
ATOM     25  C   UNL     1       4.027   2.547  -8.115  0.00  0.00    -0.040 C 
ATOM     26  C   UNL     1       4.213   3.867  -8.342  0.00  0.00    -0.001 A 
ATOM     27  C   UNL     1       4.462   5.004  -7.448  0.00  0.00    +0.010 A 
ATOM     28  C   UNL     1       4.608   6.238  -7.981  0.00  0.00    +0.001 A 
ATOM     29  C   UNL     1       4.526   6.458  -9.363  0.00  0.00    +0.002 A 
ATOM     30  C   UNL     1       4.299   5.464 -10.248  0.00  0.00    +0.026 A 
ATOM     31  C   UNL     1       4.131   4.126  -9.797  0.00  0.00    +0.043 A 
ATOM     32  N   UNL     1       3.904   3.009 -10.445  0.00  0.00    -0.380 N 
ATOM     33  C   UNL     1       3.822   1.913  -9.473  0.00  0.00    +0.144 C 
ATOM     34  H   UNL     1       3.811   2.921 -11.406  0.00  0.00    +0.160 HD
ENDBRANCH  24  25
ENDBRANCH  23  24
ENDBRANCH  21  23
ENDBRANCH  18  19
ENDBRANCH   1  18
TORSDOF 6
