REMARK  Name = ZINC63541296
REMARK  8 active torsions:
REMARK  status: ('A' for Active; 'I' for Inactive)
REMARK    1  A    between atoms: C_1  and  C_2
REMARK    2  A    between atoms: C_4  and  N_8
REMARK    3  A    between atoms: C_9  and  C_11
REMARK    4  A    between atoms: C_11  and  S_12
REMARK    5  A    between atoms: S_12  and  C_13
REMARK    6  A    between atoms: N_24  and  C_25
REMARK    7  A    between atoms: C_25  and  C_26
REMARK    8  A    between atoms: C_26  and  C_27
REMARK                            x       y       z     vdW  Elec       q    Type
REMARK                         _______ _______ _______ _____ _____    ______ ____
ROOT
ATOM      1  C   UNL     1      -2.860  -7.353   3.444  0.00  0.00    +0.223 C 
ATOM      2  N   UNL     1      -1.692  -7.397   4.330  0.00  0.00    -0.300 N 
ATOM      3  C   UNL     1      -1.288  -6.234   4.962  0.00  0.00    +0.151 A 
ATOM      4  C   UNL     1      -2.264  -5.267   5.266  0.00  0.00    +0.165 A 
ATOM      5  N   UNL     1      -1.916  -4.153   5.894  0.00  0.00    -0.246 NA
ATOM      6  C   UNL     1      -0.652  -3.953   6.217  0.00  0.00    +0.131 A 
ATOM      7  C   UNL     1       0.312  -4.900   5.904  0.00  0.00    +0.132 A 
ATOM      8  N   UNL     1      -0.023  -6.019   5.284  0.00  0.00    -0.237 NA
ATOM      9  C   UNL     1      -3.660  -5.521   4.858  0.00  0.00    +0.270 C 
ATOM     10  O   UNL     1      -4.554  -4.792   5.240  0.00  0.00    -0.268 OA
ATOM     11  N   UNL     1      -3.931  -6.568   4.058  0.00  0.00    -0.268 N 
ATOM     12  H   UNL     1      -1.210  -8.228   4.470  0.00  0.00    +0.150 HD
ENDROOT
BRANCH   1  13
ATOM     13  S   UNL     1      -2.389  -6.593   1.865  0.00  0.00    -0.110 S 
BRANCH  13  14
ATOM     14  C   UNL     1      -1.828  -4.931   2.329  0.00  0.00    +0.168 C 
BRANCH  14  16
ATOM     15  N   UNL     1      -0.946  -2.918   1.194  0.00  0.00    -0.288 N 
ATOM     16  C   UNL     1      -1.402  -4.182   1.093  0.00  0.00    +0.225 C 
ATOM     17  O   UNL     1      -1.470  -4.717   0.006  0.00  0.00    -0.275 OA
ATOM     18  H   UNL     1      -0.891  -2.491   2.063  0.00  0.00    +0.151 HD
BRANCH  15  22
ATOM     19  C   UNL     1      -0.018   1.503   0.010  0.00  0.00    +0.067 C 
ATOM     20  C   UNL     1       0.002  -0.004   0.002  0.00  0.00    +0.060 C 
ATOM     21  C   UNL     1      -1.086  -0.777   0.003  0.00  0.00    +0.045 C 
ATOM     22  C   UNL     1      -0.531  -2.190  -0.007  0.00  0.00    +0.239 C 
ATOM     23  N   UNL     1       0.926  -1.973  -0.013  0.00  0.00    -0.160 NA
ATOM     24  N   UNL     1       1.125  -0.756  -0.013  0.00  0.00    -0.157 NA
ENDBRANCH  15  22
ENDBRANCH  14  16
ENDBRANCH  13  14
ENDBRANCH   1  13
BRANCH  11  25
ATOM     25  C   UNL     1      -5.327  -6.926   3.798  0.00  0.00    +0.115 C 
BRANCH  25  26
ATOM     26  C   UNL     1      -5.801  -7.930   4.851  0.00  0.00    +0.052 C 
BRANCH  26  27
ATOM     27  C   UNL     1      -7.238  -8.298   4.584  0.00  0.00    -0.040 C 
ATOM     28  C   UNL     1      -7.687  -9.370   3.891  0.00  0.00    -0.001 A 
ATOM     29  C   UNL     1      -6.999 -10.470   3.205  0.00  0.00    +0.010 A 
ATOM     30  C   UNL     1      -7.736 -11.418   2.583  0.00  0.00    +0.001 A 
ATOM     31  C   UNL     1      -9.137 -11.377   2.578  0.00  0.00    +0.002 A 
ATOM     32  C   UNL     1      -9.840 -10.398   3.186  0.00  0.00    +0.026 A 
ATOM     33  C   UNL     1      -9.167  -9.349   3.871  0.00  0.00    +0.043 A 
ATOM     34  N   UNL     1      -9.616  -8.306   4.526  0.00  0.00    -0.380 N 
ATOM     35  C   UNL     1      -8.469  -7.549   5.041  0.00  0.00    +0.144 C 
ATOM     36  H   UNL     1     -10.549  -8.075   4.652  0.00  0.00    +0.160 HD
ENDBRANCH  26  27
ENDBRANCH  25  26
ENDBRANCH  11  25
TORSDOF 7
