REMARK  Name = ZINC63137125
REMARK  10 active torsions:
REMARK  status: ('A' for Active; 'I' for Inactive)
REMARK    1  A    between atoms: C_1  and  O_2
REMARK    2  A    between atoms: O_2  and  C_3
REMARK    3  A    between atoms: C_6  and  C_9
REMARK    4  A    between atoms: C_9  and  C_10
REMARK    5  A    between atoms: C_10  and  N_11
REMARK    6  A    between atoms: C_31  and  C_33
REMARK    7  A    between atoms: C_37  and  O_41
REMARK    8  A    between atoms: C_38  and  O_39
REMARK    9  A    between atoms: O_39  and  C_40
REMARK   10  A    between atoms: O_41  and  C_42
REMARK                            x       y       z     vdW  Elec       q    Type
REMARK                         _______ _______ _______ _____ _____    ______ ____
ROOT
ATOM      1  N   UNL     1       4.636  -3.373  -5.207  0.00  0.00    -0.291 N 
ATOM      2  C   UNL     1       4.705  -4.841  -5.325  0.00  0.00    +0.203 C 
ATOM      3  C   UNL     1       4.326  -5.227  -6.739  0.00  0.00    +0.234 C 
ATOM      4  O   UNL     1       3.578  -6.155  -6.965  0.00  0.00    -0.274 OA
ATOM      5  N   UNL     1       4.869  -4.478  -7.754  0.00  0.00    -0.279 N 
ATOM      6  C   UNL     1       5.806  -3.455  -7.340  0.00  0.00    +0.167 C 
ATOM      7  C   UNL     1       5.205  -2.649  -6.216  0.00  0.00    +0.237 C 
ATOM      8  O   UNL     1       5.229  -1.436  -6.207  0.00  0.00    -0.274 OA
ATOM      9  C   UNL     1       6.429  -2.584  -8.399  0.00  0.00    +0.065 C 
ATOM     10  C   UNL     1       5.752  -2.823  -9.721  0.00  0.00    -0.034 C 
ATOM     11  C   UNL     1       5.377  -1.999 -10.690  0.00  0.00    -0.001 A 
ATOM     12  C   UNL     1       5.523  -0.543 -10.851  0.00  0.00    +0.010 A 
ATOM     13  C   UNL     1       5.003  -0.009 -11.987  0.00  0.00    +0.001 A 
ATOM     14  C   UNL     1       4.358  -0.769 -12.969  0.00  0.00    +0.002 A 
ATOM     15  C   UNL     1       4.182  -2.113 -12.905  0.00  0.00    +0.026 A 
ATOM     16  C   UNL     1       4.691  -2.788 -11.758  0.00  0.00    +0.043 A 
ATOM     17  N   UNL     1       4.672  -4.050 -11.449  0.00  0.00    -0.375 N 
ATOM     18  C   UNL     1       5.361  -4.231 -10.165  0.00  0.00    +0.131 C 
ATOM     19  C   UNL     1       4.408  -4.763  -9.105  0.00  0.00    +0.137 C 
ATOM     20  H   UNL     1       4.268  -4.755 -11.978  0.00  0.00    +0.160 HD
ENDROOT
BRANCH  19  21
ATOM     21  C   UNL     1       3.075  -4.093  -9.320  0.00  0.00    +0.021 A 
ATOM     22  C   UNL     1       2.734  -2.977  -8.578  0.00  0.00    +0.009 A 
ATOM     23  C   UNL     1       1.513  -2.360  -8.773  0.00  0.00    +0.004 A 
ATOM     24  C   UNL     1       0.625  -2.858  -9.709  0.00  0.00    +0.049 A 
ATOM     25  C   UNL     1       0.960  -3.976 -10.456  0.00  0.00    +0.162 A 
ATOM     26  C   UNL     1       2.193  -4.593 -10.264  0.00  0.00    +0.166 A 
BRANCH  26  27
ATOM     27  O   UNL     1       2.528  -5.687 -10.998  0.00  0.00    -0.491 OA
ATOM     28  C   UNL     1       2.168  -6.962 -10.464  0.00  0.00    +0.277 C 
ENDBRANCH  26  27
BRANCH  25  29
ATOM     29  O   UNL     1       0.088  -4.466 -11.377  0.00  0.00    -0.491 OA
ATOM     30  C   UNL     1      -1.156  -3.778 -11.524  0.00  0.00    +0.277 C 
ENDBRANCH  25  29
ENDBRANCH  19  21
BRANCH   1  31
ATOM     31  C   UNL     1       3.986  -2.723  -4.066  0.00  0.00    +0.113 C 
BRANCH  31  32
ATOM     32  C   UNL     1       2.505  -2.503  -4.381  0.00  0.00    +0.054 C 
BRANCH  32  36
ATOM     33  C   UNL     1       0.606  -0.607  -1.056  0.00  0.00    +0.120 A 
ATOM     34  C   UNL     1       1.173   0.161  -2.062  0.00  0.00    +0.046 A 
ATOM     35  C   UNL     1       1.786  -0.455  -3.136  0.00  0.00    +0.007 A 
ATOM     36  C   UNL     1       1.835  -1.835  -3.209  0.00  0.00    -0.046 A 
ATOM     37  C   UNL     1       1.270  -2.602  -2.207  0.00  0.00    +0.007 A 
ATOM     38  C   UNL     1       0.661  -1.992  -1.128  0.00  0.00    +0.046 A 
BRANCH  33  40
ATOM     39  C   UNL     1      -0.017   1.425   0.010  0.00  0.00    +0.277 C 
ATOM     40  O   UNL     1       0.002  -0.004   0.002  0.00  0.00    -0.495 OA
ENDBRANCH  33  40
ENDBRANCH  32  36
ENDBRANCH  31  32
ENDBRANCH   1  31
TORSDOF 7
