REMARK  Name = ZINC08788871
REMARK  9 active torsions:
REMARK  status: ('A' for Active; 'I' for Inactive)
REMARK    1  A    between atoms: C_1  and  C_2
REMARK    2  A    between atoms: C_5  and  C_8
REMARK    3  A    between atoms: N_15  and  C_18
REMARK    4  A    between atoms: C_18  and  C_19
REMARK    5  A    between atoms: N_21  and  C_22
REMARK    6  A    between atoms: C_24  and  O_30
REMARK    7  A    between atoms: C_27  and  O_28
REMARK    8  A    between atoms: O_28  and  C_29
REMARK    9  A    between atoms: O_30  and  C_31
REMARK                            x       y       z     vdW  Elec       q    Type
REMARK                         _______ _______ _______ _____ _____    ______ ____
ROOT
ATOM      1  C   UNL     1       2.873  10.557   1.798  0.00  0.00    +0.004 A 
ATOM      2  C   UNL     1       2.598  11.841   1.465  0.00  0.00    +0.056 A 
ATOM      3  S   UNL     1       2.491  11.791  -0.314  0.00  0.00    -0.076 S 
ATOM      4  C   UNL     1       2.814  10.065  -0.566  0.00  0.00    +0.116 A 
ATOM      5  C   UNL     1       2.998   9.568   0.734  0.00  0.00    +0.080 A 
ATOM      6  C   UNL     1       3.279   8.167   0.828  0.00  0.00    +0.263 A 
ATOM      7  O   UNL     1       3.454   7.642   1.914  0.00  0.00    -0.267 OA
ATOM      8  N   UNL     1       3.348   7.439  -0.301  0.00  0.00    -0.290 N 
ATOM      9  C   UNL     1       3.161   8.007  -1.520  0.00  0.00    +0.203 A 
ATOM     10  N   UNL     1       2.898   9.281  -1.637  0.00  0.00    -0.230 NA
ENDROOT
BRANCH   1  15
ATOM     11  C   UNL     1       3.536   9.035   7.312  0.00  0.00    +0.044 C 
ATOM     12  C   UNL     1       3.362   9.433   5.869  0.00  0.00    -0.050 A 
ATOM     13  C   UNL     1       4.053  10.521   5.366  0.00  0.00    +0.004 A 
ATOM     14  C   UNL     1       3.898  10.891   4.046  0.00  0.00    +0.009 A 
ATOM     15  C   UNL     1       3.043  10.165   3.218  0.00  0.00    -0.017 A 
ATOM     16  C   UNL     1       2.345   9.073   3.731  0.00  0.00    +0.009 A 
ATOM     17  C   UNL     1       2.513   8.709   5.052  0.00  0.00    +0.004 A 
ENDBRANCH   1  15
BRANCH   8  18
ATOM     18  C   UNL     1       3.635   6.005  -0.215  0.00  0.00    +0.222 C 
BRANCH  18  19
ATOM     19  C   UNL     1       2.342   5.240  -0.093  0.00  0.00    +0.237 C 
ATOM     20  O   UNL     1       1.285   5.834  -0.081  0.00  0.00    -0.274 OA
ATOM     21  N   UNL     1       2.361   3.895   0.001  0.00  0.00    -0.281 N 
ATOM     22  H   UNL     1       3.207   3.426   0.072  0.00  0.00    +0.155 HD
BRANCH  21  23
ATOM     23  C   UNL     1       1.159   3.176  -0.003  0.00  0.00    +0.079 A 
ATOM     24  C   UNL     1       0.028   3.716  -0.597  0.00  0.00    +0.072 A 
ATOM     25  C   UNL     1      -1.160   3.002  -0.599  0.00  0.00    +0.122 A 
ATOM     26  C   UNL     1      -1.217   1.746  -0.013  0.00  0.00    +0.049 A 
ATOM     27  C   UNL     1      -0.093   1.208   0.585  0.00  0.00    +0.051 A 
ATOM     28  C   UNL     1       1.097   1.917   0.590  0.00  0.00    +0.141 A 
BRANCH  28  29
ATOM     29  O   UNL     1       2.205   1.384   1.173  0.00  0.00    -0.493 OA
ATOM     30  C   UNL     1       2.069   0.089   1.761  0.00  0.00    +0.277 C 
ENDBRANCH  28  29
BRANCH  25  31
ATOM     31  O   UNL     1      -2.269   3.531  -1.181  0.00  0.00    -0.495 OA
ATOM     32  C   UNL     1      -3.459   2.740  -1.147  0.00  0.00    +0.277 C 
ENDBRANCH  25  31
ENDBRANCH  21  23
ENDBRANCH  18  19
ENDBRANCH   8  18
TORSDOF 6
