REMARK  Name = ZINC58872256
REMARK  15 active torsions:
REMARK  status: ('A' for Active; 'I' for Inactive)
REMARK    1  A    between atoms: C_1  and  C_2
REMARK    2  A    between atoms: C_2  and  C_3
REMARK    3  A    between atoms: C_3  and  C_4
REMARK    4  A    between atoms: C_5  and  C_34
REMARK    5  A    between atoms: C_6  and  C_25
REMARK    6  A    between atoms: C_12  and  C_13
REMARK    7  A    between atoms: C_16  and  O_21
REMARK    8  A    between atoms: C_17  and  O_19
REMARK    9  A    between atoms: O_19  and  C_20
REMARK   10  A    between atoms: C_28  and  C_31
REMARK   11  A    between atoms: C_31  and  C_32
REMARK   12  A    between atoms: C_31  and  C_33
REMARK   13  A    between atoms: C_34  and  O_36
REMARK   14  A    between atoms: O_36  and  C_37
REMARK   15  A    between atoms: C_37  and  C_38
REMARK                            x       y       z     vdW  Elec       q    Type
REMARK                         _______ _______ _______ _____ _____    ______ ____
ROOT
ATOM      1  C   UNL     1      -0.396  -1.338   0.374  0.00  0.00    +0.056 C 
ATOM      2  C   UNL     1       0.608  -1.898  -0.364  0.00  0.00    +0.085 C 
ATOM      3  C   UNL     1       0.755  -3.402  -0.339  0.00  0.00    +0.162 C 
ATOM      4  N   UNL     1      -0.216  -4.166   0.494  0.00  0.00    -0.275 N 
ATOM      5  C   UNL     1      -0.247  -5.497   0.644  0.00  0.00    +0.268 A 
ATOM      6  O   UNL     1       0.559  -6.211   0.077  0.00  0.00    -0.266 OA
ATOM      7  C   UNL     1      -1.285  -6.069   1.513  0.00  0.00    +0.081 A 
ATOM      8  C   UNL     1      -1.529  -7.368   1.826  0.00  0.00    +0.028 C 
ATOM      9  S   UNL     1      -2.138  -4.593   2.046  0.00  0.00    -0.046 S 
ATOM     10  C   UNL     1      -1.150  -3.405   1.158  0.00  0.00    +0.178 A 
ATOM     11  N   UNL     1      -1.212  -2.099   1.092  0.00  0.00    -0.227 NA
ENDROOT
BRANCH   8  12
ATOM     12  C   UNL     1      -2.736  -7.727   2.580  0.00  0.00    -0.020 A 
ATOM     13  C   UNL     1      -3.731  -6.769   2.811  0.00  0.00    +0.012 A 
ATOM     14  C   UNL     1      -4.863  -7.108   3.519  0.00  0.00    +0.050 A 
ATOM     15  C   UNL     1      -5.020  -8.399   4.006  0.00  0.00    +0.158 A 
ATOM     16  C   UNL     1      -4.034  -9.359   3.781  0.00  0.00    +0.162 A 
ATOM     17  C   UNL     1      -2.900  -9.030   3.066  0.00  0.00    +0.057 A 
BRANCH  16  18
ATOM     18  O   UNL     1      -4.193 -10.622   4.261  0.00  0.00    -0.491 OA
ATOM     19  C   UNL     1      -3.143 -11.554   3.993  0.00  0.00    +0.277 C 
ENDBRANCH  16  18
BRANCH  15  20
ATOM     20  O   UNL     1      -6.138  -8.728   4.704  0.00  0.00    -0.503 OA
ATOM     21  H   UNL     1      -6.862  -9.057   4.155  0.00  0.00    +0.292 HD
ENDBRANCH  15  20
ENDBRANCH   8  12
BRANCH   3  22
ATOM     22  C   UNL     1       0.642  -3.902  -1.756  0.00  0.00    -0.020 A 
ATOM     23  C   UNL     1      -0.602  -4.042  -2.342  0.00  0.00    +0.006 A 
ATOM     24  C   UNL     1      -0.706  -4.501  -3.642  0.00  0.00    +0.004 A 
ATOM     25  C   UNL     1       0.434  -4.819  -4.356  0.00  0.00    -0.045 A 
ATOM     26  C   UNL     1       1.678  -4.678  -3.770  0.00  0.00    +0.004 A 
ATOM     27  C   UNL     1       1.782  -4.215  -2.472  0.00  0.00    +0.006 A 
BRANCH  25  28
ATOM     28  C   UNL     1       0.321  -5.320  -5.773  0.00  0.00    +0.013 C 
ATOM     29  C   UNL     1       1.065  -4.368  -6.712  0.00  0.00    +0.012 C 
ATOM     30  C   UNL     1       0.936  -6.717  -5.871  0.00  0.00    +0.012 C 
ENDBRANCH  25  28
ENDBRANCH   3  22
BRANCH   2  31
ATOM     31  C   UNL     1       1.480  -1.100  -1.123  0.00  0.00    +0.339 C 
ATOM     32  O   UNL     1       1.259   0.091  -1.250  0.00  0.00    -0.245 OA
BRANCH  31  33
ATOM     33  O   UNL     1       2.562  -1.653  -1.712  0.00  0.00    -0.462 OA
BRANCH  33  34
ATOM     34  C   UNL     1       3.405  -0.782  -2.469  0.00  0.00    +0.229 C 
ATOM     35  C   UNL     1       4.569  -1.582  -3.056  0.00  0.00    +0.048 C 
ENDBRANCH  33  34
ENDBRANCH  31  33
ENDBRANCH   2  31
BRANCH   1  36
ATOM     36  C   UNL     1      -0.576   0.159   0.376  0.00  0.00    +0.056 C 
BRANCH  36  38
ATOM     37  C   UNL     1      -1.600   2.092  -0.830  0.00  0.00    +0.004 C 
ATOM     38  C   UNL     1      -1.417   0.573  -0.832  0.00  0.00    +0.003 C 
ENDBRANCH  36  38
ENDBRANCH   1  36
TORSDOF 10
