REMARK  Name = ZINC39659625
REMARK  8 active torsions:
REMARK  status: ('A' for Active; 'I' for Inactive)
REMARK    1  A    between atoms: C_1  and  C_2
REMARK    2  A    between atoms: C_2  and  C_35
REMARK    3  A    between atoms: C_5  and  C_8
REMARK    4  A    between atoms: C_8  and  N_9
REMARK    5  A    between atoms: C_10  and  C_12
REMARK    6  A    between atoms: C_23  and  C_25
REMARK    7  A    between atoms: C_28  and  O_32
REMARK    8  A    between atoms: O_32  and  C_33
REMARK                            x       y       z     vdW  Elec       q    Type
REMARK                         _______ _______ _______ _____ _____    ______ ____
ROOT
ATOM      1  C   UNL     1       4.276  -1.510   4.822  0.00  0.00    +0.100 C 
ATOM      2  C   UNL     1       5.096  -0.222   5.056  0.00  0.00    +0.121 C 
ATOM      3  N   UNL     1       5.790  -0.449   6.345  0.00  0.00    -0.296 N 
ATOM      4  C   UNL     1       6.192  -1.875   6.302  0.00  0.00    +0.115 C 
ATOM      5  C   UNL     1       4.999  -2.593   5.641  0.00  0.00    -0.004 C 
ATOM      6  C   UNL     1       5.495  -3.706   4.723  0.00  0.00    -0.010 C 
ATOM      7  C   UNL     1       6.159  -4.798   5.566  0.00  0.00    -0.082 C 
ATOM      8  N   UNL     1       5.190  -5.330   6.532  0.00  0.00    +0.379 N 
ATOM      9  C   UNL     1       4.788  -4.274   7.470  0.00  0.00    -0.082 C 
ATOM     10  C   UNL     1       4.066  -3.159   6.707  0.00  0.00    -0.010 C 
ATOM     11  C   UNL     1       6.006   0.441   7.335  0.00  0.00    +0.247 C 
ATOM     12  O   UNL     1       5.502   1.546   7.280  0.00  0.00    -0.270 OA
ATOM     13  H   UNL     1       4.377  -5.668   6.040  0.00  0.00    -0.086 HD
ATOM     14  H   UNL     1       5.611  -6.090   7.044  0.00  0.00    -0.086 HD
ENDROOT
BRANCH  11  15
ATOM     15  C   UNL     1       6.856   0.073   8.485  0.00  0.00    +0.040 A 
ATOM     16  C   UNL     1       7.771  -0.976   8.372  0.00  0.00    +0.036 A 
ATOM     17  C   UNL     1       8.563  -1.316   9.448  0.00  0.00    +0.085 A 
ATOM     18  C   UNL     1       8.450  -0.617  10.645  0.00  0.00    +0.157 A 
ATOM     19  C   UNL     1       7.540   0.428  10.760  0.00  0.00    +0.085 A 
ATOM     20  C   UNL     1       6.750   0.778   9.687  0.00  0.00    +0.036 A 
ATOM     21 CL   UNL     1       7.404   1.297  12.257  0.00  0.00    -0.080 Cl
ATOM     22 CL   UNL     1       9.701  -2.620   9.309  0.00  0.00    -0.080 Cl
BRANCH  18  23
ATOM     23  O   UNL     1       9.231  -0.956  11.702  0.00  0.00    -0.492 OA
ATOM     24  C   UNL     1      10.495  -0.298  11.813  0.00  0.00    +0.277 C 
ENDBRANCH  18  23
ENDBRANCH  11  15
BRANCH   1  26
ATOM     25  N   UNL     1       3.219  -2.522   2.828  0.00  0.00    -0.312 N 
ATOM     26  C   UNL     1       4.273  -1.873   3.359  0.00  0.00    +0.218 C 
ATOM     27  O   UNL     1       5.220  -1.579   2.660  0.00  0.00    -0.275 OA
ATOM     28  H   UNL     1       2.462  -2.757   3.387  0.00  0.00    +0.149 HD
BRANCH  25  29
ATOM     29  C   UNL     1       3.216  -2.875   1.406  0.00  0.00    +0.138 C 
BRANCH  29  34
ATOM     30  C   UNL     1      -0.436  -5.640   1.433  0.00  0.00    +0.074 C 
ATOM     31  C   UNL     1       0.987  -5.682   0.872  0.00  0.00    +0.165 C 
ATOM     32  O   UNL     1       0.999  -5.135  -0.453  0.00  0.00    -0.347 OA
ATOM     33  C   UNL     1       1.875  -3.990  -0.436  0.00  0.00    +0.196 C 
ATOM     34  C   UNL     1       1.914  -3.601   1.062  0.00  0.00    +0.164 C 
ATOM     35  O   UNL     1       1.857  -4.897   1.705  0.00  0.00    -0.342 OA
ATOM     36  C   UNL     1       1.481  -7.129   0.833  0.00  0.00    +0.074 C 
ENDBRANCH  29  34
ENDBRANCH  25  29
ENDBRANCH   1  26
TORSDOF 5
