REMARK  Name = ZINC65383414
REMARK  8 active torsions:
REMARK  status: ('A' for Active; 'I' for Inactive)
REMARK    1  A    between atoms: C_1  and  C_2
REMARK    2  A    between atoms: C_7  and  C_12
REMARK    3  A    between atoms: C_12  and  N_13
REMARK    4  A    between atoms: C_14  and  C_16
REMARK    5  A    between atoms: C_18  and  C_22
REMARK    6  A    between atoms: N_20  and  C_21
REMARK    7  A    between atoms: C_22  and  C_23
REMARK    8  A    between atoms: C_22  and  C_24
REMARK                            x       y       z     vdW  Elec       q    Type
REMARK                         _______ _______ _______ _____ _____    ______ ____
ROOT
ATOM      1  N   UNL     1      -2.405  -6.016   1.093  0.00  0.00    -0.306 N 
ATOM      2  C   UNL     1      -3.095  -7.174   1.103  0.00  0.00    +0.262 C 
ATOM      3  O   UNL     1      -4.026  -7.320   1.872  0.00  0.00    -0.269 OA
ATOM      4  H   UNL     1      -1.622  -5.923   0.527  0.00  0.00    +0.149 HD
ENDROOT
BRANCH   2   5
ATOM      5  C   UNL     1      -2.721  -8.261   0.184  0.00  0.00    +0.123 A 
ATOM      6  C   UNL     1      -1.756  -8.217  -0.807  0.00  0.00    +0.058 A 
ATOM      7  C   UNL     1      -1.776  -9.481  -1.400  0.00  0.00    +0.066 A 
ATOM      8  N   UNL     1      -2.687 -10.196  -0.791  0.00  0.00    -0.176 NA
ATOM      9  N   UNL     1      -3.254  -9.518   0.141  0.00  0.00    -0.262 N 
ATOM     10  C   UNL     1      -4.314 -10.016   1.022  0.00  0.00    +0.173 C 
BRANCH   7  11
ATOM     11  C   UNL     1      -0.903  -9.941  -2.539  0.00  0.00    +0.033 C 
ATOM     12  C   UNL     1      -1.538  -9.527  -3.868  0.00  0.00    +0.014 C 
ATOM     13  C   UNL     1       0.480  -9.298  -2.413  0.00  0.00    +0.014 C 
ENDBRANCH   7  11
ENDBRANCH   2   5
BRANCH   1  14
ATOM     14  C   UNL     1      -2.837  -4.898   1.935  0.00  0.00    +0.140 C 
BRANCH  14  20
ATOM     15  C   UNL     1       0.146   1.504  -0.361  0.00  0.00    +0.052 C 
ATOM     16  C   UNL     1       0.124  -0.022  -0.258  0.00  0.00    +0.175 C 
ATOM     17  C   UNL     1      -1.321  -0.560  -0.387  0.00  0.00    +0.083 C 
ATOM     18  C   UNL     1      -1.309  -1.725   0.584  0.00  0.00    -0.002 A 
ATOM     19  C   UNL     1      -2.164  -2.791   0.760  0.00  0.00    +0.012 A 
ATOM     20  C   UNL     1      -1.904  -3.732   1.740  0.00  0.00    -0.030 A 
ATOM     21  C   UNL     1      -0.784  -3.598   2.540  0.00  0.00    +0.009 A 
ATOM     22  C   UNL     1       0.072  -2.530   2.368  0.00  0.00    +0.046 A 
ATOM     23  C   UNL     1      -0.185  -1.576   1.386  0.00  0.00    +0.124 A 
ATOM     24  O   UNL     1       0.510  -0.449   1.060  0.00  0.00    -0.488 OA
ENDBRANCH  14  20
ENDBRANCH   1  14
TORSDOF 4
