REMARK  Name = ZINC56781180
REMARK  9 active torsions:
REMARK  status: ('A' for Active; 'I' for Inactive)
REMARK    1  A    between atoms: C_1  and  C_2
REMARK    2  A    between atoms: C_2  and  C_4
REMARK    3  A    between atoms: C_2  and  N_10
REMARK    4  A    between atoms: C_4  and  C_5
REMARK    5  A    between atoms: C_5  and  C_6
REMARK    6  A    between atoms: C_6  and  C_7
REMARK    7  A    between atoms: C_7  and  C_8
REMARK    8  A    between atoms: C_7  and  C_9
REMARK    9  A    between atoms: C_17  and  C_20
REMARK                            x       y       z     vdW  Elec       q    Type
REMARK                         _______ _______ _______ _____ _____    ______ ____
ROOT
ATOM      1  N   UNL     1       0.688  -0.476  -1.204  0.00  0.00    -0.297 N 
ATOM      2  C   UNL     1       0.006  -0.608  -2.358  0.00  0.00    +0.302 C 
ATOM      3  O   UNL     1      -1.195  -0.423  -2.380  0.00  0.00    -0.253 OA
ATOM      4  N   UNL     1       0.656  -0.945  -3.490  0.00  0.00    -0.285 N 
ATOM      5  C   UNL     1      -0.051  -0.980  -4.777  0.00  0.00    +0.109 C 
ATOM      6  C   UNL     1       0.710  -0.109  -5.782  0.00  0.00    +0.020 C 
ATOM      7  C   UNL     1       2.167  -0.572  -5.852  0.00  0.00    +0.016 C 
ATOM      8  C   UNL     1       2.822  -0.410  -4.478  0.00  0.00    +0.093 C 
ATOM      9  C   UNL     1       2.087  -1.279  -3.460  0.00  0.00    +0.122 C 
ATOM     10  H   UNL     1       1.632  -0.695  -1.170  0.00  0.00    +0.151 HD
ENDROOT
BRANCH   8  11
ATOM     11  C   UNL     1       4.266  -0.835  -4.556  0.00  0.00    +0.223 C 
ATOM     12  O   UNL     1       4.726  -1.228  -5.607  0.00  0.00    -0.275 OA
ATOM     13  N   UNL     1       5.046  -0.778  -3.458  0.00  0.00    -0.264 N 
ATOM     14  C   UNL     1       6.377  -1.170  -3.530  0.00  0.00    +0.164 A 
ATOM     15  N   UNL     1       7.044  -1.613  -4.574  0.00  0.00    -0.233 NA
ATOM     16  C   UNL     1       8.317  -1.948  -4.479  0.00  0.00    +0.120 A 
ATOM     17  C   UNL     1       8.900  -1.813  -3.263  0.00  0.00    +0.068 A 
ATOM     18  S   UNL     1       7.531  -1.185  -2.304  0.00  0.00    -0.061 S 
ATOM     19  H   UNL     1       4.678  -0.463  -2.618  0.00  0.00    +0.157 HD
ENDBRANCH   8  11
BRANCH   1  21
ATOM     20  C   UNL     1      -0.017   1.528   0.008  0.00  0.00    +0.028 C 
ATOM     21  C   UNL     1       0.003  -0.002   0.001  0.00  0.00    +0.071 C 
BRANCH  21  22
ATOM     22  C   UNL     1       0.742  -0.508   1.241  0.00  0.00    +0.022 C 
BRANCH  22  23
ATOM     23  C   UNL     1       0.655  -2.034   1.300  0.00  0.00    +0.002 C 
BRANCH  23  24
ATOM     24  C   UNL     1       1.394  -2.540   2.540  0.00  0.00    +0.003 C 
BRANCH  24  25
ATOM     25  C   UNL     1       1.307  -4.067   2.599  0.00  0.00    -0.017 C 
ATOM     26  C   UNL     1       2.150  -4.581   3.767  0.00  0.00    +0.007 C 
ATOM     27  C   UNL     1      -0.151  -4.487   2.797  0.00  0.00    +0.007 C 
ENDBRANCH  24  25
ENDBRANCH  23  24
ENDBRANCH  22  23
ENDBRANCH  21  22
ENDBRANCH   1  21
TORSDOF 6
