REMARK  Name = ZINC23693181
REMARK  8 active torsions:
REMARK  status: ('A' for Active; 'I' for Inactive)
REMARK    1  A    between atoms: C_1  and  N_2
REMARK    2  A    between atoms: N_2  and  C_3
REMARK    3  A    between atoms: C_3  and  C_4
REMARK    4  A    between atoms: N_6  and  C_15
REMARK    5  A    between atoms: C_8  and  C_9
REMARK    6  A    between atoms: C_21  and  C_23
REMARK    7  A    between atoms: C_26  and  N_28
REMARK    8  A    between atoms: C_29  and  C_31
REMARK                            x       y       z     vdW  Elec       q    Type
REMARK                         _______ _______ _______ _____ _____    ______ ____
ROOT
ATOM      1  C   UNL     1      -0.919  -1.810  -2.596  0.00  0.00    +0.132 C 
ATOM      2  N   UNL     1      -1.329  -0.792  -1.627  0.00  0.00    -0.296 N 
ATOM      3  C   UNL     1      -2.327   0.063  -1.929  0.00  0.00    +0.253 C 
ATOM      4  O   UNL     1      -2.603   0.971  -1.166  0.00  0.00    -0.269 OA
ENDROOT
BRANCH   3   5
ATOM      5  C   UNL     1      -3.077  -0.100  -3.172  0.00  0.00    +0.076 A 
ATOM      6  C   UNL     1      -4.034   0.736  -3.729  0.00  0.00    +0.022 A 
ATOM      7  C   UNL     1      -4.592   0.348  -4.918  0.00  0.00    +0.032 A 
ATOM      8  C   UNL     1      -4.179  -0.837  -5.489  0.00  0.00    +0.073 A 
ATOM      9  S   UNL     1      -2.993  -1.421  -4.368  0.00  0.00    -0.069 S 
BRANCH   8  10
ATOM     10  N   UNL     1      -4.605  -1.418  -6.675  0.00  0.00    -0.273 N 
ATOM     11  C   UNL     1      -4.081  -2.593  -7.077  0.00  0.00    +0.284 C 
ATOM     12  O   UNL     1      -3.234  -3.145  -6.398  0.00  0.00    -0.266 OA
ATOM     13  H   UNL     1      -5.370  -0.919  -7.288  0.00  0.00    +0.156 HD
BRANCH  11  14
ATOM     14  C   UNL     1      -4.530  -3.206  -8.330  0.00  0.00    +0.189 A 
ATOM     15  C   UNL     1      -4.085  -4.388  -8.850  0.00  0.00    +0.054 A 
ATOM     16  C   UNL     1      -4.782  -4.588 -10.052  0.00  0.00    +0.042 A 
ATOM     17  C   UNL     1      -5.612  -3.533 -10.210  0.00  0.00    +0.196 A 
ATOM     18  O   UNL     1      -5.461  -2.705  -9.168  0.00  0.00    -0.458 OA
ENDBRANCH  11  14
ENDBRANCH   8  10
ENDBRANCH   3   5
BRANCH   2  19
ATOM     19  C   UNL     1      -0.656  -0.702  -0.329  0.00  0.00    +0.146 C 
BRANCH  19  20
ATOM     20  C   UNL     1       0.472   0.294  -0.416  0.00  0.00    +0.016 A 
ATOM     21  C   UNL     1       0.758   1.079  -1.477  0.00  0.00    +0.120 A 
ATOM     22  N   UNL     1       1.843   1.832  -1.157  0.00  0.00    -0.239 N 
ATOM     23  N   UNL     1       2.235   1.496   0.145  0.00  0.00    -0.166 NA
ATOM     24  C   UNL     1       1.413   0.572   0.595  0.00  0.00    +0.098 A 
BRANCH  24  25
ATOM     25  C   UNL     1       1.464  -0.063   1.935  0.00  0.00    +0.002 A 
ATOM     26  C   UNL     1       0.290  -0.272   2.656  0.00  0.00    +0.010 A 
ATOM     27  C   UNL     1       0.343  -0.867   3.900  0.00  0.00    +0.001 A 
ATOM     28  C   UNL     1       1.561  -1.246   4.437  0.00  0.00    +0.000 A 
ATOM     29  C   UNL     1       2.730  -1.036   3.728  0.00  0.00    +0.001 A 
ATOM     30  C   UNL     1       2.688  -0.447   2.481  0.00  0.00    +0.010 A 
ENDBRANCH  24  25
BRANCH  22  31
ATOM     31  C   UNL     1       2.462   2.779  -1.984  0.00  0.00    +0.065 A 
ATOM     32  C   UNL     1       1.972   3.012  -3.263  0.00  0.00    +0.028 A 
ATOM     33  C   UNL     1       2.580   3.950  -4.074  0.00  0.00    +0.002 A 
ATOM     34  C   UNL     1       3.683   4.648  -3.618  0.00  0.00    +0.000 A 
ATOM     35  C   UNL     1       4.177   4.414  -2.348  0.00  0.00    +0.002 A 
ATOM     36  C   UNL     1       3.570   3.482  -1.530  0.00  0.00    +0.028 A 
ENDBRANCH  22  31
ENDBRANCH  19  20
ENDBRANCH   2  19
TORSDOF 7
