REMARK  Name = ZINC06300864
REMARK  9 active torsions:
REMARK  status: ('A' for Active; 'I' for Inactive)
REMARK    1  A    between atoms: C_1  and  C_2
REMARK    2  A    between atoms: C_4  and  C_40
REMARK    3  A    between atoms: C_9  and  C_14
REMARK    4  A    between atoms: C_14  and  C_16
REMARK    5  A    between atoms: C_14  and  N_73
REMARK    6  A    between atoms: N_20  and  C_21
REMARK    7  A    between atoms: C_21  and  C_22
REMARK    8  A    between atoms: C_30  and  C_33
REMARK    9  A    between atoms: C_33  and  C_34
REMARK                            x       y       z     vdW  Elec       q    Type
REMARK                         _______ _______ _______ _____ _____    ______ ____
ROOT
ATOM      1  C   UNL     1       1.783  -1.450  -1.740  0.00  0.00    +0.039 C 
ENDROOT
BRANCH   1  10
ATOM      2  C   UNL     1       4.993  -6.793   2.355  0.00  0.00    +0.044 C 
ATOM      3  C   UNL     1       4.846  -6.042   1.057  0.00  0.00    -0.050 A 
ATOM      4  C   UNL     1       5.629  -6.394  -0.034  0.00  0.00    +0.008 A 
ATOM      5  C   UNL     1       5.511  -5.720  -1.231  0.00  0.00    -0.026 A 
ATOM      6  C   UNL     1       4.599  -4.677  -1.349  0.00  0.00    +0.052 A 
ATOM      7  C   UNL     1       3.806  -4.323  -0.241  0.00  0.00    -0.001 A 
ATOM      8  C   UNL     1       3.943  -5.021   0.964  0.00  0.00    +0.013 A 
ATOM      9  C   UNL     1       2.852  -3.221  -0.373  0.00  0.00    +0.017 A 
ATOM     10  C   UNL     1       2.759  -2.585  -1.567  0.00  0.00    +0.011 A 
ATOM     11  C   UNL     1       3.577  -2.979  -2.648  0.00  0.00    +0.251 A 
ATOM     12  O   UNL     1       3.480  -2.391  -3.712  0.00  0.00    -0.268 OA
ATOM     13  N   UNL     1       4.460  -3.987  -2.534  0.00  0.00    -0.322 N 
ATOM     14  H   UNL     1       5.006  -4.232  -3.297  0.00  0.00    +0.169 HD
ATOM     15  C   UNL     1       6.368  -6.113  -2.407  0.00  0.00    +0.046 C 
ENDBRANCH   1  10
BRANCH   1  21
ATOM     16  C   UNL     1       0.013  -0.590  -3.150  0.00  0.00    -0.077 C 
ATOM     17  C   UNL     1      -0.762  -0.836  -4.446  0.00  0.00    -0.015 C 
ATOM     18  C   UNL     1      -1.555  -2.140  -4.321  0.00  0.00    -0.010 C 
ATOM     19  C   UNL     1      -0.589  -3.288  -4.014  0.00  0.00    -0.015 C 
ATOM     20  C   UNL     1       0.181  -2.971  -2.730  0.00  0.00    -0.077 C 
ATOM     21  N   UNL     1       0.942  -1.718  -2.924  0.00  0.00    +0.389 N 
ATOM     22  H   UNL     1       1.547  -1.820  -3.747  0.00  0.00    -0.080 HD
BRANCH  18  23
ATOM     23  C   UNL     1      -2.285  -2.424  -5.635  0.00  0.00    +0.038 C 
BRANCH  23  24
ATOM     24  C   UNL     1      -3.322  -1.357  -5.875  0.00  0.00    -0.047 A 
ATOM     25  C   UNL     1      -4.609  -1.524  -5.398  0.00  0.00    +0.003 A 
ATOM     26  C   UNL     1      -5.559  -0.543  -5.613  0.00  0.00    +0.000 A 
ATOM     27  C   UNL     1      -5.224   0.601  -6.314  0.00  0.00    +0.000 A 
ATOM     28  C   UNL     1      -3.939   0.766  -6.795  0.00  0.00    +0.000 A 
ATOM     29  C   UNL     1      -2.988  -0.213  -6.575  0.00  0.00    +0.003 A 
ENDBRANCH  23  24
ENDBRANCH  18  23
ENDBRANCH   1  21
BRANCH   1  30
ATOM     30  C   UNL     1       2.540  -0.165  -1.958  0.00  0.00    +0.143 A 
ATOM     31  N   UNL     1       3.153   0.205  -3.056  0.00  0.00    -0.115 NA
ATOM     32  N   UNL     1       3.684   1.359  -2.845  0.00  0.00    -0.023 NA
ATOM     33  N   UNL     1       3.422   1.738  -1.642  0.00  0.00    -0.044 NA
ATOM     34  N   UNL     1       2.715   0.826  -1.065  0.00  0.00    -0.226 N 
BRANCH  34  35
ATOM     35  C   UNL     1       2.205   0.860   0.308  0.00  0.00    +0.182 C 
BRANCH  35  36
ATOM     36  C   UNL     1       0.842   1.502   0.322  0.00  0.00    -0.026 A 
ATOM     37  C   UNL     1      -0.290   0.724   0.166  0.00  0.00    +0.005 A 
ATOM     38  C   UNL     1      -1.541   1.314   0.173  0.00  0.00    +0.000 A 
ATOM     39  C   UNL     1      -1.660   2.680   0.345  0.00  0.00    +0.000 A 
ATOM     40  C   UNL     1      -0.528   3.458   0.501  0.00  0.00    +0.000 A 
ATOM     41  C   UNL     1       0.723   2.869   0.489  0.00  0.00    +0.005 A 
ENDBRANCH  35  36
ENDBRANCH  34  35
ENDBRANCH   1  30
TORSDOF 7
