REMARK  Name = ZINC39609111
REMARK  6 active torsions:
REMARK  status: ('A' for Active; 'I' for Inactive)
REMARK    1  A    between atoms: C_4  and  C_7
REMARK    2  A    between atoms: C_7  and  O_8
REMARK    3  A    between atoms: O_8  and  C_9
REMARK    4  A    between atoms: C_14  and  N_16
REMARK    5  A    between atoms: C_17  and  C_19
REMARK    6  A    between atoms: C_30  and  C_32
REMARK                            x       y       z     vdW  Elec       q    Type
REMARK                         _______ _______ _______ _____ _____    ______ ____
ROOT
ATOM      1  C   UNL     1       9.372   0.764   2.897  0.00  0.00    +0.100 C 
ATOM      2  C   UNL     1       9.317   1.522   1.552  0.00  0.00    +0.121 C 
ATOM      3  N   UNL     1       9.077   2.936   1.929  0.00  0.00    -0.300 N 
ATOM      4  C   UNL     1       9.909   3.141   3.139  0.00  0.00    +0.115 C 
ATOM      5  C   UNL     1       9.765   1.829   3.935  0.00  0.00    -0.004 C 
ATOM      6  C   UNL     1      11.092   1.461   4.593  0.00  0.00    -0.010 C 
ATOM      7  C   UNL     1      11.432   2.503   5.662  0.00  0.00    -0.082 C 
ATOM      8  N   UNL     1      10.361   2.546   6.665  0.00  0.00    +0.379 N 
ATOM      9  C   UNL     1       9.109   2.991   6.041  0.00  0.00    -0.082 C 
ATOM     10  C   UNL     1       8.670   1.969   4.988  0.00  0.00    -0.010 C 
ATOM     11  C   UNL     1       8.283   3.832   1.311  0.00  0.00    +0.219 C 
ATOM     12  O   UNL     1       8.192   4.961   1.744  0.00  0.00    -0.275 OA
ATOM     13  H   UNL     1      10.232   1.626   7.057  0.00  0.00    -0.086 HD
ATOM     14  H   UNL     1      10.616   3.189   7.400  0.00  0.00    -0.086 HD
ENDROOT
BRANCH  11  15
ATOM     15  C   UNL     1       7.509   3.431   0.082  0.00  0.00    +0.079 C 
ATOM     16  C   UNL     1       6.697   4.628  -0.430  0.00  0.00    +0.017 C 
ATOM     17  C   UNL     1       5.789   4.149  -1.564  0.00  0.00    +0.027 C 
ATOM     18  C   UNL     1       6.582   3.356  -2.561  0.00  0.00    -0.031 C 
ATOM     19  C   UNL     1       7.750   2.852  -2.323  0.00  0.00    -0.030 C 
ATOM     20  C   UNL     1       8.479   2.994  -1.018  0.00  0.00    +0.039 C 
ENDBRANCH  11  15
BRANCH   1  22
ATOM     21  N   UNL     1       7.934  -0.937   3.973  0.00  0.00    -0.310 N 
ATOM     22  C   UNL     1       8.021   0.182   3.228  0.00  0.00    +0.218 C 
ATOM     23  O   UNL     1       7.013   0.722   2.823  0.00  0.00    -0.275 OA
ATOM     24  H   UNL     1       8.740  -1.369   4.296  0.00  0.00    +0.149 HD
BRANCH  21  29
ATOM     25  C   UNL     1       6.750  -3.010   4.572  0.00  0.00    +0.139 C 
ATOM     26  C   UNL     1       6.275  -3.234   6.023  0.00  0.00    +0.033 C 
ATOM     27  C   UNL     1       6.472  -1.857   6.704  0.00  0.00    +0.004 C 
ATOM     28  C   UNL     1       6.070  -0.863   5.586  0.00  0.00    +0.025 C 
ATOM     29  C   UNL     1       6.621  -1.503   4.294  0.00  0.00    +0.102 C 
BRANCH  25  30
ATOM     30  O   UNL     1       5.926  -3.748   3.668  0.00  0.00    -0.370 OA
BRANCH  30  31
ATOM     31  C   UNL     1       6.417  -5.056   3.368  0.00  0.00    +0.195 C 
BRANCH  31  35
ATOM     32  C   UNL     1       3.746  -6.994   0.655  0.00  0.00    +0.000 A 
ATOM     33  C   UNL     1       4.795  -6.236   0.169  0.00  0.00    +0.000 A 
ATOM     34  C   UNL     1       5.659  -5.608   1.047  0.00  0.00    +0.006 A 
ATOM     35  C   UNL     1       5.474  -5.739   2.411  0.00  0.00    -0.022 A 
ATOM     36  C   UNL     1       4.425  -6.497   2.897  0.00  0.00    +0.006 A 
ATOM     37  C   UNL     1       3.562  -7.125   2.019  0.00  0.00    +0.000 A 
ENDBRANCH  31  35
ENDBRANCH  30  31
ENDBRANCH  25  30
ENDBRANCH  21  29
ENDBRANCH   1  22
TORSDOF 6
