REMARK  Name = ZINC13125712
REMARK  8 active torsions:
REMARK  status: ('A' for Active; 'I' for Inactive)
REMARK    1  A    between atoms: C_1  and  C_2
REMARK    2  A    between atoms: C_3  and  O_27
REMARK    3  A    between atoms: C_6  and  C_9
REMARK    4  A    between atoms: C_7  and  O_8
REMARK    5  A    between atoms: C_10  and  C_16
REMARK    6  A    between atoms: C_11  and  C_15
REMARK    7  A    between atoms: N_19  and  C_21
REMARK    8  A    between atoms: O_27  and  C_28
REMARK                            x       y       z     vdW  Elec       q    Type
REMARK                         _______ _______ _______ _____ _____    ______ ____
ROOT
ATOM      1  C   UNL     1       0.178  -2.868   2.460  0.00  0.00    +0.104 A 
ATOM      2  C   UNL     1      -0.022  -4.264   2.599  0.00  0.00    +0.033 A 
ATOM      3  C   UNL     1      -0.097  -4.536   3.931  0.00  0.00    +0.041 A 
ATOM      4  N   UNL     1       0.049  -3.373   4.601  0.00  0.00    -0.281 N 
ATOM      5  H   UNL     1       0.038  -3.267   5.565  0.00  0.00    +0.189 HD
ATOM      6  N   UNL     1       0.224  -2.345   3.666  0.00  0.00    -0.173 NA
ATOM      7  C   UNL     1      -0.305  -5.895   4.548  0.00  0.00    +0.065 C 
ENDROOT
BRANCH   1  13
ATOM      8  C   UNL     1      -1.043   1.009  -0.453  0.00  0.00    +0.051 C 
ATOM      9  C   UNL     1      -0.269  -0.263  -0.223  0.00  0.00    +0.033 A 
ATOM     10  C   UNL     1       0.578  -0.748  -1.209  0.00  0.00    +0.126 A 
ATOM     11  C   UNL     1       1.294  -1.919  -1.001  0.00  0.00    +0.047 A 
ATOM     12  C   UNL     1       1.166  -2.609   0.187  0.00  0.00    +0.017 A 
ATOM     13  C   UNL     1       0.317  -2.129   1.182  0.00  0.00    +0.045 A 
ATOM     14  C   UNL     1      -0.399  -0.945   0.975  0.00  0.00    +0.132 A 
BRANCH  14  15
ATOM     15  O   UNL     1      -1.224  -0.470   1.943  0.00  0.00    -0.506 OA
ATOM     16  H   UNL     1      -2.131  -0.800   1.885  0.00  0.00    +0.292 HD
ENDBRANCH  14  15
BRANCH  10  17
ATOM     17  O   UNL     1       0.708  -0.073  -2.382  0.00  0.00    -0.495 OA
ATOM     18  C   UNL     1       1.597  -0.628  -3.354  0.00  0.00    +0.277 C 
ENDBRANCH  10  17
ENDBRANCH   1  13
BRANCH   2  19
ATOM     19  C   UNL     1      -0.131  -5.250   1.493  0.00  0.00    +0.024 A 
ATOM     20  C   UNL     1      -1.164  -5.318   0.539  0.00  0.00    +0.143 A 
ATOM     21  N   UNL     1      -0.912  -6.314  -0.269  0.00  0.00    -0.174 NA
ATOM     22  N   UNL     1       0.285  -6.921   0.133  0.00  0.00    -0.239 N 
ATOM     23  C   UNL     1       0.754  -6.249   1.216  0.00  0.00    +0.123 A 
BRANCH  22  24
ATOM     24  C   UNL     1       0.894  -8.025  -0.479  0.00  0.00    +0.065 A 
ATOM     25  C   UNL     1       2.082  -8.533   0.028  0.00  0.00    +0.028 A 
ATOM     26  C   UNL     1       2.680  -9.622  -0.577  0.00  0.00    +0.002 A 
ATOM     27  C   UNL     1       2.095 -10.205  -1.686  0.00  0.00    +0.000 A 
ATOM     28  C   UNL     1       0.912  -9.701  -2.193  0.00  0.00    +0.002 A 
ATOM     29  C   UNL     1       0.306  -8.617  -1.589  0.00  0.00    +0.028 A 
ENDBRANCH  22  24
ENDBRANCH   2  19
TORSDOF 5
