REMARK  Name = ZINC08819643
REMARK  8 active torsions:
REMARK  status: ('A' for Active; 'I' for Inactive)
REMARK    1  A    between atoms: C_3  and  C_10
REMARK    2  A    between atoms: C_5  and  N_7
REMARK    3  A    between atoms: N_12  and  N_13
REMARK    4  A    between atoms: C_14  and  C_16
REMARK    5  A    between atoms: C_16  and  C_17
REMARK    6  A    between atoms: C_17  and  C_18
REMARK    7  A    between atoms: C_18  and  N_19
REMARK    8  A    between atoms: C_23  and  C_24
REMARK                            x       y       z     vdW  Elec       q    Type
REMARK                         _______ _______ _______ _____ _____    ______ ____
ROOT
ATOM      1  C   UNL     1      -5.713  -4.719  -0.090  0.00  0.00    +0.029 C 
ENDROOT
BRANCH   1   2
ATOM      2  C   UNL     1      -6.139  -3.251  -0.021  0.00  0.00    +0.099 C 
BRANCH   2   4
ATOM      3  N   UNL     1      -5.104  -1.029  -0.351  0.00  0.00    -0.234 N 
ATOM      4  C   UNL     1      -4.962  -2.370  -0.350  0.00  0.00    +0.229 C 
ATOM      5  O   UNL     1      -3.888  -2.866  -0.615  0.00  0.00    -0.274 OA
ATOM      6  H   UNL     1      -5.963  -0.632  -0.140  0.00  0.00    +0.173 HD
BRANCH   3   9
ATOM      7  C   UNL     1      -4.151   1.131  -0.659  0.00  0.00    +0.260 C 
ATOM      8  O   UNL     1      -5.227   1.628  -0.394  0.00  0.00    -0.269 OA
ATOM      9  N   UNL     1      -4.009  -0.210  -0.658  0.00  0.00    -0.230 N 
ATOM     10  H   UNL     1      -3.150  -0.607  -0.869  0.00  0.00    +0.173 HD
BRANCH   7  13
ATOM     11  C   UNL     1      -0.686   2.240  -1.593  0.00  0.00    +0.003 A 
ATOM     12  C   UNL     1      -1.758   1.427  -1.287  0.00  0.00    +0.013 A 
ATOM     13  C   UNL     1      -2.996   1.995  -0.982  0.00  0.00    +0.040 A 
ATOM     14  C   UNL     1      -3.138   3.384  -0.981  0.00  0.00    +0.045 A 
ATOM     15  C   UNL     1      -2.058   4.185  -1.289  0.00  0.00    +0.127 A 
ATOM     16  C   UNL     1      -0.835   3.615  -1.594  0.00  0.00    +0.033 A 
BRANCH  15  17
ATOM     17  N   UNL     1      -2.208   5.657  -1.293  0.00  0.00    +0.056 N 
ATOM     18  O   UNL     1      -1.256   6.366  -1.565  0.00  0.00    -0.126 OA
ATOM     19  O   UNL     1      -3.284   6.161  -1.024  0.00  0.00    -0.126 OA
ENDBRANCH  15  17
ENDBRANCH   7  13
ENDBRANCH   3   9
ENDBRANCH   2   4
ENDBRANCH   1   2
BRANCH   1  20
ATOM     20  C   UNL     1      -6.907  -5.614   0.244  0.00  0.00    +0.115 C 
BRANCH  20  21
ATOM     21  N   UNL     1      -6.499  -7.019   0.178  0.00  0.00    -0.255 N 
ATOM     22  C   UNL     1      -6.029  -7.608   1.265  0.00  0.00    +0.258 C 
ATOM     23  O   UNL     1      -5.927  -7.011   2.321  0.00  0.00    -0.269 OA
ATOM     24  C   UNL     1      -5.635  -9.024   1.133  0.00  0.00    +0.077 C 
ATOM     25  C   UNL     1      -5.128  -9.872   2.064  0.00  0.00    +0.028 C 
ATOM     26  S   UNL     1      -6.008  -9.316  -0.591  0.00  0.00    -0.061 S 
ATOM     27  C   UNL     1      -6.615  -7.685  -0.989  0.00  0.00    +0.121 C 
ATOM     28  S   UNL     1      -7.200  -7.105  -2.490  0.00  0.00    -0.027 S 
BRANCH  25  29
ATOM     29  C   UNL     1      -4.963 -11.296   1.748  0.00  0.00    -0.020 A 
ATOM     30  C   UNL     1      -5.493 -11.819   0.562  0.00  0.00    +0.012 A 
ATOM     31  C   UNL     1      -5.333 -13.154   0.266  0.00  0.00    +0.050 A 
ATOM     32  C   UNL     1      -4.655 -13.989   1.145  0.00  0.00    +0.166 A 
ATOM     33  C   UNL     1      -4.128 -13.477   2.332  0.00  0.00    +0.167 A 
ATOM     34  C   UNL     1      -4.280 -12.138   2.634  0.00  0.00    +0.057 A 
ATOM     35  O   UNL     1      -3.518 -14.492   3.011  0.00  0.00    -0.453 OA
ATOM     36  C   UNL     1      -4.029 -15.706   2.428  0.00  0.00    +0.466 C 
ATOM     37  O   UNL     1      -4.372 -15.322   1.084  0.00  0.00    -0.453 OA
ENDBRANCH  25  29
ENDBRANCH  20  21
ENDBRANCH   1  20
TORSDOF 8
