REMARK  Name = ZINC16881027
REMARK  7 active torsions:
REMARK  status: ('A' for Active; 'I' for Inactive)
REMARK    1  A    between atoms: C_1  and  C_2
REMARK    2  A    between atoms: C_5  and  C_25
REMARK    3  A    between atoms: C_6  and  C_8
REMARK    4  A    between atoms: C_8  and  N_9
REMARK    5  A    between atoms: C_12  and  C_18
REMARK    6  A    between atoms: C_13  and  O_17
REMARK    7  A    between atoms: C_18  and  C_19
REMARK                            x       y       z     vdW  Elec       q    Type
REMARK                         _______ _______ _______ _____ _____    ______ ____
ROOT
ATOM      1  N   UNL     1      -4.863   3.562   2.233  0.00  0.00    -0.276 N 
ATOM      2  C   UNL     1      -5.229   3.927   0.987  0.00  0.00    +0.263 A 
ATOM      3  O   UNL     1      -5.187   3.126   0.067  0.00  0.00    -0.267 OA
ATOM      4  C   UNL     1      -5.657   5.242   0.766  0.00  0.00    +0.083 A 
ATOM      5  C   UNL     1      -5.690   6.119   1.837  0.00  0.00    +0.224 A 
ATOM      6  N   UNL     1      -5.316   5.701   3.050  0.00  0.00    -0.181 NA
ATOM      7  C   UNL     1      -4.919   4.462   3.252  0.00  0.00    +0.199 A 
ATOM      8  N   UNL     1      -4.550   4.073   4.512  0.00  0.00    -0.329 N 
ATOM      9  H   UNL     1      -4.315   3.147   4.684  0.00  0.00    +0.145 HD
ATOM     10  H   UNL     1      -4.523   4.722   5.231  0.00  0.00    +0.145 HD
ENDROOT
BRANCH   5  11
ATOM     11  O   UNL     1      -6.099   7.396   1.656  0.00  0.00    -0.492 OA
ATOM     12  H   UNL     1      -6.088   7.931   2.461  0.00  0.00    +0.294 HD
ENDBRANCH   5  11
BRANCH   1  13
ATOM     13  C   UNL     1      -4.412   2.192   2.491  0.00  0.00    +0.163 C 
BRANCH  13  19
ATOM     14  C   UNL     1      -0.040   4.432   1.537  0.00  0.00    +0.044 C 
ATOM     15  C   UNL     1      -0.822   3.193   1.891  0.00  0.00    -0.050 A 
ATOM     16  C   UNL     1      -0.164   1.993   2.083  0.00  0.00    +0.003 A 
ATOM     17  C   UNL     1      -0.882   0.856   2.407  0.00  0.00    +0.004 A 
ATOM     18  C   UNL     1      -2.256   0.921   2.540  0.00  0.00    -0.046 A 
ATOM     19  C   UNL     1      -2.913   2.122   2.347  0.00  0.00    -0.024 A 
ATOM     20  C   UNL     1      -2.195   3.259   2.027  0.00  0.00    +0.009 A 
ATOM     21  C   UNL     1      -3.038  -0.318   2.893  0.00  0.00    +0.044 C 
ENDBRANCH  13  19
ENDBRANCH   1  13
BRANCH   4  22
ATOM     22  C   UNL     1      -6.074   5.694  -0.609  0.00  0.00    +0.081 C 
BRANCH  22  23
ATOM     23  C   UNL     1      -4.856   6.119  -1.389  0.00  0.00    -0.043 A 
ATOM     24  C   UNL     1      -4.431   7.434  -1.344  0.00  0.00    +0.004 A 
ATOM     25  C   UNL     1      -3.312   7.823  -2.055  0.00  0.00    +0.000 A 
ATOM     26  C   UNL     1      -2.623   6.899  -2.819  0.00  0.00    +0.000 A 
ATOM     27  C   UNL     1      -3.051   5.586  -2.868  0.00  0.00    +0.000 A 
ATOM     28  C   UNL     1      -4.167   5.196  -2.153  0.00  0.00    +0.004 A 
ENDBRANCH  22  23
ENDBRANCH   4  22
TORSDOF 5
