REMARK  Name = ZINC04878050
REMARK  11 active torsions:
REMARK  status: ('A' for Active; 'I' for Inactive)
REMARK    1  A    between atoms: C_1  and  C_2
REMARK    2  A    between atoms: C_2  and  C_3
REMARK    3  A    between atoms: C_3  and  C_4
REMARK    4  A    between atoms: C_7  and  S_13
REMARK    5  A    between atoms: N_8  and  C_9
REMARK    6  A    between atoms: C_9  and  C_10
REMARK    7  A    between atoms: C_10  and  O_11
REMARK    8  A    between atoms: O_11  and  C_12
REMARK    9  A    between atoms: S_13  and  C_14
REMARK   10  A    between atoms: C_14  and  C_15
REMARK   11  A    between atoms: C_25  and  C_27
REMARK                            x       y       z     vdW  Elec       q    Type
REMARK                         _______ _______ _______ _____ _____    ______ ____
ROOT
ATOM      1  S   UNL     1      -0.035  -0.317  -2.778  0.00  0.00    -0.077 S 
ENDROOT
BRANCH   1   5
ATOM      2  C   UNL     1       0.024  -0.836   1.088  0.00  0.00    +0.134 A 
ATOM      3  N   UNL     1       0.035  -2.059   0.639  0.00  0.00    -0.134 NA
ATOM      4  N   UNL     1       0.023  -2.058  -0.646  0.00  0.00    -0.122 NA
ATOM      5  C   UNL     1      -0.003  -0.823  -1.091  0.00  0.00    +0.192 A 
ATOM      6  N   UNL     1       0.002  -0.004   0.002  0.00  0.00    -0.304 N 
BRANCH   2   7
ATOM      7  C   UNL     1       0.032  -0.415   2.535  0.00  0.00    +0.076 C 
BRANCH   7   9
ATOM      8  C   UNL     1      -1.399   0.135   4.507  0.00  0.00    +0.004 C 
ATOM      9  C   UNL     1      -1.407  -0.292   3.038  0.00  0.00    +0.004 C 
ENDBRANCH   7   9
ENDBRANCH   2   7
BRANCH   6  10
ATOM     10  C   UNL     1      -0.018   1.461   0.010  0.00  0.00    +0.153 C 
BRANCH  10  11
ATOM     11  C   UNL     1       1.418   1.990  -0.001  0.00  0.00    +0.181 C 
BRANCH  11  12
ATOM     12  O   UNL     1       1.398   3.419   0.007  0.00  0.00    -0.381 OA
ATOM     13  C   UNL     1       2.696   4.018  -0.002  0.00  0.00    +0.194 C 
ENDBRANCH  11  12
ENDBRANCH  10  11
ENDBRANCH   6  10
ENDBRANCH   1   5
BRANCH   1  14
ATOM     14  C   UNL     1      -0.025  -1.934  -3.591  0.00  0.00    +0.173 C 
BRANCH  14  15
ATOM     15  C   UNL     1      -0.050  -1.745  -5.086  0.00  0.00    +0.230 C 
ATOM     16  O   UNL     1      -0.072  -0.627  -5.556  0.00  0.00    -0.274 OA
ATOM     17  N   UNL     1      -0.048  -2.819  -5.901  0.00  0.00    -0.267 N 
ATOM     18  C   UNL     1      -0.024  -4.150  -5.474  0.00  0.00    +0.040 A 
ATOM     19  C   UNL     1       0.002  -4.662  -4.175  0.00  0.00    +0.024 A 
ATOM     20  C   UNL     1       0.022  -6.024  -3.965  0.00  0.00    +0.002 A 
ATOM     21  C   UNL     1       0.017  -6.894  -5.040  0.00  0.00    +0.000 A 
ATOM     22  C   UNL     1      -0.008  -6.395  -6.329  0.00  0.00    +0.005 A 
ATOM     23  C   UNL     1      -0.029  -5.030  -6.544  0.00  0.00    -0.024 A 
ATOM     24  C   UNL     1      -0.059  -4.228  -7.826  0.00  0.00    +0.059 C 
ATOM     25  C   UNL     1      -0.076  -2.762  -7.365  0.00  0.00    +0.083 C 
ATOM     26  C   UNL     1       1.159  -2.028  -7.892  0.00  0.00    +0.029 C 
ENDBRANCH  14  15
ENDBRANCH   1  14
TORSDOF 8
