REMARK  Name = ZINC13495340
REMARK  13 active torsions:
REMARK  status: ('A' for Active; 'I' for Inactive)
REMARK    1  A    between atoms: C_1  and  C_2
REMARK    2  A    between atoms: C_2  and  C_3
REMARK    3  A    between atoms: C_3  and  C_5
REMARK    4  A    between atoms: C_3  and  N_18
REMARK    5  A    between atoms: N_9  and  C_10
REMARK    6  A    between atoms: C_10  and  C_11
REMARK    7  A    between atoms: N_18  and  C_19
REMARK    8  A    between atoms: N_18  and  C_26
REMARK    9  A    between atoms: C_19  and  C_20
REMARK   10  A    between atoms: C_26  and  C_27
REMARK   11  A    between atoms: C_31  and  O_39
REMARK   12  A    between atoms: O_39  and  C_40
REMARK   13  A    between atoms: C_40  and  C_41
REMARK                            x       y       z     vdW  Elec       q    Type
REMARK                         _______ _______ _______ _____ _____    ______ ____
ROOT
ATOM      1  N   UNL     1       2.802  -0.466  -1.087  0.00  0.00    -0.284 NA
ENDROOT
BRANCH   1   2
ATOM      2  C   UNL     1       1.507  -0.634  -1.760  0.00  0.00    +0.127 C 
BRANCH   2   3
ATOM      3  C   UNL     1       1.459  -1.984  -2.429  0.00  0.00    +0.169 A 
ATOM      4  N   UNL     1       1.902  -3.116  -1.938  0.00  0.00    -0.112 NA
ATOM      5  N   UNL     1       1.680  -4.040  -2.808  0.00  0.00    -0.023 NA
ATOM      6  N   UNL     1       1.106  -3.527  -3.840  0.00  0.00    -0.044 NA
ATOM      7  N   UNL     1       0.948  -2.262  -3.642  0.00  0.00    -0.223 N 
BRANCH   7   8
ATOM      8  C   UNL     1       0.332  -1.307  -4.566  0.00  0.00    +0.182 C 
BRANCH   8   9
ATOM      9  C   UNL     1       1.389  -0.732  -5.474  0.00  0.00    -0.026 A 
ATOM     10  C   UNL     1       2.070   0.412  -5.103  0.00  0.00    +0.008 A 
ATOM     11  C   UNL     1       3.040   0.940  -5.934  0.00  0.00    +0.038 A 
ATOM     12  C   UNL     1       3.329   0.322  -7.139  0.00  0.00    +0.123 A 
ATOM     13  C   UNL     1       2.645  -0.824  -7.510  0.00  0.00    +0.038 A 
ATOM     14  C   UNL     1       1.680  -1.353  -6.675  0.00  0.00    +0.008 A 
ATOM     15  F   UNL     1       4.276   0.837  -7.953  0.00  0.00    -0.205 F 
ENDBRANCH   8   9
ENDBRANCH   7   8
ENDBRANCH   2   3
BRANCH   2  17
ATOM     16  C   UNL     1       0.330   0.886  -0.164  0.00  0.00    +0.006 C 
ATOM     17  C   UNL     1       0.380  -0.535  -0.730  0.00  0.00    +0.023 C 
ENDBRANCH   2  17
ENDBRANCH   1   2
BRANCH   1  18
ATOM     18  C   UNL     1       2.750  -0.979   0.289  0.00  0.00    +0.122 C 
BRANCH  18  19
ATOM     19  C   UNL     1       2.821  -2.484   0.268  0.00  0.00    -0.015 A 
ATOM     20  C   UNL     1       1.678  -3.243   0.468  0.00  0.00    +0.008 A 
ATOM     21  C   UNL     1       1.790  -4.625   0.440  0.00  0.00    +0.020 A 
ATOM     22  C   UNL     1       3.029  -5.195   0.215  0.00  0.00    +0.111 A 
ATOM     23  N   UNL     1       4.095  -4.441   0.029  0.00  0.00    -0.263 NA
ATOM     24  C   UNL     1       4.024  -3.124   0.043  0.00  0.00    +0.115 A 
ENDBRANCH  18  19
ENDBRANCH   1  18
BRANCH   1  25
ATOM     25  C   UNL     1       3.229   0.939  -1.109  0.00  0.00    +0.126 C 
BRANCH  25  26
ATOM     26  C   UNL     1       4.700   1.022  -0.794  0.00  0.00    +0.031 A 
ATOM     27  C   UNL     1       5.608   1.036  -1.802  0.00  0.00    +0.020 A 
ATOM     28  C   UNL     1       7.030   1.117  -1.462  0.00  0.00    +0.002 A 
ATOM     29  C   UNL     1       8.010   1.136  -2.460  0.00  0.00    +0.055 A 
ATOM     30  C   UNL     1       9.342   1.213  -2.105  0.00  0.00    +0.121 A 
ATOM     31  C   UNL     1       9.709   1.272  -0.762  0.00  0.00    +0.047 A 
ATOM     32  C   UNL     1       8.753   1.255   0.229  0.00  0.00    +0.030 A 
ATOM     33  C   UNL     1       7.405   1.177  -0.107  0.00  0.00    +0.049 A 
ATOM     34  N   UNL     1       6.432   1.159   0.871  0.00  0.00    -0.322 N 
ATOM     35  H   UNL     1       6.692   1.200   1.805  0.00  0.00    +0.169 HD
ATOM     36  C   UNL     1       5.129   1.090   0.549  0.00  0.00    +0.254 A 
ATOM     37  O   UNL     1       4.296   1.081   1.439  0.00  0.00    -0.268 OA
BRANCH  30  38
ATOM     38  O   UNL     1      10.299   1.231  -3.070  0.00  0.00    -0.492 OA
BRANCH  38  39
ATOM     39  C   UNL     1      11.658   1.312  -2.634  0.00  0.00    +0.225 C 
ATOM     40  C   UNL     1      12.584   1.321  -3.852  0.00  0.00    +0.048 C 
ENDBRANCH  38  39
ENDBRANCH  30  38
ENDBRANCH  25  26
ENDBRANCH   1  25
TORSDOF 11
