REMARK  Name = ZINC67653565
REMARK  11 active torsions:
REMARK  status: ('A' for Active; 'I' for Inactive)
REMARK    1  A    between atoms: C_1  and  C_2
REMARK    2  A    between atoms: C_11  and  S_20
REMARK    3  A    between atoms: N_12  and  C_13
REMARK    4  A    between atoms: C_13  and  C_14
REMARK    5  A    between atoms: S_20  and  C_21
REMARK    6  A    between atoms: C_21  and  C_22
REMARK    7  A    between atoms: C_22  and  O_23
REMARK    8  A    between atoms: O_23  and  C_24
REMARK    9  A    between atoms: C_24  and  C_25
REMARK   10  A    between atoms: C_24  and  C_26
REMARK   11  A    between atoms: C_24  and  C_27
REMARK                            x       y       z     vdW  Elec       q    Type
REMARK                         _______ _______ _______ _____ _____    ______ ____
ROOT
ATOM      1  C   UNL     1      -1.427  -0.073  -2.205  0.00  0.00    +0.007 C 
ATOM      2  C   UNL     1      -0.663  -0.758  -1.071  0.00  0.00    -0.011 C 
ATOM      3  C   UNL     1      -0.832  -2.275  -1.185  0.00  0.00    +0.022 C 
ATOM      4  C   UNL     1      -0.094  -2.956  -0.028  0.00  0.00    +0.108 C 
ATOM      5  N   UNL     1       1.304  -2.503  -0.027  0.00  0.00    -0.300 N 
ATOM      6  C   UNL     1       1.579  -1.060  -0.011  0.00  0.00    +0.108 C 
ATOM      7  C   UNL     1       0.822  -0.401  -1.168  0.00  0.00    +0.022 C 
ATOM      8  C   UNL     1       2.345  -3.422  -0.041  0.00  0.00    +0.220 A 
ATOM      9  N   UNL     1       2.858  -3.989  -1.106  0.00  0.00    -0.112 NA
ATOM     10  N   UNL     1       3.883  -4.847  -0.688  0.00  0.00    -0.121 NA
ATOM     11  C   UNL     1       3.963  -4.777   0.618  0.00  0.00    +0.193 A 
ATOM     12  N   UNL     1       3.019  -3.889   1.052  0.00  0.00    -0.288 N 
ENDROOT
BRANCH  12  13
ATOM     13  C   UNL     1       2.769  -3.509   2.444  0.00  0.00    +0.158 C 
BRANCH  13  14
ATOM     14  C   UNL     1       1.842  -4.536   3.096  0.00  0.00    +0.138 C 
ATOM     15  C   UNL     1       1.637  -4.202   4.595  0.00  0.00    +0.035 C 
ATOM     16  C   UNL     1       0.268  -4.883   4.864  0.00  0.00    +0.031 C 
ATOM     17  C   UNL     1      -0.464  -4.690   3.519  0.00  0.00    +0.160 C 
ATOM     18  O   UNL     1       0.531  -4.466   2.512  0.00  0.00    -0.375 OA
ENDBRANCH  13  14
ENDBRANCH  12  13
BRANCH  11  19
ATOM     19  S   UNL     1       5.095  -5.664   1.636  0.00  0.00    -0.084 S 
BRANCH  19  20
ATOM     20  C   UNL     1       6.066  -6.647   0.460  0.00  0.00    +0.105 C 
BRANCH  20  21
ATOM     21  C   UNL     1       7.101  -7.478   1.221  0.00  0.00    +0.171 C 
BRANCH  21  22
ATOM     22  O   UNL     1       7.865  -8.252   0.294  0.00  0.00    -0.373 OA
BRANCH  22  23
ATOM     23  C   UNL     1       8.866  -9.068   0.906  0.00  0.00    +0.061 C 
ATOM     24  C   UNL     1       8.202 -10.049   1.874  0.00  0.00    +0.041 C 
ATOM     25  C   UNL     1       9.618  -9.848  -0.175  0.00  0.00    +0.041 C 
ATOM     26  C   UNL     1       9.849  -8.181   1.673  0.00  0.00    +0.041 C 
ENDBRANCH  22  23
ENDBRANCH  21  22
ENDBRANCH  20  21
ENDBRANCH  19  20
ENDBRANCH  11  19
TORSDOF 7
