REMARK  Name = ZINC00254980
REMARK  7 active torsions:
REMARK  status: ('A' for Active; 'I' for Inactive)
REMARK    1  A    between atoms: C_1  and  C_2
REMARK    2  A    between atoms: C_2  and  C_3
REMARK    3  A    between atoms: C_2  and  C_4
REMARK    4  A    between atoms: C_2  and  N_5
REMARK    5  A    between atoms: C_6  and  C_8
REMARK    6  A    between atoms: C_10  and  C_20
REMARK    7  A    between atoms: N_12  and  C_13
REMARK                            x       y       z     vdW  Elec       q    Type
REMARK                         _______ _______ _______ _____ _____    ______ ____
ROOT
ATOM      1  C   UNL     1      -0.008   1.412   0.164  0.00  0.00    +0.130 A 
ATOM      2  C   UNL     1       1.314   1.743   0.363  0.00  0.00    +0.066 A 
ATOM      3  C   UNL     1       2.087   0.611   0.057  0.00  0.00    +0.129 A 
ATOM      4  N   UNL     1       1.275  -0.362  -0.312  0.00  0.00    -0.163 NA
ATOM      5  N   UNL     1      -0.043   0.108  -0.256  0.00  0.00    -0.227 N 
ENDROOT
BRANCH   5   6
ATOM      6  C   UNL     1      -1.192  -0.626  -0.571  0.00  0.00    +0.066 A 
ATOM      7  C   UNL     1      -1.411  -1.864   0.020  0.00  0.00    +0.030 A 
ATOM      8  C   UNL     1      -2.548  -2.584  -0.290  0.00  0.00    +0.040 A 
ATOM      9  C   UNL     1      -3.465  -2.077  -1.196  0.00  0.00    +0.124 A 
ATOM     10  C   UNL     1      -3.246  -0.845  -1.790  0.00  0.00    +0.040 A 
ATOM     11  C   UNL     1      -2.113  -0.119  -1.480  0.00  0.00    +0.030 A 
ATOM     12  F   UNL     1      -4.574  -2.785  -1.501  0.00  0.00    -0.205 F 
ENDBRANCH   5   6
BRANCH   3  13
ATOM     13  C   UNL     1       3.561   0.525   0.134  0.00  0.00    +0.155 A 
ATOM     14  C   UNL     1       4.312  -0.570  -0.157  0.00  0.00    +0.051 A 
ATOM     15  C   UNL     1       5.658  -0.206   0.050  0.00  0.00    +0.042 A 
ATOM     16  C   UNL     1       5.661   1.077   0.461  0.00  0.00    +0.196 A 
ATOM     17  O   UNL     1       4.392   1.515   0.510  0.00  0.00    -0.461 OA
ENDBRANCH   3  13
BRANCH   1  19
ATOM     18  N   UNL     1      -2.417   1.795   0.287  0.00  0.00    -0.305 N 
ATOM     19  C   UNL     1      -1.168   2.296   0.358  0.00  0.00    +0.263 C 
ATOM     20  O   UNL     1      -1.000   3.480   0.582  0.00  0.00    -0.269 OA
ATOM     21  H   UNL     1      -2.551   0.839   0.191  0.00  0.00    +0.150 HD
BRANCH  18  23
ATOM     22  C   UNL     1      -3.510   3.694  -0.798  0.00  0.00    +0.031 C 
ATOM     23  C   UNL     1      -3.572   2.693   0.358  0.00  0.00    +0.027 C 
ATOM     24  C   UNL     1      -4.861   1.875   0.255  0.00  0.00    +0.031 C 
ATOM     25  C   UNL     1      -3.551   3.448   1.688  0.00  0.00    +0.031 C 
ENDBRANCH  18  23
ENDBRANCH   1  19
TORSDOF 4
