REMARK  Name = ZINC15016396
REMARK  4 active torsions:
REMARK  status: ('A' for Active; 'I' for Inactive)
REMARK    1  A    between atoms: C_1  and  S_2
REMARK    2  A    between atoms: S_2  and  C_3
REMARK    3  A    between atoms: C_16  and  C_19
REMARK    4  A    between atoms: C_22  and  O_26
REMARK                            x       y       z     vdW  Elec       q    Type
REMARK                         _______ _______ _______ _____ _____    ______ ____
ROOT
ATOM      1  C   UNL     1      -1.949  -8.213   0.543  0.00  0.00    +0.212 A 
ATOM      2  N   UNL     1      -1.718  -6.942   0.857  0.00  0.00    -0.184 NA
ATOM      3  C   UNL     1      -1.494  -6.068  -0.110  0.00  0.00    +0.248 A 
ATOM      4  C   UNL     1      -1.503  -6.520  -1.449  0.00  0.00    +0.156 A 
ATOM      5  N   UNL     1      -1.742  -7.800  -1.693  0.00  0.00    -0.141 NA
ATOM      6  N   UNL     1      -1.958  -8.617  -0.721  0.00  0.00    -0.122 NA
ATOM      7  C   UNL     1      -1.246  -5.562  -2.545  0.00  0.00    +0.029 A 
ATOM      8  C   UNL     1      -2.051  -5.518  -3.676  0.00  0.00    +0.027 A 
ATOM      9  C   UNL     1      -1.758  -4.629  -4.693  0.00  0.00    +0.019 A 
ATOM     10  C   UNL     1      -0.666  -3.783  -4.591  0.00  0.00    +0.017 A 
ATOM     11  C   UNL     1       0.140  -3.812  -3.467  0.00  0.00    +0.025 A 
ATOM     12  C   UNL     1      -0.145  -4.692  -2.439  0.00  0.00    +0.040 A 
ATOM     13  N   UNL     1       0.639  -4.738  -1.281  0.00  0.00    -0.305 N 
ATOM     14  C   UNL     1       0.061  -4.278  -0.022  0.00  0.00    +0.294 C 
ATOM     15  O   UNL     1      -1.265  -4.761   0.158  0.00  0.00    -0.449 OA
ATOM     16 BR   UNL     1      -2.853  -4.567  -6.233  0.00  0.00    -0.050 Br
ATOM     17  H   UNL     1       1.550  -5.069  -1.314  0.00  0.00    +0.150 HD
ENDROOT
BRANCH  14  18
ATOM     18  C   UNL     1       0.040  -2.771  -0.013  0.00  0.00    +0.012 A 
ATOM     19  C   UNL     1      -1.040  -2.099   0.528  0.00  0.00    +0.012 A 
ATOM     20  C   UNL     1      -1.060  -0.718   0.543  0.00  0.00    +0.047 A 
ATOM     21  C   UNL     1       0.000  -0.004   0.003  0.00  0.00    +0.131 A 
ATOM     22  C   UNL     1       1.084  -0.680  -0.540  0.00  0.00    +0.060 A 
ATOM     23  C   UNL     1       1.101  -2.063  -0.546  0.00  0.00    +0.027 A 
ATOM     24 BR   UNL     1       2.535   0.288  -1.270  0.00  0.00    -0.047 Br
BRANCH  21  25
ATOM     25  O   UNL     1      -0.019   1.355   0.011  0.00  0.00    -0.506 OA
ATOM     26  H   UNL     1      -0.421   1.747  -0.776  0.00  0.00    +0.292 HD
ENDBRANCH  21  25
ENDBRANCH  14  18
BRANCH   1  28
ATOM     27  C   UNL     1      -2.485 -10.880   0.841  0.00  0.00    +0.093 C 
ATOM     28  S   UNL     1      -2.247  -9.382   1.828  0.00  0.00    -0.088 S 
ENDBRANCH   1  28
TORSDOF 3
