REMARK  Name = ZINC08739084
REMARK  4 active torsions:
REMARK  status: ('A' for Active; 'I' for Inactive)
REMARK    1  A    between atoms: C_4  and  O_7
REMARK    2  A    between atoms: O_7  and  C_8
REMARK    3  A    between atoms: C_12  and  C_14
REMARK    4  A    between atoms: N_15  and  N_16
REMARK                            x       y       z     vdW  Elec       q    Type
REMARK                         _______ _______ _______ _____ _____    ______ ____
ROOT
ATOM      1  N   UNL     1       2.318   0.949  -0.251  0.00  0.00    -0.183 N 
ATOM      2  C   UNL     1       2.266  -0.502  -0.311  0.00  0.00    +0.230 C 
ATOM      3  C   UNL     1       3.623  -1.107  -0.471  0.00  0.00    +0.236 C 
ATOM      4  O   UNL     1       3.698  -2.314  -0.557  0.00  0.00    -0.274 OA
ATOM      5  N   UNL     1       4.759  -0.408  -0.519  0.00  0.00    -0.282 N 
ATOM      6  C   UNL     1       6.030  -1.121  -0.766  0.00  0.00    +0.162 C 
ATOM      7  C   UNL     1       7.049  -0.580   0.211  0.00  0.00    +0.038 A 
ATOM      8  C   UNL     1       6.851   0.528   0.958  0.00  0.00    -0.015 A 
ATOM      9  C   UNL     1       8.045   0.719   1.757  0.00  0.00    +0.003 A 
ATOM     10  C   UNL     1       8.409   1.684   2.701  0.00  0.00    +0.010 A 
ATOM     11  C   UNL     1       9.649   1.553   3.276  0.00  0.00    +0.001 A 
ATOM     12  C   UNL     1      10.507   0.517   2.945  0.00  0.00    +0.002 A 
ATOM     13  C   UNL     1      10.172  -0.452   2.015  0.00  0.00    +0.026 A 
ATOM     14  C   UNL     1       8.920  -0.344   1.415  0.00  0.00    +0.047 A 
ATOM     15  N   UNL     1       8.284  -1.108   0.478  0.00  0.00    -0.356 N 
ATOM     16  H   UNL     1       8.652  -1.905   0.065  0.00  0.00    +0.166 HD
ATOM     17  C   UNL     1       5.601   1.370   0.929  0.00  0.00    +0.069 C 
ATOM     18  C   UNL     1       4.813   1.044  -0.347  0.00  0.00    +0.169 C 
ATOM     19  C   UNL     1       3.450   1.651  -0.265  0.00  0.00    +0.256 C 
ATOM     20  O   UNL     1       3.369   2.860  -0.208  0.00  0.00    -0.272 OA
ENDROOT
BRANCH   1  22
ATOM     21  C   UNL     1      -0.017   1.003  -0.151  0.00  0.00    +0.138 C 
ATOM     22  N   UNL     1       1.108   1.650  -0.168  0.00  0.00    -0.184 NA
BRANCH  21  27
ATOM     23  C   UNL     1      -3.695   1.749   0.019  0.00  0.00    +0.129 A 
ATOM     24  C   UNL     1      -3.683   3.136   0.084  0.00  0.00    +0.046 A 
ATOM     25  C   UNL     1      -2.484   3.824   0.072  0.00  0.00    +0.004 A 
ATOM     26  C   UNL     1      -1.290   3.137  -0.004  0.00  0.00    +0.010 A 
ATOM     27  C   UNL     1      -1.291   1.742  -0.070  0.00  0.00    -0.002 A 
ATOM     28  C   UNL     1      -2.503   1.049  -0.064  0.00  0.00    +0.055 A 
BRANCH  23  29
ATOM     29  O   UNL     1      -4.877   1.079   0.031  0.00  0.00    -0.456 OA
BRANCH  29  33
ATOM     30  C   UNL     1      -5.749  -1.248   3.325  0.00  0.00    +0.000 A 
ATOM     31  C   UNL     1      -6.587  -1.267   2.225  0.00  0.00    +0.004 A 
ATOM     32  C   UNL     1      -6.297  -0.489   1.121  0.00  0.00    +0.046 A 
ATOM     33  C   UNL     1      -5.164   0.312   1.116  0.00  0.00    +0.128 A 
ATOM     34  C   UNL     1      -4.323   0.326   2.220  0.00  0.00    +0.046 A 
ATOM     35  C   UNL     1      -4.620  -0.450   3.323  0.00  0.00    +0.004 A 
ENDBRANCH  29  33
ENDBRANCH  23  29
ENDBRANCH  21  27
ENDBRANCH   1  22
TORSDOF 4
