REMARK  Name = ZINC64024105
REMARK  5 active torsions:
REMARK  status: ('A' for Active; 'I' for Inactive)
REMARK    1  A    between atoms: C_8  and  C_26
REMARK    2  A    between atoms: C_16  and  C_18
REMARK    3  A    between atoms: C_18  and  C_19
REMARK    4  A    between atoms: C_19  and  C_20
REMARK    5  A    between atoms: C_20  and  C_21
REMARK                            x       y       z     vdW  Elec       q    Type
REMARK                         _______ _______ _______ _____ _____    ______ ____
ROOT
ATOM      1  C   UNL     1      -0.197   0.905  -0.731  0.00  0.00    +0.001 A 
ATOM      2  C   UNL     1       0.959   1.656  -0.981  0.00  0.00    +0.002 A 
ATOM      3  C   UNL     1       2.198   1.121  -0.938  0.00  0.00    +0.026 A 
ATOM      4  C   UNL     1       2.379  -0.254  -0.630  0.00  0.00    +0.043 A 
ATOM      5  N   UNL     1       3.463  -0.986  -0.510  0.00  0.00    -0.375 N 
ATOM      6  C   UNL     1       3.064  -2.368  -0.252  0.00  0.00    +0.133 C 
ATOM      7  C   UNL     1       3.668  -2.904   1.050  0.00  0.00    +0.151 C 
ATOM      8  N   UNL     1       2.916  -4.109   1.435  0.00  0.00    -0.290 N 
ATOM      9  C   UNL     1       1.473  -4.038   1.690  0.00  0.00    +0.113 C 
ATOM     10  C   UNL     1       0.759  -3.504   0.435  0.00  0.00    +0.052 C 
ATOM     11  C   UNL     1       1.555  -2.325  -0.076  0.00  0.00    -0.035 C 
ATOM     12  C   UNL     1       1.172  -1.071  -0.353  0.00  0.00    -0.001 A 
ATOM     13  C   UNL     1      -0.138  -0.411  -0.425  0.00  0.00    +0.010 A 
ATOM     14  C   UNL     1       3.558  -5.288   1.553  0.00  0.00    +0.216 C 
ATOM     15  O   UNL     1       4.765  -5.335   1.442  0.00  0.00    -0.276 OA
ATOM     16  H   UNL     1       4.375  -0.664  -0.580  0.00  0.00    +0.160 HD
ENDROOT
BRANCH   7  17
ATOM     17  C   UNL     1       5.118  -3.255   0.834  0.00  0.00    +0.064 A 
ATOM     18  C   UNL     1       6.066  -2.840   1.750  0.00  0.00    +0.025 A 
ATOM     19  C   UNL     1       7.396  -3.167   1.541  0.00  0.00    +0.003 A 
ATOM     20  C   UNL     1       7.726  -3.904   0.413  0.00  0.00    +0.020 A 
ATOM     21  C   UNL     1       6.724  -4.283  -0.459  0.00  0.00    +0.111 A 
ATOM     22  N   UNL     1       5.467  -3.958  -0.226  0.00  0.00    -0.258 NA
ENDBRANCH   7  17
BRANCH  14  23
ATOM     23  C   UNL     1       2.777  -6.548   1.823  0.00  0.00    +0.096 C 
BRANCH  23  24
ATOM     24  C   UNL     1       3.738  -7.735   1.911  0.00  0.00    +0.014 C 
BRANCH  24  25
ATOM     25  C   UNL     1       2.944  -9.014   2.186  0.00  0.00    +0.043 C 
BRANCH  25  26
ATOM     26  C   UNL     1       3.891 -10.184   2.272  0.00  0.00    -0.010 A 
ATOM     27  C   UNL     1       4.524 -10.690   3.358  0.00  0.00    +0.011 A 
ATOM     28  C   UNL     1       5.356 -11.783   3.200  0.00  0.00    +0.008 A 
ATOM     29  C   UNL     1       5.514 -12.315   1.963  0.00  0.00    +0.045 A 
ATOM     30  S   UNL     1       4.462 -11.266   0.973  0.00  0.00    -0.102 S 
ENDBRANCH  25  26
ENDBRANCH  24  25
ENDBRANCH  23  24
ENDBRANCH  14  23
TORSDOF 5
