REMARK  Name = ZINC20731328
REMARK  11 active torsions:
REMARK  status: ('A' for Active; 'I' for Inactive)
REMARK    1  A    between atoms: C_1  and  O_2
REMARK    2  A    between atoms: O_2  and  C_3
REMARK    3  A    between atoms: C_6  and  C_10
REMARK    4  A    between atoms: N_23  and  C_24
REMARK    5  A    between atoms: C_24  and  C_26
REMARK    6  A    between atoms: C_24  and  C_30
REMARK    7  A    between atoms: C_26  and  C_27
REMARK    8  A    between atoms: C_27  and  S_28
REMARK    9  A    between atoms: S_28  and  C_29
REMARK   10  A    between atoms: C_30  and  O_32
REMARK   11  A    between atoms: O_32  and  C_33
REMARK                            x       y       z     vdW  Elec       q    Type
REMARK                         _______ _______ _______ _____ _____    ______ ____
ROOT
ATOM      1  C   UNL     1       2.500  -2.495  -4.382  0.00  0.00    +0.159 C 
ATOM      2  C   UNL     1       3.938  -2.808  -4.043  0.00  0.00    +0.062 A 
ATOM      3  C   UNL     1       4.993  -2.151  -4.570  0.00  0.00    +0.040 A 
ATOM      4  N   UNL     1       6.115  -2.703  -4.030  0.00  0.00    -0.349 N 
ATOM      5  H   UNL     1       7.031  -2.442  -4.213  0.00  0.00    +0.166 HD
ATOM      6  C   UNL     1       5.710  -3.684  -3.191  0.00  0.00    +0.171 A 
ATOM      7  N   UNL     1       4.404  -3.738  -3.206  0.00  0.00    -0.348 N 
ATOM      8  C   UNL     1       4.895  -1.029  -5.570  0.00  0.00    +0.074 C 
ATOM      9  C   UNL     1       3.467  -0.470  -5.548  0.00  0.00    +0.116 C 
ATOM     10  N   UNL     1       2.510  -1.588  -5.544  0.00  0.00    -0.273 N 
ATOM     11  C   UNL     1       1.666  -1.780  -6.577  0.00  0.00    +0.304 C 
ATOM     12  O   UNL     1       1.744  -1.076  -7.565  0.00  0.00    -0.253 OA
ATOM     13  N   UNL     1       0.736  -2.754  -6.515  0.00  0.00    -0.286 N 
ATOM     14  H   UNL     1       0.626  -3.268  -5.700  0.00  0.00    +0.151 HD
ATOM     15  H   UNL     1       3.861  -4.356  -2.692  0.00  0.00    +0.167 HD
ENDROOT
BRANCH   1  19
ATOM     16  C   UNL     1       0.607  -0.581  -1.061  0.00  0.00    +0.123 A 
ATOM     17  C   UNL     1       1.989  -0.689  -1.106  0.00  0.00    +0.046 A 
ATOM     18  C   UNL     1       2.599  -1.308  -2.180  0.00  0.00    +0.012 A 
ATOM     19  C   UNL     1       1.832  -1.820  -3.211  0.00  0.00    +0.014 A 
ATOM     20  C   UNL     1       0.452  -1.714  -3.169  0.00  0.00    +0.132 A 
ATOM     21  C   UNL     1      -0.162  -1.100  -2.092  0.00  0.00    +0.084 A 
ATOM     22  F   UNL     1      -0.295  -2.215  -4.177  0.00  0.00    -0.205 F 
BRANCH  16  24
ATOM     23  C   UNL     1       0.860   0.539   1.021  0.00  0.00    +0.277 C 
ATOM     24  O   UNL     1       0.006   0.028  -0.005  0.00  0.00    -0.495 OA
ENDBRANCH  16  24
ENDBRANCH   1  19
BRANCH  13  25
ATOM     25  C   UNL     1      -0.108  -3.035  -7.678  0.00  0.00    +0.184 C 
BRANCH  25  26
ATOM     26  C   UNL     1      -1.292  -2.103  -7.677  0.00  0.00    +0.327 C 
ATOM     27  O   UNL     1      -1.418  -1.287  -6.795  0.00  0.00    -0.249 OA
BRANCH  26  28
ATOM     28  O   UNL     1      -2.207  -2.179  -8.656  0.00  0.00    -0.467 OA
ATOM     29  C   UNL     1      -3.304  -1.264  -8.592  0.00  0.00    +0.280 C 
ENDBRANCH  26  28
ENDBRANCH  25  26
BRANCH  25  30
ATOM     30  C   UNL     1      -0.599  -4.483  -7.614  0.00  0.00    +0.044 C 
BRANCH  30  31
ATOM     31  C   UNL     1       0.594  -5.432  -7.741  0.00  0.00    +0.071 C 
BRANCH  31  32
ATOM     32  S   UNL     1       0.012  -7.148  -7.665  0.00  0.00    -0.164 S 
ATOM     33  C   UNL     1       1.526  -8.133  -7.827  0.00  0.00    +0.084 C 
ENDBRANCH  31  32
ENDBRANCH  30  31
ENDBRANCH  25  30
ENDBRANCH  13  25
TORSDOF 8
