REMARK  Name = ZINC35969215
REMARK  13 active torsions:
REMARK  status: ('A' for Active; 'I' for Inactive)
REMARK    1  A    between atoms: C_1  and  C_2
REMARK    2  A    between atoms: C_5  and  C_9
REMARK    3  A    between atoms: C_6  and  C_8
REMARK    4  A    between atoms: N_14  and  C_17
REMARK    5  A    between atoms: C_17  and  C_19
REMARK    6  A    between atoms: C_17  and  C_22
REMARK    7  A    between atoms: C_19  and  C_20
REMARK    8  A    between atoms: C_19  and  C_21
REMARK    9  A    between atoms: N_24  and  C_25
REMARK   10  A    between atoms: C_25  and  C_26
REMARK   11  A    between atoms: C_26  and  C_27
REMARK   12  A    between atoms: C_26  and  C_28
REMARK   13  A    between atoms: N_29  and  C_33
REMARK                            x       y       z     vdW  Elec       q    Type
REMARK                         _______ _______ _______ _____ _____    ______ ____
ROOT
ATOM      1  C   UNL     1      -0.794  -4.098  -0.871  0.00  0.00    +0.142 C 
ATOM      2  C   UNL     1      -2.042  -4.689  -0.248  0.00  0.00    +0.058 C 
ATOM      3  C   UNL     1      -2.739  -5.589  -0.972  0.00  0.00    +0.042 C 
ATOM      4  C   UNL     1      -3.915  -6.004  -0.117  0.00  0.00    +0.160 C 
ATOM      5  N   UNL     1      -3.769  -5.234   1.127  0.00  0.00    -0.280 N 
ATOM      6  C   UNL     1      -2.661  -4.481   1.002  0.00  0.00    +0.247 C 
ATOM      7  O   UNL     1      -2.246  -3.720   1.857  0.00  0.00    -0.270 OA
ATOM      8  N   UNL     1      -2.334  -5.955  -2.224  0.00  0.00    -0.260 N 
ATOM      9  C   UNL     1      -1.240  -5.466  -2.822  0.00  0.00    +0.307 C 
ATOM     10  O   UNL     1      -0.958  -5.852  -3.940  0.00  0.00    -0.252 OA
ATOM     11  N   UNL     1      -0.443  -4.559  -2.225  0.00  0.00    -0.288 N 
ATOM     12  C   UNL     1      -3.140  -6.939  -2.952  0.00  0.00    +0.139 C 
ATOM     13  H   UNL     1       0.344  -4.217  -2.677  0.00  0.00    +0.151 HD
ENDROOT
BRANCH   1  18
ATOM     14  C   UNL     1      -1.440   1.642  -1.050  0.00  0.00    +0.044 C 
ATOM     15  C   UNL     1      -1.271   0.145  -1.004  0.00  0.00    -0.050 A 
ATOM     16  C   UNL     1      -2.384  -0.675  -0.962  0.00  0.00    +0.004 A 
ATOM     17  C   UNL     1      -2.229  -2.048  -0.919  0.00  0.00    +0.006 A 
ATOM     18  C   UNL     1      -0.962  -2.601  -0.919  0.00  0.00    -0.020 A 
ATOM     19  C   UNL     1       0.150  -1.782  -0.961  0.00  0.00    -0.045 A 
ATOM     20  C   UNL     1      -0.005  -0.408  -1.008  0.00  0.00    +0.007 A 
ATOM     21  C   UNL     1       1.531  -2.385  -0.960  0.00  0.00    +0.044 C 
ENDBRANCH   1  18
BRANCH   5  22
ATOM     22  C   UNL     1      -4.663  -5.278   2.286  0.00  0.00    +0.165 C 
BRANCH  22  23
ATOM     23  C   UNL     1      -5.235  -3.906   2.532  0.00  0.00    +0.234 C 
ATOM     24  O   UNL     1      -4.720  -2.934   2.022  0.00  0.00    -0.274 OA
ATOM     25  N   UNL     1      -6.320  -3.759   3.319  0.00  0.00    -0.314 N 
ATOM     26  H   UNL     1      -6.687  -4.525   3.787  0.00  0.00    +0.149 HD
BRANCH  25  27
ATOM     27  C   UNL     1      -6.944  -2.442   3.467  0.00  0.00    +0.107 C 
BRANCH  27  28
ATOM     28  C   UNL     1      -8.147  -2.550   4.406  0.00  0.00    -0.000 C 
ATOM     29  C   UNL     1      -8.723  -1.156   4.660  0.00  0.00    +0.009 C 
ATOM     30  C   UNL     1      -9.217  -3.436   3.764  0.00  0.00    +0.009 C 
ENDBRANCH  27  28
ENDBRANCH  25  27
ENDBRANCH  22  23
BRANCH  22  31
ATOM     31  C   UNL     1      -3.878  -5.732   3.519  0.00  0.00    +0.012 C 
ATOM     32  C   UNL     1      -4.835  -5.895   4.701  0.00  0.00    +0.009 C 
ATOM     33  C   UNL     1      -3.197  -7.070   3.225  0.00  0.00    +0.009 C 
ENDBRANCH  22  31
ENDBRANCH   5  22
TORSDOF 6
