REMARK  Name = ZINC21360197
REMARK  10 active torsions:
REMARK  status: ('A' for Active; 'I' for Inactive)
REMARK    1  A    between atoms: C_1  and  C_2
REMARK    2  A    between atoms: C_2  and  C_3
REMARK    3  A    between atoms: C_2  and  C_4
REMARK    4  A    between atoms: C_2  and  C_26
REMARK    5  A    between atoms: C_4  and  N_5
REMARK    6  A    between atoms: N_5  and  C_6
REMARK    7  A    between atoms: N_16  and  C_19
REMARK    8  A    between atoms: C_26  and  N_27
REMARK    9  A    between atoms: N_27  and  C_28
REMARK   10  A    between atoms: N_27  and  C_29
REMARK                            x       y       z     vdW  Elec       q    Type
REMARK                         _______ _______ _______ _____ _____    ______ ____
ROOT
ATOM      1  C   UNL     1       5.416   4.442   2.145  0.00  0.00    +0.081 C 
ATOM      2  C   UNL     1       5.202   3.766   0.965  0.00  0.00    +0.059 C 
ATOM      3  C   UNL     1       6.334   3.302   0.137  0.00  0.00    +0.000 A 
ATOM      4  C   UNL     1       7.654   3.526   0.511  0.00  0.00    +0.009 A 
ATOM      5  C   UNL     1       8.677   3.074  -0.297  0.00  0.00    +0.001 A 
ATOM      6  C   UNL     1       8.398   2.399  -1.476  0.00  0.00    +0.001 A 
ATOM      7  C   UNL     1       7.096   2.167  -1.864  0.00  0.00    +0.014 A 
ATOM      8  C   UNL     1       6.047   2.616  -1.061  0.00  0.00    +0.046 A 
ATOM      9  C   UNL     1       4.645   2.390  -1.437  0.00  0.00    +0.258 C 
ATOM     10  O   UNL     1       4.391   1.798  -2.469  0.00  0.00    -0.269 OA
ATOM     11  N   UNL     1       3.640   2.825  -0.661  0.00  0.00    -0.201 N 
ATOM     12  C   UNL     1       3.841   3.489   0.489  0.00  0.00    +0.259 C 
ATOM     13  O   UNL     1       2.886   3.861   1.145  0.00  0.00    -0.269 OA
ENDROOT
BRANCH  11  14
ATOM     14  C   UNL     1       2.322   2.581  -1.071  0.00  0.00    +0.063 A 
ATOM     15  C   UNL     1       1.676   1.416  -0.679  0.00  0.00    +0.025 A 
ATOM     16  C   UNL     1       0.378   1.177  -1.085  0.00  0.00    +0.002 A 
ATOM     17  C   UNL     1      -0.278   2.095  -1.886  0.00  0.00    +0.002 A 
ATOM     18  C   UNL     1       0.360   3.259  -2.274  0.00  0.00    +0.022 A 
ATOM     19  C   UNL     1       1.660   3.503  -1.871  0.00  0.00    +0.063 A 
ATOM     20 CL   UNL     1       2.462   4.962  -2.363  0.00  0.00    -0.082 Cl
ENDBRANCH  11  14
BRANCH   1  21
ATOM     21  N   UNL     1       6.550   5.171   2.314  0.00  0.00    -0.349 N 
ATOM     22  H   UNL     1       7.242   5.315   1.471  0.00  0.00    +0.146 HD
BRANCH  21  23
ATOM     23  C   UNL     1       6.851   5.767   3.619  0.00  0.00    +0.105 C 
BRANCH  23  25
ATOM     24  C   UNL     1       9.296   5.565   3.147  0.00  0.00    +0.010 C 
ATOM     25  C   UNL     1       8.175   6.529   3.538  0.00  0.00    -0.034 C 
ATOM     26  C   UNL     1       8.063   7.635   2.486  0.00  0.00    +0.010 C 
BRANCH  25  27
ATOM     27  C   UNL     1       8.489   7.151   4.900  0.00  0.00    -0.072 C 
BRANCH  27  28
ATOM     28  N   UNL     1       9.820   7.771   4.860  0.00  0.00    +0.376 N 
ATOM     29  C   UNL     1       9.745   9.148   4.356  0.00  0.00    -0.097 C 
ATOM     30  C   UNL     1      10.461   7.728   6.182  0.00  0.00    -0.097 C 
ATOM     31  H   UNL     1      10.443   7.189   4.164  0.00  0.00    -0.083 HD
ENDBRANCH  27  28
ENDBRANCH  25  27
ENDBRANCH  23  25
ENDBRANCH  21  23
ENDBRANCH   1  21
TORSDOF 6
