REMARK  Name = ZINC39691531
REMARK  9 active torsions:
REMARK  status: ('A' for Active; 'I' for Inactive)
REMARK    1  A    between atoms: CG_7  and  CB_10
REMARK    2  A    between atoms: CB_10  and  CA_11
REMARK    3  A    between atoms: CA_11  and  C_13
REMARK    4  A    between atoms: CA_11  and  N_16
REMARK    5  A    between atoms: C_17  and  C_19
REMARK    6  A    between atoms: C_19  and  S_20
REMARK    7  A    between atoms: S_20  and  C_21
REMARK    8  A    between atoms: C_25  and  N_28
REMARK    9  A    between atoms: N_28  and  C_29
REMARK                            x       y       z     vdW  Elec       q    Type
REMARK                         _______ _______ _______ _____ _____    ______ ____
ROOT
ATOM      1  N   TRP A   1      -3.384   3.313  -2.500  0.00  0.00    -0.301 N 
ATOM      2  C   UNK A   0      -3.087   3.298  -3.815  0.00  0.00    +0.224 C 
ATOM      3  O   UNK A   0      -3.965   3.121  -4.632  0.00  0.00    -0.275 OA
ATOM      4  H   TRP A   1      -2.681   3.455  -1.846  0.00  0.00    +0.150 HD
ENDROOT
BRANCH   1   5
ATOM      5  CA  TRP A   1      -4.766   3.116  -2.059  0.00  0.00    +0.191 C 
BRANCH   5   6
ATOM      6  C   TRP A   1      -5.497   4.433  -2.091  0.00  0.00    +0.376 C 
ATOM      7  O   TRP A   1      -4.880   5.469  -2.271  0.00  0.00    -0.244 OA
ATOM      8  OXT TRP A   1      -6.706   4.463  -1.937  0.00  0.00    -0.244 OA
ENDBRANCH   5   6
BRANCH   5   9
ATOM      9  CB  TRP A   1      -4.772   2.564  -0.631  0.00  0.00    +0.071 C 
BRANCH   9  16
ATOM     10  CZ3 TRP A   1      -0.344   1.052  -0.353  0.00  0.00    +0.001 A 
ATOM     11  CH2 TRP A   1      -0.242  -0.332  -0.380  0.00  0.00    +0.002 A 
ATOM     12  CZ2 TRP A   1      -1.370  -1.117  -0.480  0.00  0.00    +0.026 A 
ATOM     13  CE2 TRP A   1      -2.624  -0.520  -0.554  0.00  0.00    +0.047 A 
ATOM     14  NE1 TRP A   1      -3.905  -1.014  -0.658  0.00  0.00    -0.360 N 
ATOM     15  CD1 TRP A   1      -4.800   0.020  -0.696  0.00  0.00    +0.087 A 
ATOM     16  CG  TRP A   1      -4.150   1.192  -0.621  0.00  0.00    -0.020 A 
ATOM     17  CD2 TRP A   1      -2.721   0.883  -0.526  0.00  0.00    +0.003 A 
ATOM     18  CE3 TRP A   1      -1.566   1.660  -0.420  0.00  0.00    +0.010 A 
ATOM     19  HE1 TRP A   1      -4.138  -1.955  -0.698  0.00  0.00    +0.165 HD
ENDBRANCH   9  16
ENDBRANCH   5   9
ENDBRANCH   1   5
BRANCH   2  20
ATOM     20  C   UNK A   0      -1.665   3.502  -4.269  0.00  0.00    +0.167 C 
BRANCH  20  21
ATOM     21  S   UNK A   0      -1.591   3.428  -6.080  0.00  0.00    -0.121 S 
BRANCH  21  22
ATOM     22  C   UNK A   0       0.163   3.687  -6.459  0.00  0.00    +0.184 C 
ATOM     23  N   UNK A   0       0.678   4.946  -5.833  0.00  0.00    -0.235 NA
ATOM     24  N   UNK A   0       2.129   4.882  -5.706  0.00  0.00    -0.259 NA
ATOM     25  C   UNK A   0       2.574   3.609  -5.074  0.00  0.00    +0.074 C 
ATOM     26  S   UNK A   0       1.230   2.458  -5.589  0.00  0.00    -0.130 S 
ATOM     27  H   UNK A   0       0.243   5.107  -4.936  0.00  0.00    +0.143 HD
ATOM     28  H   UNK A   0       2.576   5.018  -6.601  0.00  0.00    +0.140 HD
BRANCH  25  29
ATOM     29  N   UNK A   0       3.872   3.179  -5.611  0.00  0.00    +0.398 N 
ATOM     30  H   UNK A   0       3.777   2.972  -6.594  0.00  0.00    -0.082 HD
ATOM     31  H   UNK A   0       4.549   3.917  -5.487  0.00  0.00    -0.082 HD
BRANCH  29  32
ATOM     32  C   UNK A   0       4.323   1.976  -4.899  0.00  0.00    -0.068 C 
ATOM     33  C   UNK A   0       5.596   1.441  -5.557  0.00  0.00    -0.016 C 
ATOM     34  C   UNK A   0       6.065   0.188  -4.815  0.00  0.00    -0.002 C 
ATOM     35  C   UNK A   0       6.355   0.539  -3.354  0.00  0.00    -0.000 C 
ATOM     36  C   UNK A   0       5.082   1.074  -2.696  0.00  0.00    -0.002 C 
ATOM     37  C   UNK A   0       4.612   2.327  -3.438  0.00  0.00    -0.016 C 
ENDBRANCH  29  32
ENDBRANCH  25  29
ENDBRANCH  21  22
ENDBRANCH  20  21
ENDBRANCH   2  20
TORSDOF 9
