REMARK  Name = ZINC09591058
REMARK  11 active torsions:
REMARK  status: ('A' for Active; 'I' for Inactive)
REMARK    1  A    between atoms: C_1  and  C_2
REMARK    2  A    between atoms: C_5  and  C_7
REMARK    3  A    between atoms: C_7  and  C_9
REMARK    4  A    between atoms: C_7  and  C_11
REMARK    5  A    between atoms: C_11  and  C_13
REMARK    6  A    between atoms: C_13  and  O_14
REMARK    7  A    between atoms: O_14  and  C_15
REMARK    8  A    between atoms: C_15  and  C_17
REMARK    9  A    between atoms: C_18  and  C_19
REMARK   10  A    between atoms: C_20  and  C_33
REMARK   11  A    between atoms: N_22  and  C_25
REMARK                            x       y       z     vdW  Elec       q    Type
REMARK                         _______ _______ _______ _____ _____    ______ ____
ROOT
ATOM      1  C   UNL     1      -0.013   1.076   0.008  0.00  0.00    +0.092 C 
ATOM      2  C   UNL     1      -1.193   1.736   0.017  0.00  0.00    +0.020 C 
ENDROOT
BRANCH   2   3
ATOM      3  C   UNL     1      -2.454   0.985   0.019  0.00  0.00    +0.034 A 
ATOM      4  C   UNL     1      -3.545   1.175   0.901  0.00  0.00    +0.069 A 
ATOM      5  N   UNL     1      -4.476   0.320   0.581  0.00  0.00    -0.174 NA
ATOM      6  N   UNL     1      -4.034  -0.455  -0.497  0.00  0.00    -0.248 N 
ATOM      7  C   UNL     1      -2.799  -0.048  -0.838  0.00  0.00    +0.135 A 
ATOM      8 CL   UNL     1      -1.819  -0.694  -2.117  0.00  0.00    -0.062 Cl
ATOM      9  C   UNL     1      -3.618   2.189   2.012  0.00  0.00    +0.068 C 
BRANCH   6  10
ATOM     10  C   UNL     1      -4.789  -1.531  -1.144  0.00  0.00    +0.131 C 
ATOM     11  C   UNL     1      -5.098  -2.630  -0.114  0.00  0.00    +0.051 C 
ATOM     12  C   UNL     1      -6.152  -3.591  -0.733  0.00  0.00    +0.168 C 
ATOM     13  S   UNL     1      -7.265  -2.381  -1.565  0.00  0.00    -0.029 S 
ATOM     14  O   UNL     1      -8.315  -2.030  -0.674  0.00  0.00    -0.174 OA
ATOM     15  O   UNL     1      -7.581  -2.861  -2.865  0.00  0.00    -0.174 OA
ATOM     16  C   UNL     1      -6.109  -0.959  -1.717  0.00  0.00    +0.192 C 
ENDBRANCH   6  10
ENDBRANCH   2   3
BRANCH   1  17
ATOM     17  C   UNL     1       1.203   1.800   0.000  0.00  0.00    +0.332 C 
ATOM     18  O   UNL     1       1.187   3.017   0.007  0.00  0.00    -0.246 OA
BRANCH  17  19
ATOM     19  O   UNL     1       2.381   1.141  -0.015  0.00  0.00    -0.454 OA
BRANCH  19  20
ATOM     20  C   UNL     1       3.568   1.936  -0.022  0.00  0.00    +0.308 C 
BRANCH  20  21
ATOM     21  C   UNL     1       4.776   1.034  -0.038  0.00  0.00    +0.194 C 
ATOM     22  O   UNL     1       4.634  -0.165  -0.043  0.00  0.00    -0.292 OA
BRANCH  21  23
ATOM     23  C   UNL     1       6.160   1.629  -0.048  0.00  0.00    +0.216 C 
BRANCH  23  28
ATOM     24  C   UNL     1       9.418   0.278  -3.596  0.00  0.00    +0.066 C 
ATOM     25  C   UNL     1       8.600   0.001  -2.361  0.00  0.00    +0.046 A 
ATOM     26  C   UNL     1       8.649  -1.211  -1.752  0.00  0.00    +0.070 A 
ATOM     27  S   UNL     1       7.513  -0.945  -0.399  0.00  0.00    -0.079 S 
ATOM     28  C   UNL     1       7.101   0.700  -0.772  0.00  0.00    +0.103 A 
ATOM     29  N   UNL     1       7.815   0.926  -1.851  0.00  0.00    -0.247 NA
ENDBRANCH  23  28
BRANCH  23  30
ATOM     30  C   UNL     1       6.625   1.815   1.337  0.00  0.00    +0.081 C 
ATOM     31  N   UNL     1       6.983   1.959   2.405  0.00  0.00    -0.195 NA
ENDBRANCH  23  30
ENDBRANCH  21  23
ENDBRANCH  20  21
ENDBRANCH  19  20
ENDBRANCH  17  19
ENDBRANCH   1  17
TORSDOF 9
