REMARK  Name = ZINC66967056
REMARK  5 active torsions:
REMARK  status: ('A' for Active; 'I' for Inactive)
REMARK    1  A    between atoms: C_1  and  C_2
REMARK    2  A    between atoms: C_4  and  C_18
REMARK    3  A    between atoms: C_7  and  N_8
REMARK    4  A    between atoms: C_14  and  C_17
REMARK    5  A    between atoms: C_25  and  C_27
REMARK                            x       y       z     vdW  Elec       q    Type
REMARK                         _______ _______ _______ _____ _____    ______ ____
ROOT
ATOM      1  C   UNL     1      -0.972   1.823  -0.154  0.00  0.00    +0.045 C 
ATOM      2  C   UNL     1      -0.527   0.385  -0.229  0.00  0.00    -0.028 A 
ATOM      3  C   UNL     1      -0.708  -0.332  -1.391  0.00  0.00    +0.018 A 
ATOM      4  C   UNL     1      -0.295  -1.665  -1.459  0.00  0.00    +0.037 A 
ATOM      5  C   UNL     1       0.299  -2.267  -0.346  0.00  0.00    +0.015 A 
ATOM      6  C   UNL     1       0.476  -1.545   0.812  0.00  0.00    +0.024 A 
ATOM      7  C   UNL     1       0.070  -0.216   0.875  0.00  0.00    +0.038 A 
ENDROOT
BRANCH   7   8
ATOM      8  N   UNL     1       0.256   0.514   2.048  0.00  0.00    -0.269 N 
ATOM      9  C   UNL     1       1.200   0.137   2.934  0.00  0.00    +0.306 C 
ATOM     10  O   UNL     1       1.958  -0.773   2.663  0.00  0.00    -0.252 OA
ATOM     11  N   UNL     1       1.302   0.769   4.120  0.00  0.00    -0.285 N 
ATOM     12  C   UNL     1       0.464   1.939   4.419  0.00  0.00    +0.109 C 
ATOM     13  C   UNL     1      -0.272   1.693   5.740  0.00  0.00    +0.022 C 
ATOM     14  C   UNL     1       0.747   1.353   6.831  0.00  0.00    -0.011 C 
ATOM     15  C   UNL     1       1.497   0.075   6.451  0.00  0.00    +0.022 C 
ATOM     16  C   UNL     1       2.248   0.298   5.140  0.00  0.00    +0.109 C 
ATOM     17  C   UNL     1       0.019   1.141   8.160  0.00  0.00    +0.007 C 
ATOM     18  H   UNL     1      -0.293   1.294   2.227  0.00  0.00    +0.156 HD
ENDBRANCH   7   8
BRANCH   4  19
ATOM     19  C   UNL     1      -0.488  -2.436  -2.702  0.00  0.00    +0.247 C 
ATOM     20  O   UNL     1      -0.332  -1.898  -3.781  0.00  0.00    -0.270 OA
ATOM     21  N   UNL     1      -0.836  -3.737  -2.642  0.00  0.00    -0.295 N 
ATOM     22  C   UNL     1      -1.130  -4.373  -1.351  0.00  0.00    +0.108 C 
ATOM     23  C   UNL     1      -2.509  -5.036  -1.432  0.00  0.00    +0.019 C 
ATOM     24  C   UNL     1      -2.542  -5.992  -2.626  0.00  0.00    +0.003 C 
ATOM     25  C   UNL     1      -2.308  -5.206  -3.918  0.00  0.00    +0.022 C 
ATOM     26  C   UNL     1      -0.933  -4.543  -3.866  0.00  0.00    +0.073 C 
ATOM     27  C   UNL     1      -0.753  -3.642  -5.089  0.00  0.00    +0.028 C 
ENDBRANCH   4  19
TORSDOF 2
