REMARK  Name = ZINC44768026
REMARK  6 active torsions:
REMARK  status: ('A' for Active; 'I' for Inactive)
REMARK    1  A    between atoms: C_1  and  C_2
REMARK    2  A    between atoms: C_2  and  C_3
REMARK    3  A    between atoms: C_2  and  C_4
REMARK    4  A    between atoms: C_2  and  C_7
REMARK    5  A    between atoms: C_4  and  N_6
REMARK    6  A    between atoms: N_9  and  C_10
REMARK                            x       y       z     vdW  Elec       q    Type
REMARK                         _______ _______ _______ _____ _____    ______ ____
ROOT
ATOM      1  C   UNL     1       0.785  -0.371  -1.232  0.00  0.00    +0.225 C 
ATOM      2  O   UNL     1       0.242  -0.964  -2.141  0.00  0.00    -0.275 OA
ATOM      3  N   UNL     1       2.088  -0.041  -1.327  0.00  0.00    -0.312 N 
ATOM      4  H   UNL     1       2.522   0.433  -0.601  0.00  0.00    +0.149 HD
ENDROOT
BRANCH   3   5
ATOM      5  C   UNL     1       2.849  -0.398  -2.527  0.00  0.00    +0.073 C 
ATOM      6  C   UNL     1       2.648   0.678  -3.596  0.00  0.00    +0.022 C 
ATOM      7  C   UNL     1       3.724   0.531  -4.675  0.00  0.00    +0.002 C 
ATOM      8  C   UNL     1       3.383  -0.657  -5.577  0.00  0.00    +0.000 C 
ATOM      9  C   UNL     1       3.709  -1.961  -4.847  0.00  0.00    +0.000 C 
ATOM     10  C   UNL     1       5.069  -1.835  -4.157  0.00  0.00    +0.000 C 
ATOM     11  C   UNL     1       4.875  -1.855  -2.640  0.00  0.00    +0.002 C 
ATOM     12  C   UNL     1       4.334  -0.500  -2.177  0.00  0.00    +0.022 C 
ENDBRANCH   3   5
BRANCH   1  14
ATOM     13  C   UNL     1      -0.122   1.518   0.093  0.00  0.00    +0.027 C 
ATOM     14  C   UNL     1       0.002  -0.004   0.002  0.00  0.00    +0.085 C 
ATOM     15  C   UNL     1       0.728  -0.531   1.242  0.00  0.00    +0.027 C 
BRANCH  14  16
ATOM     16  C   UNL     1      -1.373  -0.617  -0.074  0.00  0.00    +0.061 C 
ATOM     17  S   UNL     1      -2.669   0.316   0.002  0.00  0.00    -0.040 S 
BRANCH  16  18
ATOM     18  N   UNL     1      -1.509  -1.951  -0.206  0.00  0.00    -0.355 N 
ATOM     19  H   UNL     1      -0.723  -2.517  -0.252  0.00  0.00    +0.143 HD
ATOM     20  H   UNL     1      -2.394  -2.346  -0.255  0.00  0.00    +0.143 HD
ENDBRANCH  16  18
ENDBRANCH  14  16
ENDBRANCH   1  14
TORSDOF 4
