REMARK  Name = ZINC06742884
REMARK  5 active torsions:
REMARK  status: ('A' for Active; 'I' for Inactive)
REMARK    1  A    between atoms: C_1  and  C_2
REMARK    2  A    between atoms: C_4  and  C_22
REMARK    3  A    between atoms: N_13  and  C_16
REMARK    4  A    between atoms: C_22  and  O_23
REMARK    5  A    between atoms: O_23  and  C_24
REMARK                            x       y       z     vdW  Elec       q    Type
REMARK                         _______ _______ _______ _____ _____    ______ ____
ROOT
ATOM      1  C   UNL     1       9.824   7.575   1.110  0.00  0.00    +0.065 C 
ATOM      2  C   UNL     1       8.423   7.034   0.984  0.00  0.00    +0.040 A 
ATOM      3  C   UNL     1       7.355   7.893   1.176  0.00  0.00    +0.029 A 
ATOM      4  C   UNL     1       6.043   7.467   1.077  0.00  0.00    -0.009 A 
ATOM      5  C   UNL     1       5.859   6.094   0.766  0.00  0.00    +0.035 A 
ATOM      6  C   UNL     1       4.592   5.407   0.612  0.00  0.00    +0.057 A 
ATOM      7  C   UNL     1       4.666   4.053   0.294  0.00  0.00    +0.098 A 
ATOM      8  S   UNL     1       6.393   3.689   0.219  0.00  0.00    -0.062 S 
ATOM      9  C   UNL     1       7.024   5.300   0.587  0.00  0.00    +0.111 A 
ATOM     10  N   UNL     1       8.255   5.750   0.693  0.00  0.00    -0.245 NA
ATOM     11  C   UNL     1       3.543   3.232   0.095  0.00  0.00    +0.261 C 
ATOM     12  O   UNL     1       3.628   2.020   0.009  0.00  0.00    -0.269 OA
ATOM     13  N   UNL     1       2.355   3.889   0.001  0.00  0.00    -0.251 N 
ATOM     14  C   UNL     1       2.335   5.346  -0.102  0.00  0.00    +0.218 C 
ATOM     15  N   UNL     1       3.324   5.993   0.761  0.00  0.00    -0.326 N 
ATOM     16  H   UNL     1       3.029   5.975   1.726  0.00  0.00    +0.148 HD
ENDROOT
BRANCH  13  17
ATOM     17  C   UNL     1       1.155   3.171   0.008  0.00  0.00    +0.038 A 
ATOM     18  C   UNL     1       0.358   3.135  -1.129  0.00  0.00    +0.023 A 
ATOM     19  C   UNL     1      -0.827   2.425  -1.119  0.00  0.00    +0.002 A 
ATOM     20  C   UNL     1      -1.222   1.754   0.023  0.00  0.00    +0.000 A 
ATOM     21  C   UNL     1      -0.428   1.782   1.155  0.00  0.00    +0.002 A 
ATOM     22  C   UNL     1       0.757   2.491   1.152  0.00  0.00    +0.023 A 
ENDBRANCH  13  17
BRANCH   4  23
ATOM     23  C   UNL     1       4.881   8.403   1.286  0.00  0.00    +0.195 C 
BRANCH  23  24
ATOM     24  O   UNL     1       5.371   9.712   1.582  0.00  0.00    -0.378 OA
ATOM     25  C   UNL     1       4.344  10.682   1.799  0.00  0.00    +0.194 C 
ENDBRANCH  23  24
ENDBRANCH   4  23
TORSDOF 3
