REMARK  Name = ZINC34747350
REMARK  8 active torsions:
REMARK  status: ('A' for Active; 'I' for Inactive)
REMARK    1  A    between atoms: C_1  and  C_2
REMARK    2  A    between atoms: C_5  and  C_38
REMARK    3  A    between atoms: C_6  and  C_8
REMARK    4  A    between atoms: C_8  and  N_9
REMARK    5  A    between atoms: N_28  and  C_29
REMARK    6  A    between atoms: C_29  and  C_30
REMARK    7  A    between atoms: C_30  and  C_31
REMARK    8  A    between atoms: C_31  and  C_32
REMARK                            x       y       z     vdW  Elec       q    Type
REMARK                         _______ _______ _______ _____ _____    ______ ____
ROOT
ATOM      1  N   UNL     1       2.398  -2.981   1.911  0.00  0.00    +0.384 N 
ATOM      2  C   UNL     1       3.790  -3.447   1.857  0.00  0.00    -0.059 C 
ATOM      3  C   UNL     1       4.088  -4.306   3.090  0.00  0.00    +0.089 C 
ATOM      4  N   UNL     1       3.755  -3.527   4.293  0.00  0.00    -0.304 N 
ATOM      5  C   UNL     1       2.433  -2.886   4.359  0.00  0.00    +0.089 C 
ATOM      6  C   UNL     1       2.212  -2.094   3.066  0.00  0.00    -0.059 C 
ATOM      7  C   UNL     1       4.652  -3.404   5.325  0.00  0.00    +0.202 A 
ATOM      8  N   UNL     1       5.542  -2.434   5.298  0.00  0.00    -0.208 NA
ATOM      9  C   UNL     1       6.422  -2.291   6.283  0.00  0.00    +0.117 A 
ATOM     10  C   UNL     1       6.449  -3.154   7.391  0.00  0.00    +0.076 A 
ATOM     11  C   UNL     1       7.476  -2.871   8.396  0.00  0.00    -0.023 A 
ATOM     12  C   UNL     1       8.287  -1.820   8.163  0.00  0.00    -0.004 A 
ATOM     13  S   UNL     1       7.742  -1.152   6.615  0.00  0.00    -0.073 S 
ATOM     14  C   UNL     1       9.406  -1.328   9.030  0.00  0.00    +0.043 C 
ATOM     15  C   UNL     1       9.266  -1.972  10.416  0.00  0.00    +0.005 C 
ATOM     16  C   UNL     1       9.031  -3.475  10.238  0.00  0.00    +0.005 C 
ATOM     17  C   UNL     1       7.637  -3.717   9.656  0.00  0.00    +0.037 C 
ATOM     18  C   UNL     1       5.470  -4.197   7.393  0.00  0.00    +0.264 A 
ATOM     19  O   UNL     1       5.418  -4.994   8.313  0.00  0.00    -0.267 OA
ATOM     20  N   UNL     1       4.604  -4.283   6.366  0.00  0.00    -0.280 N 
ATOM     21  H   UNL     1       1.783  -3.777   1.998  0.00  0.00    -0.081 HD
ENDROOT
BRANCH   1  22
ATOM     22  C   UNL     1       2.080  -2.250   0.677  0.00  0.00    -0.043 C 
BRANCH  22  28
ATOM     23  C   UNL     1       4.561  -4.085  -3.262  0.00  0.00    +0.044 C 
ATOM     24  C   UNL     1       3.338  -4.069  -2.382  0.00  0.00    -0.050 A 
ATOM     25  C   UNL     1       2.280  -4.918  -2.652  0.00  0.00    +0.003 A 
ATOM     26  C   UNL     1       1.159  -4.904  -1.845  0.00  0.00    +0.004 A 
ATOM     27  C   UNL     1       1.093  -4.040  -0.768  0.00  0.00    -0.049 A 
ATOM     28  C   UNL     1       2.151  -3.192  -0.497  0.00  0.00    -0.061 A 
ATOM     29  C   UNL     1       3.275  -3.210  -1.302  0.00  0.00    +0.005 A 
ATOM     30  C   UNL     1      -0.130  -4.023   0.112  0.00  0.00    +0.044 C 
ENDBRANCH  22  28
ENDBRANCH   1  22
BRANCH  20  31
ATOM     31  C   UNL     1       3.596  -5.346   6.363  0.00  0.00    +0.128 C 
BRANCH  31  32
ATOM     32  C   UNL     1       4.207  -6.628   5.795  0.00  0.00    +0.026 C 
BRANCH  32  33
ATOM     33  C   UNL     1       3.154  -7.738   5.792  0.00  0.00    +0.037 C 
BRANCH  33  34
ATOM     34  C   UNL     1       3.756  -9.001   5.232  0.00  0.00    -0.047 A 
ATOM     35  C   UNL     1       3.697  -9.251   3.874  0.00  0.00    +0.003 A 
ATOM     36  C   UNL     1       4.250 -10.410   3.360  0.00  0.00    +0.000 A 
ATOM     37  C   UNL     1       4.862 -11.317   4.204  0.00  0.00    +0.000 A 
ATOM     38  C   UNL     1       4.922 -11.066   5.562  0.00  0.00    +0.000 A 
ATOM     39  C   UNL     1       4.373  -9.905   6.076  0.00  0.00    +0.003 A 
ENDBRANCH  33  34
ENDBRANCH  32  33
ENDBRANCH  31  32
ENDBRANCH  20  31
TORSDOF 6
