REMARK  Name = ZINC39666448
REMARK  7 active torsions:
REMARK  status: ('A' for Active; 'I' for Inactive)
REMARK    1  A    between atoms: C_1  and  C_2
REMARK    2  A    between atoms: C_2  and  C_4
REMARK    3  A    between atoms: C_2  and  O_27
REMARK    4  A    between atoms: C_4  and  N_5
REMARK    5  A    between atoms: C_6  and  C_8
REMARK    6  A    between atoms: C_19  and  C_21
REMARK    7  A    between atoms: O_27  and  C_28
REMARK                            x       y       z     vdW  Elec       q    Type
REMARK                         _______ _______ _______ _____ _____    ______ ____
ROOT
ATOM      1  C   UNL     1      -0.209  -6.288  -4.876  0.00  0.00    +0.100 C 
ATOM      2  C   UNL     1      -1.571  -5.678  -5.275  0.00  0.00    +0.121 C 
ATOM      3  N   UNL     1      -1.225  -4.439  -6.011  0.00  0.00    -0.296 N 
ATOM      4  C   UNL     1      -0.041  -4.811  -6.822  0.00  0.00    +0.115 C 
ATOM      5  C   UNL     1       0.792  -5.720  -5.896  0.00  0.00    -0.004 C 
ATOM      6  C   UNL     1       1.427  -6.851  -6.699  0.00  0.00    -0.010 C 
ATOM      7  C   UNL     1       2.461  -6.266  -7.666  0.00  0.00    -0.082 C 
ATOM      8  N   UNL     1       3.487  -5.541  -6.908  0.00  0.00    +0.379 N 
ATOM      9  C   UNL     1       2.882  -4.399  -6.212  0.00  0.00    -0.082 C 
ATOM     10  C   UNL     1       1.866  -4.904  -5.184  0.00  0.00    -0.010 C 
ATOM     11  C   UNL     1      -1.847  -3.245  -5.957  0.00  0.00    +0.247 C 
ATOM     12  O   UNL     1      -1.460  -2.326  -6.652  0.00  0.00    -0.270 OA
ATOM     13  H   UNL     1       3.906  -6.162  -6.231  0.00  0.00    -0.086 HD
ATOM     14  H   UNL     1       4.200  -5.209  -7.541  0.00  0.00    -0.086 HD
ENDROOT
BRANCH  11  15
ATOM     15  C   UNL     1      -3.000  -3.052  -5.052  0.00  0.00    +0.037 A 
ATOM     16  C   UNL     1      -2.808  -3.017  -3.670  0.00  0.00    +0.013 A 
ATOM     17  C   UNL     1      -3.888  -2.837  -2.831  0.00  0.00    +0.001 A 
ATOM     18  C   UNL     1      -5.160  -2.690  -3.356  0.00  0.00    +0.000 A 
ATOM     19  C   UNL     1      -5.357  -2.724  -4.725  0.00  0.00    +0.001 A 
ATOM     20  C   UNL     1      -4.285  -2.898  -5.576  0.00  0.00    +0.013 A 
ENDBRANCH  11  15
BRANCH   1  22
ATOM     21  N   UNL     1       0.784  -6.735  -2.655  0.00  0.00    -0.312 N 
ATOM     22  C   UNL     1       0.168  -5.865  -3.480  0.00  0.00    +0.218 C 
ATOM     23  O   UNL     1      -0.084  -4.742  -3.098  0.00  0.00    -0.275 OA
ATOM     24  H   UNL     1       0.906  -7.658  -2.928  0.00  0.00    +0.149 HD
BRANCH  21  25
ATOM     25  C   UNL     1       1.270  -6.286  -1.348  0.00  0.00    +0.148 C 
BRANCH  25  27
ATOM     26  C   UNL     1       2.690  -6.910   0.611  0.00  0.00    +0.053 C 
ATOM     27  C   UNL     1       2.020  -7.430  -0.663  0.00  0.00    +0.187 C 
BRANCH  27  28
ATOM     28  O   UNL     1       1.099  -8.469  -0.326  0.00  0.00    -0.486 OA
BRANCH  28  29
ATOM     29  C   UNL     1       1.607  -9.723  -0.190  0.00  0.00    +0.139 A 
ATOM     30  C   UNL     1       2.976  -9.909  -0.067  0.00  0.00    +0.047 A 
ATOM     31  C   UNL     1       3.489 -11.184   0.072  0.00  0.00    +0.004 A 
ATOM     32  C   UNL     1       2.640 -12.275   0.088  0.00  0.00    +0.002 A 
ATOM     33  C   UNL     1       1.275 -12.093  -0.034  0.00  0.00    +0.023 A 
ATOM     34  C   UNL     1       0.755 -10.819  -0.167  0.00  0.00    +0.083 A 
ATOM     35 CL   UNL     1      -0.960 -10.591  -0.313  0.00  0.00    -0.080 Cl
ENDBRANCH  28  29
ENDBRANCH  27  28
ENDBRANCH  25  27
ENDBRANCH  21  25
ENDBRANCH   1  22
TORSDOF 6
