REMARK  Name = ZINC04971751
REMARK  3 active torsions:
REMARK  status: ('A' for Active; 'I' for Inactive)
REMARK    1  A    between atoms: C_1  and  C_2
REMARK    2  A    between atoms: C_8  and  N_10
REMARK    3  A    between atoms: C_11  and  C_13
REMARK                            x       y       z     vdW  Elec       q    Type
REMARK                         _______ _______ _______ _____ _____    ______ ____
ROOT
ATOM      1  C   UNL     1       6.966   3.226  -3.592  0.00  0.00    +0.080 A 
ATOM      2  C   UNL     1       7.599   4.374  -3.127  0.00  0.00    +0.018 A 
ATOM      3  C   UNL     1       7.030   5.081  -2.064  0.00  0.00    +0.019 A 
ATOM      4  C   UNL     1       5.881   4.669  -1.486  0.00  0.00    +0.096 A 
ATOM      5  N   UNL     1       5.222   3.550  -1.906  0.00  0.00    -0.267 N 
ATOM      6  C   UNL     1       5.721   2.806  -2.943  0.00  0.00    +0.154 A 
ATOM      7  N   UNL     1       5.096   1.717  -3.365  0.00  0.00    -0.221 NA
ATOM      8  C   UNL     1       3.969   1.321  -2.796  0.00  0.00    +0.116 A 
ATOM      9  C   UNL     1       3.383   2.023  -1.725  0.00  0.00    +0.076 A 
ATOM     10  C   UNL     1       4.078   3.190  -1.289  0.00  0.00    +0.267 A 
ATOM     11  O   UNL     1       3.641   3.857  -0.366  0.00  0.00    -0.267 OA
ATOM     12  C   UNL     1       2.136   1.461  -1.202  0.00  0.00    -0.023 A 
ATOM     13  C   UNL     1       1.676   0.339  -1.789  0.00  0.00    -0.004 A 
ATOM     14  S   UNL     1       2.855  -0.037  -3.057  0.00  0.00    -0.073 S 
ATOM     15  C   UNL     1       0.434  -0.424  -1.440  0.00  0.00    +0.043 C 
ATOM     16  C   UNL     1      -0.057   0.050  -0.065  0.00  0.00    +0.005 C 
ATOM     17  C   UNL     1      -0.061   1.582  -0.047  0.00  0.00    +0.005 C 
ATOM     18  C   UNL     1       1.377   2.104  -0.044  0.00  0.00    +0.037 C 
ENDROOT
BRANCH   1  20
ATOM     19  N   UNL     1       6.973   1.281  -5.070  0.00  0.00    -0.308 N 
ATOM     20  C   UNL     1       7.533   2.453  -4.710  0.00  0.00    +0.248 C 
ATOM     21  O   UNL     1       8.506   2.872  -5.307  0.00  0.00    -0.270 OA
ATOM     22  H   UNL     1       6.154   0.983  -4.644  0.00  0.00    +0.149 HD
BRANCH  19  29
ATOM     23  C   UNL     1       5.461   0.450  -7.396  0.00  0.00    +0.009 C 
ATOM     24  C   UNL     1       6.542  -0.429  -6.764  0.00  0.00    +0.006 C 
ATOM     25  C   UNL     1       5.909  -1.336  -5.707  0.00  0.00    +0.005 C 
ATOM     26  C   UNL     1       6.990  -2.215  -5.075  0.00  0.00    +0.000 C 
ATOM     27  C   UNL     1       8.048  -1.327  -4.417  0.00  0.00    +0.002 C 
ATOM     28  C   UNL     1       8.682  -0.421  -5.475  0.00  0.00    +0.022 C 
ATOM     29  C   UNL     1       7.601   0.458  -6.107  0.00  0.00    +0.076 C 
ENDBRANCH  19  29
ENDBRANCH   1  20
TORSDOF 2
