REMARK  Name = ZINC40180029
REMARK  8 active torsions:
REMARK  status: ('A' for Active; 'I' for Inactive)
REMARK    1  A    between atoms: C_1  and  C_2
REMARK    2  A    between atoms: C_6  and  N_9
REMARK    3  A    between atoms: C_7  and  C_8
REMARK    4  A    between atoms: C_10  and  C_12
REMARK    5  A    between atoms: C_13  and  C_24
REMARK    6  A    between atoms: N_14  and  C_17
REMARK    7  A    between atoms: C_24  and  C_25
REMARK    8  A    between atoms: C_24  and  C_26
REMARK                            x       y       z     vdW  Elec       q    Type
REMARK                         _______ _______ _______ _____ _____    ______ ____
ROOT
ATOM      1  C   UNL     1      -0.197  -4.875   3.627  0.00  0.00    +0.171 A 
ATOM      2  C   UNL     1      -0.128  -6.230   3.782  0.00  0.00    +0.080 A 
ATOM      3  N   UNL     1      -0.190  -6.476   5.109  0.00  0.00    -0.216 N 
ATOM      4  N   UNL     1      -0.298  -5.231   5.746  0.00  0.00    -0.060 NA
ATOM      5  N   UNL     1      -0.293  -4.312   4.844  0.00  0.00    -0.124 NA
ENDROOT
BRANCH   3   6
ATOM      6  C   UNL     1      -0.153  -7.733   5.730  0.00  0.00    +0.067 A 
ATOM      7  C   UNL     1      -0.742  -8.829   5.115  0.00  0.00    +0.029 A 
ATOM      8  C   UNL     1      -0.704 -10.066   5.728  0.00  0.00    +0.022 A 
ATOM      9  C   UNL     1      -0.081 -10.213   6.955  0.00  0.00    +0.041 A 
ATOM     10  C   UNL     1       0.506  -9.121   7.570  0.00  0.00    +0.022 A 
ATOM     11  C   UNL     1       0.477  -7.883   6.958  0.00  0.00    +0.029 A 
ATOM     12 CL   UNL     1      -0.035 -11.769   7.723  0.00  0.00    -0.084 Cl
ENDBRANCH   3   6
BRANCH   1  14
ATOM     13  N   UNL     1      -0.129  -2.803   2.329  0.00  0.00    -0.280 N 
ATOM     14  C   UNL     1      -0.165  -4.151   2.343  0.00  0.00    +0.270 C 
ATOM     15  O   UNL     1      -0.172  -4.769   1.296  0.00  0.00    -0.268 OA
ATOM     16  H   UNL     1      -0.040  -2.312   3.161  0.00  0.00    +0.155 HD
BRANCH  13  22
ATOM     17  C   UNL     1       0.795   1.232  -0.322  0.00  0.00    +0.044 C 
ATOM     18  C   UNL     1       0.221  -0.156  -0.197  0.00  0.00    -0.046 A 
ATOM     19  C   UNL     1      -0.395  -0.749  -1.284  0.00  0.00    +0.004 A 
ATOM     20  C   UNL     1      -0.923  -2.022  -1.174  0.00  0.00    +0.002 A 
ATOM     21  C   UNL     1      -0.837  -2.706   0.023  0.00  0.00    +0.023 A 
ATOM     22  C   UNL     1      -0.218  -2.114   1.116  0.00  0.00    +0.037 A 
ATOM     23  C   UNL     1       0.317  -0.837   1.000  0.00  0.00    -0.026 A 
ATOM     24  C   UNL     1       0.994  -0.192   2.183  0.00  0.00    +0.046 C 
ENDBRANCH  13  22
ENDBRANCH   1  14
BRANCH   2  25
ATOM     25  C   UNL     1      -0.006  -7.255   2.683  0.00  0.00    +0.034 C 
ATOM     26  C   UNL     1      -1.242  -7.187   1.784  0.00  0.00    +0.014 C 
ATOM     27  C   UNL     1       1.246  -6.966   1.853  0.00  0.00    +0.014 C 
ENDBRANCH   2  25
TORSDOF 4
