REMARK  Name = ZINC62933043
REMARK  5 active torsions:
REMARK  status: ('A' for Active; 'I' for Inactive)
REMARK    1  A    between atoms: C_1  and  C_2
REMARK    2  A    between atoms: C_2  and  C_3
REMARK    3  A    between atoms: C_9  and  N_11
REMARK    4  A    between atoms: C_17  and  C_19
REMARK    5  A    between atoms: C_17  and  C_20
REMARK                            x       y       z     vdW  Elec       q    Type
REMARK                         _______ _______ _______ _____ _____    ______ ____
ROOT
ATOM      1  N   UNL     1      -0.673  -2.638   1.000  0.00  0.00    -0.296 N 
ATOM      2  C   UNL     1      -0.090  -3.846   0.869  0.00  0.00    +0.302 C 
ATOM      3  O   UNL     1      -0.182  -4.455  -0.179  0.00  0.00    -0.253 OA
ATOM      4  N   UNL     1       0.593  -4.380   1.901  0.00  0.00    -0.285 N 
ATOM      5  C   UNL     1       0.777  -3.757   3.224  0.00  0.00    +0.110 C 
ATOM      6  C   UNL     1       1.045  -4.941   4.186  0.00  0.00    +0.038 C 
ATOM      7  C   UNL     1       1.896  -5.882   3.293  0.00  0.00    +0.086 C 
ATOM      8  C   UNL     1       1.274  -5.684   1.895  0.00  0.00    +0.127 C 
ATOM      9  C   UNL     1       3.365  -5.456   3.303  0.00  0.00    +0.024 C 
ATOM     10  H   UNL     1      -0.600  -2.152   1.837  0.00  0.00    +0.151 HD
ENDROOT
BRANCH   1  16
ATOM     11  C   UNL     1      -1.433  -0.534   0.013  0.00  0.00    +0.009 C 
ATOM     12  C   UNL     1      -2.110  -0.145   1.329  0.00  0.00    +0.005 C 
ATOM     13  C   UNL     1      -3.546  -0.675   1.340  0.00  0.00    +0.000 C 
ATOM     14  C   UNL     1      -3.528  -2.199   1.206  0.00  0.00    +0.002 C 
ATOM     15  C   UNL     1      -2.851  -2.587  -0.110  0.00  0.00    +0.022 C 
ATOM     16  C   UNL     1      -1.416  -2.058  -0.121  0.00  0.00    +0.078 C 
BRANCH  11  18
ATOM     17  C   UNL     1      -0.019   1.526   0.010  0.00  0.00    +0.004 C 
ATOM     18  C   UNL     1       0.002  -0.004   0.002  0.00  0.00    +0.002 C 
ENDBRANCH  11  18
ENDBRANCH   1  16
BRANCH   7  19
ATOM     19  C   UNL     1       1.751  -7.315   3.739  0.00  0.00    +0.363 C 
ATOM     20  O   UNL     1       1.852  -8.219   2.927  0.00  0.00    -0.246 OA
ATOM     21  O   UNL     1       1.534  -7.569   4.911  0.00  0.00    -0.246 OA
ENDBRANCH   7  19
TORSDOF 3
