REMARK  Name = ZINC08946546
REMARK  14 active torsions:
REMARK  status: ('A' for Active; 'I' for Inactive)
REMARK    1  A    between atoms: C_1  and  C_2
REMARK    2  A    between atoms: C_4  and  C_35
REMARK    3  A    between atoms: C_5  and  N_9
REMARK    4  A    between atoms: C_6  and  C_8
REMARK    5  A    between atoms: C_10  and  C_12
REMARK    6  A    between atoms: C_12  and  N_13
REMARK    7  A    between atoms: C_14  and  C_16
REMARK    8  A    between atoms: C_16  and  N_17
REMARK    9  A    between atoms: C_20  and  C_24
REMARK   10  A    between atoms: C_20  and  C_25
REMARK   11  A    between atoms: C_28  and  C_31
REMARK   12  A    between atoms: C_31  and  C_32
REMARK   13  A    between atoms: C_31  and  C_33
REMARK   14  A    between atoms: C_31  and  C_34
REMARK                            x       y       z     vdW  Elec       q    Type
REMARK                         _______ _______ _______ _____ _____    ______ ____
ROOT
ATOM      1  C   UNL     1       9.557   0.609  -0.880  0.00  0.00    +0.213 C 
ENDROOT
BRANCH   1   2
ATOM      2  N   UNL     1      10.808  -0.141  -1.019  0.00  0.00    -0.215 N 
ATOM      3  C   UNL     1      11.310  -0.564  -2.196  0.00  0.00    +0.251 C 
ATOM      4  O   UNL     1      10.829  -0.404  -3.297  0.00  0.00    -0.272 OA
ATOM      5  C   UNL     1      12.600  -1.283  -1.855  0.00  0.00    +0.135 C 
ATOM      6  N   UNL     1      12.683  -1.171  -0.389  0.00  0.00    -0.281 N 
ATOM      7  C   UNL     1      11.596  -0.484   0.006  0.00  0.00    +0.310 C 
ATOM      8  O   UNL     1      11.354  -0.210   1.165  0.00  0.00    -0.252 OA
ATOM      9  C   UNL     1      13.793  -0.590  -2.517  0.00  0.00    +0.047 C 
ATOM     10  H   UNL     1      13.386  -1.521   0.180  0.00  0.00    +0.152 HD
BRANCH   5  11
ATOM     11  C   UNL     1      12.527  -2.729  -2.273  0.00  0.00    -0.015 A 
ATOM     12  C   UNL     1      11.750  -3.098  -3.355  0.00  0.00    +0.006 A 
ATOM     13  C   UNL     1      11.687  -4.424  -3.741  0.00  0.00    +0.004 A 
ATOM     14  C   UNL     1      12.393  -5.382  -3.039  0.00  0.00    -0.042 A 
ATOM     15  C   UNL     1      13.167  -5.014  -1.954  0.00  0.00    +0.004 A 
ATOM     16  C   UNL     1      13.234  -3.688  -1.571  0.00  0.00    +0.006 A 
BRANCH  14  17
ATOM     17  C   UNL     1      12.319  -6.829  -3.456  0.00  0.00    -0.013 C 
ATOM     18  C   UNL     1      11.760  -7.664  -2.303  0.00  0.00    +0.015 C 
ATOM     19  C   UNL     1      11.403  -6.962  -4.674  0.00  0.00    +0.015 C 
ATOM     20  C   UNL     1      13.720  -7.328  -3.815  0.00  0.00    +0.015 C 
ENDBRANCH  14  17
ENDBRANCH   5  11
ENDBRANCH   1   2
BRANCH   1  22
ATOM     21  N   UNL     1       7.156   0.112  -0.551  0.00  0.00    -0.305 N 
ATOM     22  C   UNL     1       8.412  -0.354  -0.699  0.00  0.00    +0.231 C 
ATOM     23  O   UNL     1       8.620  -1.549  -0.687  0.00  0.00    -0.274 OA
ATOM     24  H   UNL     1       6.989   1.068  -0.560  0.00  0.00    +0.149 HD
BRANCH  21  25
ATOM     25  C   UNL     1       6.043  -0.824  -0.375  0.00  0.00    +0.200 C 
BRANCH  25  27
ATOM     26  N   UNL     1       3.592  -0.710  -0.058  0.00  0.00    -0.284 N 
ATOM     27  C   UNL     1       4.756  -0.053  -0.232  0.00  0.00    +0.234 C 
ATOM     28  O   UNL     1       4.767   1.159  -0.273  0.00  0.00    -0.274 OA
ATOM     29  H   UNL     1       3.589  -1.677   0.025  0.00  0.00    +0.155 HD
BRANCH  26  34
ATOM     30  C   UNL     1      -1.283   2.180   0.191  0.00  0.00    +0.044 C 
ATOM     31  C   UNL     1       0.010   1.409   0.122  0.00  0.00    -0.050 A 
ATOM     32  C   UNL     1       0.275   0.421   1.053  0.00  0.00    +0.008 A 
ATOM     33  C   UNL     1       1.461  -0.283   0.996  0.00  0.00    -0.029 A 
ATOM     34  C   UNL     1       2.389   0.002   0.002  0.00  0.00    +0.039 A 
ATOM     35  C   UNL     1       2.120   0.994  -0.931  0.00  0.00    -0.029 A 
ATOM     36  C   UNL     1       0.931   1.695  -0.869  0.00  0.00    +0.008 A 
ATOM     37  C   UNL     1       3.124   1.306  -2.011  0.00  0.00    +0.045 C 
ATOM     38  C   UNL     1       1.749  -1.359   2.010  0.00  0.00    +0.045 C 
ENDBRANCH  26  34
ENDBRANCH  25  27
ENDBRANCH  21  25
ENDBRANCH   1  22
TORSDOF 7
