REMARK  Name = ZINC10339238
REMARK  10 active torsions:
REMARK  status: ('A' for Active; 'I' for Inactive)
REMARK    1  A    between atoms: C_1  and  C_2
REMARK    2  A    between atoms: C_2  and  C_3
REMARK    3  A    between atoms: C_3  and  C_4
REMARK    4  A    between atoms: C_4  and  C_5
REMARK    5  A    between atoms: C_5  and  N_6
REMARK    6  A    between atoms: C_24  and  N_31
REMARK    7  A    between atoms: C_25  and  C_26
REMARK    8  A    between atoms: C_26  and  O_28
REMARK    9  A    between atoms: O_28  and  C_29
REMARK   10  A    between atoms: C_29  and  C_30
REMARK                            x       y       z     vdW  Elec       q    Type
REMARK                         _______ _______ _______ _____ _____    ______ ____
ROOT
ATOM      1  N   UNL     1      -0.402   0.914  -4.896  0.00  0.00    -0.270 N 
ATOM      2  C   UNL     1       0.564   1.812  -5.314  0.00  0.00    +0.041 A 
ATOM      3  C   UNL     1       0.940   3.034  -4.755  0.00  0.00    +0.024 A 
ATOM      4  C   UNL     1       1.958   3.733  -5.385  0.00  0.00    +0.002 A 
ATOM      5  C   UNL     1       2.587   3.250  -6.514  0.00  0.00    +0.000 A 
ATOM      6  C   UNL     1       2.225   2.031  -7.078  0.00  0.00    +0.007 A 
ATOM      7  C   UNL     1       1.213   1.331  -6.458  0.00  0.00    -0.002 A 
ATOM      8  C   UNL     1       0.575   0.016  -6.782  0.00  0.00    +0.141 C 
ATOM      9  C   UNL     1      -0.469  -0.168  -5.699  0.00  0.00    +0.240 C 
ATOM     10  O   UNL     1      -1.222  -1.111  -5.577  0.00  0.00    -0.274 OA
ATOM     11  C   UNL     1      -0.096   0.070  -8.131  0.00  0.00    +0.057 C 
ATOM     12  C   UNL     1       0.451  -0.556  -9.189  0.00  0.00    +0.115 C 
ATOM     13  C   UNL     1      -0.225  -0.518 -10.539  0.00  0.00    +0.075 C 
ATOM     14  C   UNL     1      -0.982   0.802 -10.698  0.00  0.00    +0.016 C 
ATOM     15  C   UNL     1      -2.012   0.910  -9.568  0.00  0.00    +0.080 C 
ATOM     16  C   UNL     1      -1.300   0.792  -8.248  0.00  0.00    +0.164 C 
ATOM     17  O   UNL     1      -1.772   1.328  -7.266  0.00  0.00    -0.292 OA
ATOM     18  O   UNL     1       1.609  -1.234  -9.081  0.00  0.00    -0.446 OA
ATOM     19  C   UNL     1       2.031  -1.661  -7.882  0.00  0.00    +0.195 C 
ATOM     20  C   UNL     1       1.576  -1.100  -6.731  0.00  0.00    +0.117 C 
ENDROOT
BRANCH  19  21
ATOM     21  N   UNL     1       2.939  -2.684  -7.816  0.00  0.00    -0.329 N 
ATOM     22  H   UNL     1       3.311  -2.948  -6.960  0.00  0.00    +0.145 HD
ATOM     23  H   UNL     1       3.211  -3.145  -8.626  0.00  0.00    +0.145 HD
ENDBRANCH  19  21
BRANCH  20  24
ATOM     24  C   UNL     1       2.043  -1.565  -5.492  0.00  0.00    +0.342 C 
ATOM     25  O   UNL     1       2.897  -0.939  -4.889  0.00  0.00    -0.245 OA
BRANCH  24  26
ATOM     26  O   UNL     1       1.547  -2.707  -4.968  0.00  0.00    -0.462 OA
BRANCH  26  27
ATOM     27  C   UNL     1       1.985  -3.063  -3.655  0.00  0.00    +0.229 C 
ATOM     28  C   UNL     1       1.413  -4.431  -3.280  0.00  0.00    +0.048 C 
ENDBRANCH  26  27
ENDBRANCH  24  26
ENDBRANCH  20  24
BRANCH   1  29
ATOM     29  C   UNL     1      -1.256   1.117  -3.724  0.00  0.00    +0.114 C 
BRANCH  29  30
ATOM     30  C   UNL     1      -0.531   0.619  -2.472  0.00  0.00    +0.019 C 
BRANCH  30  31
ATOM     31  C   UNL     1      -1.370   0.941  -1.234  0.00  0.00    +0.001 C 
BRANCH  31  33
ATOM     32  C   UNL     1      -1.484   0.764   1.256  0.00  0.00    +0.004 C 
ATOM     33  C   UNL     1      -0.645   0.442   0.018  0.00  0.00    -0.003 C 
ENDBRANCH  31  33
ENDBRANCH  30  31
ENDBRANCH  29  30
ENDBRANCH   1  29
TORSDOF 8
