REMARK  Name = ZINC39666912
REMARK  8 active torsions:
REMARK  status: ('A' for Active; 'I' for Inactive)
REMARK    1  A    between atoms: C_1  and  C_2
REMARK    2  A    between atoms: C_2  and  C_3
REMARK    3  A    between atoms: C_3  and  C_4
REMARK    4  A    between atoms: C_3  and  C_6
REMARK    5  A    between atoms: C_4  and  C_5
REMARK    6  A    between atoms: C_6  and  N_7
REMARK    7  A    between atoms: C_8  and  C_10
REMARK    8  A    between atoms: C_21  and  C_23
REMARK                            x       y       z     vdW  Elec       q    Type
REMARK                         _______ _______ _______ _____ _____    ______ ____
ROOT
ATOM      1  C   UNL     1      -4.101  -3.954   0.248  0.00  0.00    +0.100 C 
ATOM      2  C   UNL     1      -4.591  -3.625  -1.179  0.00  0.00    +0.121 C 
ATOM      3  N   UNL     1      -4.498  -4.909  -1.912  0.00  0.00    -0.295 N 
ATOM      4  C   UNL     1      -4.945  -5.927  -0.931  0.00  0.00    +0.115 C 
ATOM      5  C   UNL     1      -4.338  -5.465   0.409  0.00  0.00    -0.004 C 
ATOM      6  C   UNL     1      -5.316  -5.728   1.550  0.00  0.00    -0.010 C 
ATOM      7  C   UNL     1      -5.491  -7.239   1.728  0.00  0.00    -0.082 C 
ATOM      8  N   UNL     1      -4.191  -7.853   2.021  0.00  0.00    +0.379 N 
ATOM      9  C   UNL     1      -3.285  -7.676   0.879  0.00  0.00    -0.082 C 
ATOM     10  C   UNL     1      -3.017  -6.183   0.665  0.00  0.00    -0.010 C 
ATOM     11  C   UNL     1      -4.099  -5.108  -3.184  0.00  0.00    +0.265 C 
ATOM     12  O   UNL     1      -3.669  -4.178  -3.838  0.00  0.00    -0.268 OA
ATOM     13  H   UNL     1      -3.790  -7.416   2.837  0.00  0.00    -0.086 HD
ATOM     14  H   UNL     1      -4.317  -8.838   2.198  0.00  0.00    -0.086 HD
ENDROOT
BRANCH  11  15
ATOM     15  C   UNL     1      -4.184  -6.461  -3.785  0.00  0.00    +0.126 A 
ATOM     16  C   UNL     1      -3.650  -6.677  -5.064  0.00  0.00    +0.033 A 
ATOM     17  C   UNL     1      -3.721  -7.918  -5.629  0.00  0.00    +0.012 A 
ATOM     18  C   UNL     1      -4.337  -8.949  -4.895  0.00  0.00    +0.000 A 
ATOM     19  C   UNL     1      -4.444 -10.249  -5.414  0.00  0.00    +0.010 A 
ATOM     20  C   UNL     1      -5.046 -11.222  -4.676  0.00  0.00    +0.001 A 
ATOM     21  C   UNL     1      -5.559 -10.945  -3.409  0.00  0.00    +0.002 A 
ATOM     22  C   UNL     1      -5.473  -9.698  -2.873  0.00  0.00    +0.028 A 
ATOM     23  C   UNL     1      -4.857  -8.664  -3.606  0.00  0.00    +0.072 A 
ATOM     24  N   UNL     1      -4.755  -7.434  -3.103  0.00  0.00    -0.242 NA
ENDBRANCH  11  15
BRANCH   1  26
ATOM     25  N   UNL     1      -2.099  -3.440   1.608  0.00  0.00    -0.315 N 
ATOM     26  C   UNL     1      -2.634  -3.636   0.386  0.00  0.00    +0.218 C 
ATOM     27  O   UNL     1      -1.936  -3.556  -0.602  0.00  0.00    -0.275 OA
ATOM     28  H   UNL     1      -2.640  -3.576   2.402  0.00  0.00    +0.149 HD
BRANCH  25  29
ATOM     29  C   UNL     1      -0.701  -3.023   1.737  0.00  0.00    +0.107 C 
BRANCH  29  30
ATOM     30  C   UNL     1      -0.382  -2.754   3.209  0.00  0.00    +0.006 C 
BRANCH  30  32
ATOM     31  C   UNL     1      -0.335  -3.756   5.497  0.00  0.00    +0.004 C 
ATOM     32  C   UNL     1      -0.531  -4.050   4.008  0.00  0.00    +0.002 C 
ENDBRANCH  30  32
BRANCH  30  33
ATOM     33  C   UNL     1       1.053  -2.239   3.334  0.00  0.00    +0.002 C 
ATOM     34  C   UNL     1       1.178  -0.896   2.612  0.00  0.00    +0.004 C 
ENDBRANCH  30  33
ENDBRANCH  29  30
ENDBRANCH  25  29
ENDBRANCH   1  26
TORSDOF 6
