REMARK  Name = ZINC10779265
REMARK  10 active torsions:
REMARK  status: ('A' for Active; 'I' for Inactive)
REMARK    1  A    between atoms: C_1  and  C_2
REMARK    2  A    between atoms: C_5  and  C_34
REMARK    3  A    between atoms: C_6  and  N_8
REMARK    4  A    between atoms: C_9  and  C_11
REMARK    5  A    between atoms: C_11  and  C_13
REMARK    6  A    between atoms: C_11  and  O_14
REMARK    7  A    between atoms: O_14  and  C_15
REMARK    8  A    between atoms: C_15  and  C_17
REMARK    9  A    between atoms: N_22  and  S_24
REMARK   10  A    between atoms: S_24  and  C_27
REMARK                            x       y       z     vdW  Elec       q    Type
REMARK                         _______ _______ _______ _____ _____    ______ ____
ROOT
ATOM      1  C   UNL     1       7.106   1.404  -3.828  0.00  0.00    +0.312 C 
ATOM      2  O   UNL     1       6.748   0.256  -3.947  0.00  0.00    -0.250 OA
ENDROOT
BRANCH   1   3
ATOM      3  C   UNL     1       6.314   2.355  -2.969  0.00  0.00    +0.113 C 
ATOM      4  C   UNL     1       5.819   3.524  -3.824  0.00  0.00    +0.017 C 
ATOM      5  C   UNL     1       5.042   4.508  -2.946  0.00  0.00    +0.018 C 
ATOM      6  C   UNL     1       3.824   3.799  -2.346  0.00  0.00    +0.109 C 
ATOM      7  N   UNL     1       4.279   2.591  -1.643  0.00  0.00    -0.176 NA
ATOM      8  C   UNL     1       5.115   1.624  -2.368  0.00  0.00    +0.124 C 
BRANCH   7   9
ATOM      9  S   UNL     1       3.864   2.329  -0.061  0.00  0.00    +0.061 S 
ATOM     10  O   UNL     1       3.583   3.603   0.502  0.00  0.00    -0.153 OA
ATOM     11  O   UNL     1       4.849   1.458   0.478  0.00  0.00    -0.153 OA
BRANCH   9  12
ATOM     12  C   UNL     1       2.346   1.433  -0.063  0.00  0.00    +0.106 A 
ATOM     13  C   UNL     1       1.143   2.114  -0.053  0.00  0.00    +0.031 A 
ATOM     14  C   UNL     1      -0.048   1.412  -0.055  0.00  0.00    +0.040 A 
ATOM     15  C   UNL     1      -0.035   0.028  -0.067  0.00  0.00    +0.124 A 
ATOM     16  C   UNL     1       1.171  -0.653  -0.077  0.00  0.00    +0.040 A 
ATOM     17  C   UNL     1       2.360   0.051  -0.075  0.00  0.00    +0.031 A 
ATOM     18  F   UNL     1      -1.199  -0.659  -0.068  0.00  0.00    -0.205 F 
ENDBRANCH   9  12
ENDBRANCH   7   9
ENDBRANCH   1   3
BRANCH   1  19
ATOM     19  O   UNL     1       8.210   1.832  -4.461  0.00  0.00    -0.452 OA
BRANCH  19  20
ATOM     20  C   UNL     1       8.923   0.861  -5.271  0.00  0.00    +0.259 C 
ATOM     21  C   UNL     1       8.375   0.887  -6.700  0.00  0.00    +0.062 C 
BRANCH  20  23
ATOM     22  N   UNL     1      11.253   0.435  -5.984  0.00  0.00    -0.282 N 
ATOM     23  C   UNL     1      10.391   1.203  -5.290  0.00  0.00    +0.258 C 
ATOM     24  O   UNL     1      10.795   2.171  -4.681  0.00  0.00    -0.271 OA
ATOM     25  H   UNL     1      10.944  -0.383  -6.405  0.00  0.00    +0.155 HD
BRANCH  22  31
ATOM     26  C   UNL     1      14.664   3.975  -5.948  0.00  0.00    +0.044 C 
ATOM     27  C   UNL     1      14.276   2.526  -6.084  0.00  0.00    -0.049 A 
ATOM     28  C   UNL     1      15.248   1.570  -6.321  0.00  0.00    +0.004 A 
ATOM     29  C   UNL     1      14.896   0.239  -6.447  0.00  0.00    +0.005 A 
ATOM     30  C   UNL     1      13.572  -0.141  -6.336  0.00  0.00    -0.029 A 
ATOM     31  C   UNL     1      12.595   0.816  -6.097  0.00  0.00    +0.037 A 
ATOM     32  C   UNL     1      12.951   2.153  -5.976  0.00  0.00    +0.027 A 
ATOM     33  C   UNL     1      13.190  -1.592  -6.475  0.00  0.00    +0.045 C 
ENDBRANCH  22  31
ENDBRANCH  20  23
ENDBRANCH  19  20
ENDBRANCH   1  19
TORSDOF 7
