REMARK  Name = ZINC52394666
REMARK  3 active torsions:
REMARK  status: ('A' for Active; 'I' for Inactive)
REMARK    1  A    between atoms: C_3  and  C_6
REMARK    2  A    between atoms: C_6  and  C_8
REMARK    3  A    between atoms: C_6  and  N_15
REMARK                            x       y       z     vdW  Elec       q    Type
REMARK                         _______ _______ _______ _____ _____    ______ ____
ROOT
ATOM      1  C   UNL     1       3.761   1.845  -0.024  0.00  0.00    +0.139 C 
ENDROOT
BRANCH   1   2
ATOM      2  N   UNL     1       4.587   1.010   0.851  0.00  0.00    -0.316 N 
ATOM      3  C   UNL     1       4.643   1.276   2.215  0.00  0.00    +0.142 A 
ATOM      4  C   UNL     1       5.443   0.473   3.048  0.00  0.00    +0.049 A 
ATOM      5  C   UNL     1       5.505   0.725   4.383  0.00  0.00    +0.055 A 
ATOM      6  C   UNL     1       4.762   1.795   4.914  0.00  0.00    +0.200 A 
ATOM      7  N   UNL     1       4.606   2.293   6.133  0.00  0.00    -0.107 NA
ATOM      8  N   UNL     1       3.804   3.297   6.102  0.00  0.00    -0.021 NA
ATOM      9  N   UNL     1       3.392   3.518   4.899  0.00  0.00    -0.021 NA
ATOM     10  N   UNL     1       3.994   2.557   4.077  0.00  0.00    -0.108 N 
ATOM     11  N   UNL     1       3.952   2.279   2.711  0.00  0.00    -0.131 NA
ATOM     12  H   UNL     1       5.094   0.272   0.480  0.00  0.00    +0.148 HD
ENDBRANCH   1   2
BRANCH   1  13
ATOM     13  C   UNL     1       4.303   1.790  -1.429  0.00  0.00    -0.022 A 
ATOM     14  C   UNL     1       4.760   0.593  -1.947  0.00  0.00    +0.007 A 
ATOM     15  C   UNL     1       5.258   0.541  -3.235  0.00  0.00    +0.020 A 
ATOM     16  C   UNL     1       5.299   1.689  -4.007  0.00  0.00    +0.041 A 
ATOM     17  C   UNL     1       4.841   2.887  -3.488  0.00  0.00    +0.020 A 
ATOM     18  C   UNL     1       4.338   2.936  -2.202  0.00  0.00    +0.007 A 
ATOM     19 CL   UNL     1       5.924   1.625  -5.625  0.00  0.00    -0.084 Cl
ENDBRANCH   1  13
BRANCH   1  22
ATOM     20  C   UNL     1      -0.016   1.351   0.009  0.00  0.00    +0.008 A 
ATOM     21  C   UNL     1       1.183   2.038   0.002  0.00  0.00    +0.013 A 
ATOM     22  C   UNL     1       2.343   1.336  -0.013  0.00  0.00    +0.014 A 
ATOM     23  S   UNL     1       1.754  -0.349  -0.017  0.00  0.00    -0.099 S 
ATOM     24  C   UNL     1       0.002  -0.004   0.002  0.00  0.00    +0.045 A 
ENDBRANCH   1  22
TORSDOF 3
