REMARK  Name = ZINC16492687
REMARK  4 active torsions:
REMARK  status: ('A' for Active; 'I' for Inactive)
REMARK    1  A    between atoms: C_4  and  C_7
REMARK    2  A    between atoms: C_9  and  C_28
REMARK    3  A    between atoms: C_18  and  C_21
REMARK    4  A    between atoms: C_24  and  N_27
REMARK                            x       y       z     vdW  Elec       q    Type
REMARK                         _______ _______ _______ _____ _____    ______ ____
ROOT
ATOM      1  C   UNL     1       5.860   2.704  -0.048  0.00  0.00    +0.094 A 
ATOM      2  C   UNL     1       4.969   1.665   0.271  0.00  0.00    +0.058 A 
ATOM      3  C   UNL     1       3.716   2.200   0.350  0.00  0.00    +0.078 A 
ATOM      4  N   UNL     1       3.822   3.537   0.082  0.00  0.00    -0.196 N 
ATOM      5  N   UNL     1       5.172   3.822  -0.158  0.00  0.00    -0.163 NA
ATOM      6  C   UNL     1       2.773   4.453   0.054  0.00  0.00    +0.271 A 
ATOM      7  N   UNL     1       1.492   4.178   0.145  0.00  0.00    -0.106 NA
ATOM      8  N   UNL     1       0.799   5.264   0.087  0.00  0.00    -0.119 NA
ATOM      9  C   UNL     1       1.596   6.286  -0.042  0.00  0.00    +0.215 A 
ATOM     10  N   UNL     1       2.881   5.803  -0.065  0.00  0.00    -0.201 N 
ATOM     11  N   UNL     1       4.008   6.614  -0.199  0.00  0.00    -0.248 N 
ATOM     12  C   UNL     1       3.880   7.935  -0.642  0.00  0.00    +0.061 C 
ATOM     13  C   UNL     1       2.753   8.631  -0.677  0.00  0.00    +0.074 C 
ATOM     14  S   UNL     1       1.199   7.997  -0.158  0.00  0.00    -0.054 S 
ATOM     15  H   UNL     1       4.885   6.261   0.018  0.00  0.00    +0.173 HD
ENDROOT
BRANCH   1  19
ATOM     16  C   UNL     1      10.061   2.304  -0.573  0.00  0.00    +0.000 A 
ATOM     17  C   UNL     1       9.463   3.543  -0.717  0.00  0.00    +0.001 A 
ATOM     18  C   UNL     1       8.100   3.679  -0.548  0.00  0.00    +0.010 A 
ATOM     19  C   UNL     1       7.326   2.564  -0.231  0.00  0.00    +0.002 A 
ATOM     20  C   UNL     1       7.934   1.320  -0.081  0.00  0.00    +0.010 A 
ATOM     21  C   UNL     1       9.297   1.195  -0.259  0.00  0.00    +0.001 A 
ENDBRANCH   1  19
BRANCH  12  22
ATOM     22  C   UNL     1       5.107   8.611  -1.113  0.00  0.00    -0.002 A 
ATOM     23  C   UNL     1       5.399   9.908  -0.686  0.00  0.00    +0.011 A 
ATOM     24  C   UNL     1       6.546  10.534  -1.123  0.00  0.00    +0.023 A 
ATOM     25  C   UNL     1       7.407   9.879  -1.997  0.00  0.00    +0.025 A 
ATOM     26  C   UNL     1       7.117   8.590  -2.429  0.00  0.00    +0.023 A 
ATOM     27  C   UNL     1       5.974   7.956  -1.991  0.00  0.00    +0.011 A 
BRANCH  25  28
ATOM     28  N   UNL     1       8.567  10.519  -2.443  0.00  0.00    -0.358 N 
ATOM     29  H   UNL     1       9.168  10.063  -3.053  0.00  0.00    +0.142 HD
ATOM     30  H   UNL     1       8.770  11.418  -2.142  0.00  0.00    +0.142 HD
ENDBRANCH  25  28
ENDBRANCH  12  22
BRANCH   3  31
ATOM     31  C   UNL     1       2.470   1.467   0.663  0.00  0.00    +0.001 A 
ATOM     32  C   UNL     1       1.474   2.073   1.430  0.00  0.00    +0.010 A 
ATOM     33  C   UNL     1       0.314   1.384   1.719  0.00  0.00    +0.001 A 
ATOM     34  C   UNL     1       0.138   0.094   1.250  0.00  0.00    +0.000 A 
ATOM     35  C   UNL     1       1.122  -0.513   0.490  0.00  0.00    +0.001 A 
ATOM     36  C   UNL     1       2.286   0.166   0.194  0.00  0.00    +0.010 A 
ENDBRANCH   3  31
TORSDOF 4
