REMARK  Name = ZINC58282003
REMARK  7 active torsions:
REMARK  status: ('A' for Active; 'I' for Inactive)
REMARK    1  A    between atoms: C_1  and  C_2
REMARK    2  A    between atoms: C_2  and  C_3
REMARK    3  A    between atoms: C_2  and  N_4
REMARK    4  A    between atoms: C_5  and  C_7
REMARK    5  A    between atoms: C_12  and  N_13
REMARK    6  A    between atoms: C_14  and  C_16
REMARK    7  A    between atoms: C_16  and  N_17
REMARK                            x       y       z     vdW  Elec       q    Type
REMARK                         _______ _______ _______ _____ _____    ______ ____
ROOT
ATOM      1  N   UNL     1      -1.223  -0.816   4.994  0.00  0.00    -0.283 N 
ATOM      2  C   UNL     1      -1.778  -0.795   6.222  0.00  0.00    +0.235 C 
ATOM      3  O   UNL     1      -1.097  -1.021   7.200  0.00  0.00    -0.274 OA
ATOM      4  H   UNL     1      -1.748  -0.561   4.220  0.00  0.00    +0.155 HD
ENDROOT
BRANCH   1  10
ATOM      5  C   UNL     1       0.904  -0.604   3.853  0.00  0.00    +0.058 A 
ATOM      6  C   UNL     1       2.237  -0.999   3.708  0.00  0.00    +0.016 A 
ATOM      7  C   UNL     1       2.756  -1.977   4.527  0.00  0.00    +0.021 A 
ATOM      8  C   UNL     1       1.963  -2.574   5.496  0.00  0.00    +0.043 A 
ATOM      9  C   UNL     1       0.644  -2.193   5.650  0.00  0.00    +0.044 A 
ATOM     10  C   UNL     1       0.106  -1.205   4.837  0.00  0.00    +0.047 A 
ATOM     11 CL   UNL     1       2.631  -3.806   6.520  0.00  0.00    -0.083 Cl
BRANCH   5  13
ATOM     12  N   UNL     1       1.138   1.088   2.103  0.00  0.00    -0.309 N 
ATOM     13  C   UNL     1       0.342   0.443   2.979  0.00  0.00    +0.246 C 
ATOM     14  O   UNL     1      -0.839   0.724   3.049  0.00  0.00    -0.270 OA
ATOM     15  H   UNL     1       2.080   0.864   2.047  0.00  0.00    +0.149 HD
BRANCH  12  17
ATOM     16  C   UNL     1       0.567   3.463   1.983  0.00  0.00    +0.027 C 
ATOM     17  C   UNL     1       0.580   2.128   1.236  0.00  0.00    +0.067 C 
ATOM     18  C   UNL     1       1.438   2.257  -0.024  0.00  0.00    +0.027 C 
ENDBRANCH  12  17
ENDBRANCH   5  13
ENDBRANCH   1  10
BRANCH   2  19
ATOM     19  C   UNL     1      -3.245  -0.489   6.381  0.00  0.00    +0.214 C 
BRANCH  19  20
ATOM     20  N   UNL     1      -3.601  -0.527   7.801  0.00  0.00    -0.215 N 
ATOM     21  C   UNL     1      -4.016  -1.636   8.451  0.00  0.00    +0.251 C 
ATOM     22  O   UNL     1      -4.160  -2.748   7.991  0.00  0.00    -0.272 OA
ATOM     23  C   UNL     1      -4.262  -1.194   9.871  0.00  0.00    +0.138 C 
ATOM     24  C   UNL     1      -5.719  -1.433  10.284  0.00  0.00    +0.045 C 
ATOM     25  C   UNL     1      -5.583  -1.750  11.790  0.00  0.00    +0.038 C 
ATOM     26  C   UNL     1      -4.178  -2.290  11.957  0.00  0.00    -0.042 A 
ATOM     27  C   UNL     1      -3.416  -1.966  10.847  0.00  0.00    -0.012 A 
ATOM     28  C   UNL     1      -2.090  -2.361  10.786  0.00  0.00    +0.006 A 
ATOM     29  C   UNL     1      -1.526  -3.076  11.825  0.00  0.00    +0.000 A 
ATOM     30  C   UNL     1      -2.288  -3.400  12.932  0.00  0.00    +0.000 A 
ATOM     31  C   UNL     1      -3.610  -3.007  12.997  0.00  0.00    +0.004 A 
ATOM     32  N   UNL     1      -3.933   0.232   9.876  0.00  0.00    -0.281 N 
ATOM     33  C   UNL     1      -3.550   0.533   8.619  0.00  0.00    +0.310 C 
ATOM     34  O   UNL     1      -3.201   1.643   8.266  0.00  0.00    -0.252 OA
ATOM     35  H   UNL     1      -3.978   0.837  10.632  0.00  0.00    +0.152 HD
ENDBRANCH  19  20
ENDBRANCH   2  19
TORSDOF 5
