REMARK  Name = ZINC38740765
REMARK  8 active torsions:
REMARK  status: ('A' for Active; 'I' for Inactive)
REMARK    1  A    between atoms: C_1  and  C_2
REMARK    2  A    between atoms: C_2  and  C_4
REMARK    3  A    between atoms: C_2  and  N_18
REMARK    4  A    between atoms: C_4  and  C_5
REMARK    5  A    between atoms: C_4  and  C_11
REMARK    6  A    between atoms: C_4  and  O_17
REMARK    7  A    between atoms: C_19  and  C_21
REMARK    8  A    between atoms: C_27  and  C_29
REMARK                            x       y       z     vdW  Elec       q    Type
REMARK                         _______ _______ _______ _____ _____    ______ ____
ROOT
ATOM      1  N   UNL     1       0.744  -0.407   1.189  0.00  0.00    -0.309 N 
ATOM      2  C   UNL     1       0.076  -0.574   2.347  0.00  0.00    +0.217 C 
ATOM      3  O   UNL     1      -1.105  -0.304   2.410  0.00  0.00    -0.275 OA
ATOM      4  H   UNL     1       1.688  -0.623   1.138  0.00  0.00    +0.149 HD
ENDROOT
BRANCH   2   5
ATOM      5  C   UNL     1       0.796  -1.095   3.564  0.00  0.00    +0.091 C 
ATOM      6  C   UNL     1       1.931  -0.140   3.939  0.00  0.00    +0.040 C 
ATOM      7  C   UNL     1       2.483  -0.497   5.287  0.00  0.00    -0.030 C 
ATOM      8  C   UNL     1       1.871  -1.247   6.147  0.00  0.00    -0.030 C 
ATOM      9  C   UNL     1       0.527  -1.872   5.910  0.00  0.00    +0.040 C 
ATOM     10  C   UNL     1      -0.181  -1.181   4.744  0.00  0.00    +0.091 C 
BRANCH  10  11
ATOM     11  C   UNL     1      -0.597   0.206   5.160  0.00  0.00    +0.220 C 
ATOM     12  O   UNL     1       0.224   0.975   5.614  0.00  0.00    -0.275 OA
ATOM     13  N   UNL     1      -1.881   0.593   5.027  0.00  0.00    -0.298 N 
ATOM     14  C   UNL     1      -2.911  -0.365   4.603  0.00  0.00    +0.126 C 
ATOM     15  C   UNL     1      -4.032  -0.374   5.649  0.00  0.00    +0.125 C 
ATOM     16  N   UNL     1      -4.428   1.014   5.926  0.00  0.00    -0.314 N 
ATOM     17  C   UNL     1      -3.398   1.973   6.349  0.00  0.00    +0.125 C 
ATOM     18  C   UNL     1      -2.277   1.980   5.309  0.00  0.00    +0.126 C 
ATOM     19  C   UNL     1      -5.752   1.413   5.788  0.00  0.00    +0.099 A 
ATOM     20  C   UNL     1      -6.731   0.467   5.500  0.00  0.00    +0.042 A 
ATOM     21  C   UNL     1      -8.045   0.878   5.366  0.00  0.00    +0.005 A 
ATOM     22  C   UNL     1      -8.337   2.227   5.526  0.00  0.00    +0.018 A 
ATOM     23  C   UNL     1      -7.316   3.110   5.811  0.00  0.00    +0.084 A 
ATOM     24  N   UNL     1      -6.072   2.689   5.939  0.00  0.00    -0.350 N 
ATOM     25  H   UNL     1      -5.374   3.331   6.144  0.00  0.00    +0.166 HD
ENDBRANCH  10  11
ENDBRANCH   2   5
BRANCH   1  27
ATOM     26  C   UNL     1       0.021   1.629   0.043  0.00  0.00    +0.031 C 
ATOM     27  C   UNL     1       0.044   0.099   0.006  0.00  0.00    +0.110 C 
BRANCH  27  28
ATOM     28  C   UNL     1       0.770  -0.369  -1.256  0.00  0.00    +0.134 C 
BRANCH  28  29
ATOM     29  C   UNL     1       0.793  -1.876  -1.293  0.00  0.00    -0.010 A 
ATOM     30  C   UNL     1      -0.235  -2.597  -0.715  0.00  0.00    +0.007 A 
ATOM     31  C   UNL     1      -0.215  -3.978  -0.748  0.00  0.00    +0.000 A 
ATOM     32  C   UNL     1       0.834  -4.639  -1.360  0.00  0.00    +0.000 A 
ATOM     33  C   UNL     1       1.861  -3.919  -1.939  0.00  0.00    +0.000 A 
ATOM     34  C   UNL     1       1.839  -2.537  -1.909  0.00  0.00    +0.007 A 
ENDBRANCH  28  29
BRANCH  28  35
ATOM     35  C   UNL     1       0.050   0.152  -2.473  0.00  0.00    -0.010 A 
ATOM     36  C   UNL     1      -1.315   0.366  -2.430  0.00  0.00    +0.007 A 
ATOM     37  C   UNL     1      -1.975   0.844  -3.546  0.00  0.00    +0.000 A 
ATOM     38  C   UNL     1      -1.271   1.108  -4.706  0.00  0.00    +0.000 A 
ATOM     39  C   UNL     1       0.094   0.895  -4.749  0.00  0.00    +0.000 A 
ATOM     40  C   UNL     1       0.755   0.421  -3.631  0.00  0.00    +0.007 A 
ENDBRANCH  28  35
BRANCH  28  41
ATOM     41  O   UNL     1       2.110   0.127  -1.247  0.00  0.00    -0.377 OA
ATOM     42  H   UNL     1       2.634  -0.169  -0.490  0.00  0.00    +0.211 HD
ENDBRANCH  28  41
ENDBRANCH  27  28
ENDBRANCH   1  27
TORSDOF 7
