REMARK  Name = ZINC67427773
REMARK  8 active torsions:
REMARK  status: ('A' for Active; 'I' for Inactive)
REMARK    1  A    between atoms: C_1  and  C_2
REMARK    2  A    between atoms: C_2  and  C_3
REMARK    3  A    between atoms: C_3  and  N_4
REMARK    4  A    between atoms: N_4  and  C_5
REMARK    5  A    between atoms: N_4  and  C_16
REMARK    6  A    between atoms: C_5  and  C_6
REMARK    7  A    between atoms: C_9  and  C_11
REMARK    8  A    between atoms: C_16  and  C_17
REMARK                            x       y       z     vdW  Elec       q    Type
REMARK                         _______ _______ _______ _____ _____    ______ ____
ROOT
ATOM      1  C   UNL     1      -0.754  -2.390   1.372  0.00  0.00    +0.019 C 
ENDROOT
BRANCH   1   2
ATOM      2  C   UNL     1       0.608  -1.767   1.542  0.00  0.00    +0.180 A 
ATOM      3  N   UNL     1       0.839  -0.568   1.998  0.00  0.00    -0.223 NA
ATOM      4  C   UNL     1       2.163  -0.354   2.011  0.00  0.00    +0.161 A 
ATOM      5  C   UNL     1       2.763  -1.480   1.539  0.00  0.00    +0.162 A 
ATOM      6  O   UNL     1       1.776  -2.359   1.255  0.00  0.00    -0.441 OA
BRANCH   5   7
ATOM      7  C   UNL     1       4.209  -1.701   1.376  0.00  0.00    +0.056 A 
ATOM      8  C   UNL     1       5.251  -0.854   1.657  0.00  0.00    +0.019 A 
ATOM      9  C   UNL     1       6.537  -1.286   1.419  0.00  0.00    +0.008 A 
ATOM     10  C   UNL     1       6.734  -2.531   0.915  0.00  0.00    +0.046 A 
ATOM     11  S   UNL     1       5.065  -3.145   0.766  0.00  0.00    -0.094 S 
ENDBRANCH   5   7
ENDBRANCH   1   2
BRANCH   1  12
ATOM     12  N   UNL     1      -1.204  -2.211  -0.015  0.00  0.00    +0.386 N 
ATOM     13  H   UNL     1      -0.509  -2.583  -0.645  0.00  0.00    -0.081 HD
BRANCH  12  14
ATOM     14  C   UNL     1      -1.396  -0.780  -0.287  0.00  0.00    -0.078 C 
BRANCH  14  16
ATOM     15  C   UNL     1      -2.667   1.265   0.380  0.00  0.00    +0.002 C 
ATOM     16  C   UNL     1      -2.365  -0.191   0.740  0.00  0.00    -0.022 C 
ENDBRANCH  14  16
ENDBRANCH  12  14
BRANCH  12  17
ATOM     17  C   UNL     1      -2.474  -2.921  -0.213  0.00  0.00    -0.075 C 
BRANCH  17  18
ATOM     18  C   UNL     1      -2.880  -2.840  -1.686  0.00  0.00    -0.028 C 
ATOM     19  C   UNL     1      -4.174  -2.095  -2.022  0.00  0.00    +0.002 C 
ATOM     20  C   UNL     1      -4.122  -3.621  -2.121  0.00  0.00    +0.002 C 
ENDBRANCH  17  18
ENDBRANCH  12  17
ENDBRANCH   1  12
TORSDOF 7
