REMARK  Name = ZINC35861628
REMARK  14 active torsions:
REMARK  status: ('A' for Active; 'I' for Inactive)
REMARK    1  A    between atoms: C_1  and  C_2
REMARK    2  A    between atoms: C_2  and  C_3
REMARK    3  A    between atoms: C_2  and  C_4
REMARK    4  A    between atoms: C_4  and  C_5
REMARK    5  A    between atoms: C_13  and  O_25
REMARK    6  A    between atoms: C_16  and  C_18
REMARK    7  A    between atoms: O_25  and  C_26
REMARK    8  A    between atoms: C_26  and  C_27
REMARK    9  A    between atoms: C_29  and  C_32
REMARK   10  A    between atoms: N_34  and  C_35
REMARK   11  A    between atoms: C_35  and  C_36
REMARK   12  A    between atoms: C_36  and  N_37
REMARK   13  A    between atoms: N_37  and  C_38
REMARK   14  A    between atoms: N_37  and  C_39
REMARK                            x       y       z     vdW  Elec       q    Type
REMARK                         _______ _______ _______ _____ _____    ______ ____
ROOT
ATOM      1  C   UNL     1      -1.952   0.063  -1.554  0.00  0.00    +0.217 C 
ATOM      2  O   UNL     1      -1.547   0.768  -2.453  0.00  0.00    -0.276 OA
ATOM      3  N   UNL     1      -3.207  -0.428  -1.595  0.00  0.00    -0.290 N 
ATOM      4  C   UNL     1      -3.731  -1.281  -0.516  0.00  0.00    +0.113 C 
ATOM      5  C   UNL     1      -4.886  -0.537   0.153  0.00  0.00    +0.054 C 
ATOM      6  C   UNL     1      -5.834   0.018  -0.877  0.00  0.00    -0.040 A 
ATOM      7  C   UNL     1      -7.121   0.337  -0.461  0.00  0.00    +0.007 A 
ATOM      8  C   UNL     1      -8.038   0.858  -1.348  0.00  0.00    +0.046 A 
ATOM      9  C   UNL     1      -7.674   1.069  -2.670  0.00  0.00    +0.122 A 
ATOM     10  C   UNL     1      -6.393   0.750  -3.086  0.00  0.00    +0.051 A 
ATOM     11  C   UNL     1      -5.475   0.219  -2.191  0.00  0.00    -0.016 A 
ATOM     12  C   UNL     1      -4.107  -0.127  -2.713  0.00  0.00    +0.137 C 
ENDROOT
BRANCH  12  13
ATOM     13  C   UNL     1      -4.209  -1.332  -3.612  0.00  0.00    -0.022 A 
ATOM     14  C   UNL     1      -4.786  -2.498  -3.143  0.00  0.00    +0.008 A 
ATOM     15  C   UNL     1      -4.880  -3.603  -3.966  0.00  0.00    +0.038 A 
ATOM     16  C   UNL     1      -4.398  -3.543  -5.263  0.00  0.00    +0.123 A 
ATOM     17  C   UNL     1      -3.820  -2.376  -5.732  0.00  0.00    +0.038 A 
ATOM     18  C   UNL     1      -3.732  -1.270  -4.908  0.00  0.00    +0.008 A 
ATOM     19  F   UNL     1      -4.489  -4.623  -6.069  0.00  0.00    -0.205 F 
ENDBRANCH  12  13
BRANCH   1  20
ATOM     20  C   UNL     1      -1.053  -0.265  -0.390  0.00  0.00    +0.099 C 
BRANCH  20  22
ATOM     21  C   UNL     1       0.129   1.930  -0.548  0.00  0.00    +0.008 C 
ATOM     22  C   UNL     1       0.305   0.411  -0.589  0.00  0.00    -0.008 C 
ATOM     23  C   UNL     1       1.258  -0.022   0.527  0.00  0.00    +0.008 C 
ENDBRANCH  20  22
ENDBRANCH   1  20
BRANCH   9  24
ATOM     24  O   UNL     1      -8.570   1.587  -3.551  0.00  0.00    -0.483 OA
BRANCH  24  25
ATOM     25  C   UNL     1      -9.873   1.892  -3.049  0.00  0.00    +0.324 C 
BRANCH  25  26
ATOM     26  C   UNL     1     -10.722   2.451  -4.161  0.00  0.00    +0.234 A 
ATOM     27  N   UNL     1     -11.473   1.753  -4.958  0.00  0.00    -0.206 NA
ATOM     28  C   UNL     1     -12.085   2.602  -5.828  0.00  0.00    +0.164 A 
ATOM     29  C   UNL     1     -11.667   3.860  -5.520  0.00  0.00    +0.230 A 
ATOM     30  O   UNL     1     -10.825   3.749  -4.480  0.00  0.00    -0.444 OA
BRANCH  28  31
ATOM     31  C   UNL     1     -13.024   2.229  -6.902  0.00  0.00    +0.265 C 
ATOM     32  O   UNL     1     -13.504   3.088  -7.615  0.00  0.00    -0.268 OA
ATOM     33  N   UNL     1     -13.349   0.935  -7.093  0.00  0.00    -0.312 N 
ATOM     34  H   UNL     1     -12.966   0.249  -6.524  0.00  0.00    +0.149 HD
BRANCH  33  35
ATOM     35  C   UNL     1     -14.282   0.564  -8.160  0.00  0.00    +0.086 C 
BRANCH  35  36
ATOM     36  C   UNL     1     -14.479  -0.953  -8.161  0.00  0.00    -0.061 C 
BRANCH  36  37
ATOM     37  N   UNL     1     -15.414  -1.325  -9.232  0.00  0.00    +0.377 N 
ATOM     38  C   UNL     1     -15.511  -2.788  -9.311  0.00  0.00    -0.097 C 
ATOM     39  C   UNL     1     -16.739  -0.761  -8.942  0.00  0.00    -0.097 C 
ATOM     40  H   UNL     1     -15.079  -0.962 -10.112  0.00  0.00    -0.083 HD
ENDBRANCH  36  37
ENDBRANCH  35  36
ENDBRANCH  33  35
ENDBRANCH  28  31
ENDBRANCH  25  26
ENDBRANCH  24  25
ENDBRANCH   9  24
TORSDOF 10
