REMARK  Name = ZINC14475058
REMARK  3 active torsions:
REMARK  status: ('A' for Active; 'I' for Inactive)
REMARK    1  A    between atoms: C_6  and  C_11
REMARK    2  A    between atoms: C_22  and  S_27
REMARK    3  A    between atoms: S_27  and  N_30
REMARK                            x       y       z     vdW  Elec       q    Type
REMARK                         _______ _______ _______ _____ _____    ______ ____
ROOT
ATOM      1  C   UNL     1      -3.718   1.682   0.009  0.00  0.00    +0.105 C 
ATOM      2  C   UNL     1      -3.694   2.973  -0.790  0.00  0.00    +0.029 C 
ATOM      3  C   UNL     1      -4.953   3.850  -0.780  0.00  0.00    +0.033 C 
ATOM      4  C   UNL     1      -4.358   5.245  -0.986  0.00  0.00    -0.030 C 
ATOM      5  C   UNL     1      -3.104   5.273  -0.549  0.00  0.00    -0.023 C 
ATOM      6  C   UNL     1      -2.766   3.938   0.008  0.00  0.00    +0.049 C 
ATOM      7  C   UNL     1      -1.392   3.394  -0.047  0.00  0.00    -0.018 A 
ATOM      8  C   UNL     1      -0.277   4.202  -0.103  0.00  0.00    +0.034 A 
ATOM      9  C   UNL     1       0.988   3.646  -0.134  0.00  0.00    +0.105 A 
ATOM     10  C   UNL     1       1.139   2.271  -0.106  0.00  0.00    +0.030 A 
ATOM     11  C   UNL     1       0.029   1.453  -0.054  0.00  0.00    +0.025 A 
ATOM     12  C   UNL     1      -1.247   2.002  -0.037  0.00  0.00    +0.031 A 
ATOM     13  N   UNL     1      -2.337   1.155  -0.044  0.00  0.00    -0.336 N 
ATOM     14  H   UNL     1      -2.195   0.196  -0.065  0.00  0.00    +0.147 HD
ENDROOT
BRANCH   1  20
ATOM     15  C   UNL     1      -6.493   2.726   5.746  0.00  0.00    +0.001 A 
ATOM     16  C   UNL     1      -7.480   2.463   4.798  0.00  0.00    +0.001 A 
ATOM     17  C   UNL     1      -7.155   2.209   3.501  0.00  0.00    +0.008 A 
ATOM     18  C   UNL     1      -5.806   2.210   3.109  0.00  0.00    -0.018 A 
ATOM     19  C   UNL     1      -5.432   1.952   1.779  0.00  0.00    +0.014 A 
ATOM     20  C   UNL     1      -4.115   1.961   1.436  0.00  0.00    -0.026 A 
ATOM     21  C   UNL     1      -3.128   2.218   2.385  0.00  0.00    +0.006 A 
ATOM     22  C   UNL     1      -3.453   2.477   3.681  0.00  0.00    +0.009 A 
ATOM     23  C   UNL     1      -4.802   2.477   4.073  0.00  0.00    -0.018 A 
ATOM     24  C   UNL     1      -5.176   2.735   5.403  0.00  0.00    +0.008 A 
ENDBRANCH   1  20
BRANCH   9  25
ATOM     25  S   UNL     1       2.407   4.687  -0.211  0.00  0.00    +0.056 S 
ATOM     26  O   UNL     1       2.018   5.945   0.324  0.00  0.00    -0.153 OA
ATOM     27  O   UNL     1       3.491   3.936   0.321  0.00  0.00    -0.153 OA
BRANCH  25  28
ATOM     28  N   UNL     1       2.745   4.937  -1.812  0.00  0.00    -0.204 NA
ATOM     29  H   UNL     1       2.189   4.530  -2.495  0.00  0.00    +0.144 HD
ATOM     30  H   UNL     1       3.500   5.491  -2.068  0.00  0.00    +0.144 HD
ENDBRANCH  25  28
ENDBRANCH   9  25
TORSDOF 3
