REMARK  Name = ZINC09863379
REMARK  6 active torsions:
REMARK  status: ('A' for Active; 'I' for Inactive)
REMARK    1  A    between atoms: C_1  and  C_2
REMARK    2  A    between atoms: C_2  and  C_3
REMARK    3  A    between atoms: C_3  and  C_30
REMARK    4  A    between atoms: N_6  and  C_10
REMARK    5  A    between atoms: C_10  and  C_11
REMARK    6  A    between atoms: C_17  and  C_19
REMARK                            x       y       z     vdW  Elec       q    Type
REMARK                         _______ _______ _______ _____ _____    ______ ____
ROOT
ATOM      1  C   UNL     1      -2.100   0.065   2.232  0.00  0.00    +0.234 C 
ATOM      2  O   UNL     1      -1.093  -0.328   2.783  0.00  0.00    -0.274 OA
ATOM      3  N   UNL     1      -2.258  -0.117   0.906  0.00  0.00    -0.293 N 
ATOM      4  C   UNL     1      -3.427   0.307   0.109  0.00  0.00    +0.108 C 
ATOM      5  C   UNL     1      -3.429  -0.632  -1.124  0.00  0.00    +0.021 C 
ATOM      6  C   UNL     1      -1.910  -0.779  -1.405  0.00  0.00    +0.029 C 
ATOM      7  C   UNL     1      -1.294  -0.773   0.011  0.00  0.00    +0.106 C 
ENDROOT
BRANCH   7   8
ATOM      8  C   UNL     1       0.002  -0.004   0.002  0.00  0.00    -0.023 A 
ATOM      9  C   UNL     1      -0.017   1.378   0.010  0.00  0.00    +0.009 A 
ATOM     10  C   UNL     1       1.169   2.091   0.002  0.00  0.00    +0.050 A 
ATOM     11  C   UNL     1       2.377   1.413  -0.013  0.00  0.00    +0.162 A 
ATOM     12  C   UNL     1       2.396   0.026  -0.020  0.00  0.00    +0.162 A 
ATOM     13  C   UNL     1       1.207  -0.684  -0.013  0.00  0.00    +0.055 A 
ATOM     14  O   UNL     1       3.591  -0.632  -0.034  0.00  0.00    -0.488 OA
ATOM     15  C   UNL     1       4.357  -0.510  -1.234  0.00  0.00    +0.232 C 
ATOM     16  C   UNL     1       5.186   0.764  -1.218  0.00  0.00    +0.082 C 
ATOM     17  C   UNL     1       4.322   2.016  -1.221  0.00  0.00    +0.232 C 
ATOM     18  O   UNL     1       3.554   2.104  -0.019  0.00  0.00    -0.488 OA
ENDBRANCH   7   8
BRANCH   1  19
ATOM     19  C   UNL     1      -3.175   0.756   3.031  0.00  0.00    +0.213 C 
BRANCH  19  23
ATOM     20  C   UNL     1      -2.436   0.381   6.652  0.00  0.00    +0.138 C 
ATOM     21  C   UNL     1      -3.050  -0.113   5.357  0.00  0.00    +0.251 C 
ATOM     22  O   UNL     1      -3.666  -1.143   5.186  0.00  0.00    -0.272 OA
ATOM     23  N   UNL     1      -2.767   0.830   4.437  0.00  0.00    -0.215 N 
ATOM     24  C   UNL     1      -2.073   1.844   4.966  0.00  0.00    +0.310 C 
ATOM     25  O   UNL     1      -1.706   2.814   4.333  0.00  0.00    -0.252 OA
ATOM     26  N   UNL     1      -1.827   1.669   6.277  0.00  0.00    -0.281 N 
ATOM     27  H   UNL     1      -1.343   2.274   6.861  0.00  0.00    +0.152 HD
BRANCH  20  28
ATOM     28  C   UNL     1      -3.500   0.583   7.700  0.00  0.00    -0.015 A 
ATOM     29  C   UNL     1      -3.774  -0.422   8.609  0.00  0.00    +0.006 A 
ATOM     30  C   UNL     1      -4.747  -0.235   9.573  0.00  0.00    +0.000 A 
ATOM     31  C   UNL     1      -5.453   0.952   9.622  0.00  0.00    +0.000 A 
ATOM     32  C   UNL     1      -5.183   1.955   8.709  0.00  0.00    +0.000 A 
ATOM     33  C   UNL     1      -4.206   1.770   7.748  0.00  0.00    +0.006 A 
ENDBRANCH  20  28
BRANCH  20  35
ATOM     34  C   UNL     1      -0.264  -0.725   6.101  0.00  0.00    +0.007 C 
ATOM     35  C   UNL     1      -1.368  -0.593   7.152  0.00  0.00    +0.037 C 
ENDBRANCH  20  35
ENDBRANCH  19  23
ENDBRANCH   1  19
TORSDOF 5
