REMARK  Name = ZINC02265252
REMARK  8 active torsions:
REMARK  status: ('A' for Active; 'I' for Inactive)
REMARK    1  A    between atoms: C_1  and  C_2
REMARK    2  A    between atoms: C_2  and  C_4
REMARK    3  A    between atoms: C_7  and  N_10
REMARK    4  A    between atoms: C_11  and  C_13
REMARK    5  A    between atoms: C_13  and  S_14
REMARK    6  A    between atoms: S_14  and  C_15
REMARK    7  A    between atoms: C_29  and  C_31
REMARK    8  A    between atoms: C_29  and  C_32
REMARK                            x       y       z     vdW  Elec       q    Type
REMARK                         _______ _______ _______ _____ _____    ______ ____
ROOT
ATOM      1  C   UNL     1       1.291   1.791   0.368  0.00  0.00    +0.199 A 
ATOM      2  N   UNL     1       1.990   0.692   0.203  0.00  0.00    -0.122 NA
ATOM      3  N   UNL     1       1.219  -0.338   0.236  0.00  0.00    -0.128 NA
ATOM      4  C   UNL     1      -0.020   0.044   0.425  0.00  0.00    +0.174 A 
ATOM      5  N   UNL     1      -0.018   1.418   0.516  0.00  0.00    -0.241 N 
ATOM      6  C   UNL     1      -1.187   2.103   0.711  0.00  0.00    +0.202 A 
ATOM      7  N   UNL     1      -2.333   1.475   0.826  0.00  0.00    -0.208 NA
ATOM      8  C   UNL     1      -2.428   0.149   0.751  0.00  0.00    +0.116 A 
ATOM      9  C   UNL     1      -1.309  -0.672   0.549  0.00  0.00    +0.056 A 
ATOM     10  C   UNL     1      -1.571  -2.105   0.490  0.00  0.00    -0.019 A 
ATOM     11  C   UNL     1      -2.857  -2.502   0.634  0.00  0.00    +0.021 A 
ATOM     12  S   UNL     1      -3.775  -1.004   0.853  0.00  0.00    -0.071 S 
ATOM     13  C   UNL     1      -3.358  -3.913   0.607  0.00  0.00    +0.203 C 
ATOM     14  O   UNL     1      -2.305  -4.744   0.091  0.00  0.00    -0.368 OA
ATOM     15  C   UNL     1      -1.038  -4.511   0.713  0.00  0.00    +0.068 C 
ATOM     16  C   UNL     1      -0.480  -3.152   0.280  0.00  0.00    +0.071 C 
ATOM     17  C   UNL     1      -0.061  -5.614   0.301  0.00  0.00    +0.041 C 
ATOM     18  C   UNL     1      -1.211  -4.528   2.233  0.00  0.00    +0.041 C 
ATOM     19  N   UNL     1      -1.158   3.476   0.799  0.00  0.00    -0.328 N 
ATOM     20  H   UNL     1      -0.315   3.949   0.723  0.00  0.00    +0.145 HD
ATOM     21  H   UNL     1      -1.981   3.970   0.937  0.00  0.00    +0.145 HD
ENDROOT
BRANCH   1  22
ATOM     22  S   UNL     1       1.919   3.437   0.396  0.00  0.00    -0.076 S 
BRANCH  22  23
ATOM     23  C   UNL     1       3.704   3.229   0.146  0.00  0.00    +0.173 C 
BRANCH  23  25
ATOM     24  N   UNL     1       5.705   4.673  -0.022  0.00  0.00    -0.285 N 
ATOM     25  C   UNL     1       4.371   4.580   0.148  0.00  0.00    +0.227 C 
ATOM     26  O   UNL     1       3.709   5.584   0.303  0.00  0.00    -0.275 OA
ATOM     27  H   UNL     1       6.245   3.869  -0.071  0.00  0.00    +0.155 HD
BRANCH  24  31
ATOM     28  C   UNL     1       7.508   8.410  -0.335  0.00  0.00    +0.017 A 
ATOM     29  C   UNL     1       8.191   7.349   0.273  0.00  0.00    +0.013 A 
ATOM     30  C   UNL     1       7.593   6.119   0.374  0.00  0.00    +0.024 A 
ATOM     31  C   UNL     1       6.309   5.924  -0.127  0.00  0.00    +0.033 A 
ATOM     32  C   UNL     1       5.628   6.974  -0.737  0.00  0.00    +0.024 A 
ATOM     33  C   UNL     1       6.216   8.209  -0.837  0.00  0.00    +0.013 A 
BRANCH  28  35
ATOM     34  C   UNL     1       7.363  10.899  -0.986  0.00  0.00    +0.091 C 
ATOM     35  C   UNL     1       8.144   9.729  -0.445  0.00  0.00    +0.160 C 
ATOM     36  O   UNL     1       9.297   9.876  -0.101  0.00  0.00    -0.292 OA
ENDBRANCH  28  35
ENDBRANCH  24  31
ENDBRANCH  23  25
ENDBRANCH  22  23
ENDBRANCH   1  22
TORSDOF 5
