REMARK  Name = ZINC61859387
REMARK  6 active torsions:
REMARK  status: ('A' for Active; 'I' for Inactive)
REMARK    1  A    between atoms: C_1  and  C_2
REMARK    2  A    between atoms: N_8  and  C_9
REMARK    3  A    between atoms: C_9  and  C_11
REMARK    4  A    between atoms: C_9  and  C_12
REMARK    5  A    between atoms: C_14  and  C_18
REMARK    6  A    between atoms: C_16  and  C_17
REMARK                            x       y       z     vdW  Elec       q    Type
REMARK                         _______ _______ _______ _____ _____    ______ ____
ROOT
ATOM      1  C   UNL     1      -0.018   1.503   0.010  0.00  0.00    +0.066 C 
ATOM      2  C   UNL     1       0.002  -0.004   0.002  0.00  0.00    +0.043 A 
ATOM      3  C   UNL     1       0.006  -0.699  -1.198  0.00  0.00    +0.043 A 
ATOM      4  C   UNL     1       0.025  -2.084  -1.161  0.00  0.00    +0.116 A 
ATOM      5  N   UNL     1       0.040  -2.698   0.011  0.00  0.00    -0.223 NA
ATOM      6  C   UNL     1       0.035  -2.005   1.140  0.00  0.00    +0.216 A 
ATOM      7  N   UNL     1       0.022  -0.679   1.139  0.00  0.00    -0.220 NA
ATOM      8  N   UNL     1       0.050  -2.679   2.348  0.00  0.00    -0.307 N 
ATOM      9  H   UNL     1       0.047  -2.183   3.181  0.00  0.00    +0.149 HD
ENDROOT
BRANCH   8  10
ATOM     10  C   UNL     1       0.070  -4.144   2.368  0.00  0.00    +0.104 C 
ATOM     11  C   UNL     1       1.514  -4.636   2.243  0.00  0.00    +0.033 C 
BRANCH  10  12
ATOM     12  C   UNL     1      -0.518  -4.636   3.666  0.00  0.00    +0.013 A 
ATOM     13  C   UNL     1      -0.662  -3.894   4.861  0.00  0.00    +0.050 A 
ATOM     14  C   UNL     1      -1.230  -4.715   5.763  0.00  0.00    +0.103 A 
ATOM     15  O   UNL     1      -1.437  -5.907   5.181  0.00  0.00    -0.465 OA
ATOM     16  C   UNL     1      -1.011  -5.864   3.908  0.00  0.00    +0.107 A 
ATOM     17  C   UNL     1      -1.073  -7.000   2.919  0.00  0.00    +0.086 C 
ATOM     18  C   UNL     1      -1.576  -4.356   7.185  0.00  0.00    +0.086 C 
ENDBRANCH  10  12
ENDBRANCH   8  10
TORSDOF 2
