REMARK  Name = ZINC35641606
REMARK  12 active torsions:
REMARK  status: ('A' for Active; 'I' for Inactive)
REMARK    1  A    between atoms: C_1  and  C_2
REMARK    2  A    between atoms: C_2  and  N_3
REMARK    3  A    between atoms: N_3  and  C_4
REMARK    4  A    between atoms: N_3  and  C_5
REMARK    5  A    between atoms: C_5  and  C_6
REMARK    6  A    between atoms: C_7  and  C_25
REMARK    7  A    between atoms: C_8  and  C_15
REMARK    8  A    between atoms: N_13  and  C_14
REMARK    9  A    between atoms: C_18  and  C_21
REMARK   10  A    between atoms: C_25  and  O_27
REMARK   11  A    between atoms: O_27  and  C_28
REMARK   12  A    between atoms: C_28  and  C_29
REMARK                            x       y       z     vdW  Elec       q    Type
REMARK                         _______ _______ _______ _____ _____    ______ ____
ROOT
ATOM      1  C   UNL     1       1.141  -2.538  -2.567  0.00  0.00    +0.010 C 
ATOM      2  C   UNL     1       2.372  -3.095  -2.560  0.00  0.00    +0.076 C 
ATOM      3  C   UNL     1       3.005  -3.423  -3.897  0.00  0.00    +0.143 C 
ATOM      4  N   UNL     1       2.220  -3.106  -5.102  0.00  0.00    -0.288 N 
ATOM      5  C   UNL     1       1.002  -2.550  -4.947  0.00  0.00    +0.307 C 
ATOM      6  O   UNL     1       0.347  -2.284  -5.936  0.00  0.00    -0.252 OA
ATOM      7  N   UNL     1       0.488  -2.286  -3.739  0.00  0.00    -0.264 N 
ATOM      8  C   UNL     1      -0.847  -1.686  -3.672  0.00  0.00    +0.139 C 
ATOM      9  H   UNL     1       2.572  -3.292  -5.987  0.00  0.00    +0.151 HD
ENDROOT
BRANCH   3  10
ATOM     10  C   UNL     1       3.309  -4.899  -3.917  0.00  0.00    -0.022 A 
ATOM     11  C   UNL     1       2.305  -5.808  -4.192  0.00  0.00    +0.006 A 
ATOM     12  C   UNL     1       2.584  -7.162  -4.211  0.00  0.00    +0.013 A 
ATOM     13  C   UNL     1       3.868  -7.606  -3.954  0.00  0.00    +0.055 A 
ATOM     14  C   UNL     1       4.872  -6.697  -3.679  0.00  0.00    +0.013 A 
ATOM     15  C   UNL     1       4.594  -5.343  -3.665  0.00  0.00    +0.006 A 
BRANCH  13  16
ATOM     16  C   UNL     1       4.172  -9.082  -3.973  0.00  0.00    +0.417 C 
ATOM     17  F   UNL     1       4.550  -9.464  -5.265  0.00  0.00    -0.166 F 
ATOM     18  F   UNL     1       5.216  -9.354  -3.083  0.00  0.00    -0.166 F 
ATOM     19  F   UNL     1       3.034  -9.798  -3.589  0.00  0.00    -0.166 F 
ENDBRANCH  13  16
ENDBRANCH   3  10
BRANCH   2  20
ATOM     20  C   UNL     1       3.047  -3.362  -1.346  0.00  0.00    +0.339 C 
ATOM     21  O   UNL     1       3.927  -2.615  -0.962  0.00  0.00    -0.245 OA
BRANCH  20  22
ATOM     22  O   UNL     1       2.714  -4.445  -0.613  0.00  0.00    -0.462 OA
BRANCH  22  23
ATOM     23  C   UNL     1       3.437  -4.654   0.602  0.00  0.00    +0.229 C 
ATOM     24  C   UNL     1       2.925  -5.920   1.289  0.00  0.00    +0.048 C 
ENDBRANCH  22  23
ENDBRANCH  20  22
ENDBRANCH   2  20
BRANCH   1  25
ATOM     25  C   UNL     1       0.475  -2.196  -1.259  0.00  0.00    -0.027 C 
BRANCH  25  26
ATOM     26  N   UNL     1       0.351  -0.737  -1.140  0.00  0.00    +0.381 N 
ATOM     27  C   UNL     1       1.689  -0.136  -1.063  0.00  0.00    -0.096 C 
ATOM     28  H   UNL     1      -0.135  -0.374  -1.946  0.00  0.00    -0.082 HD
BRANCH  26  30
ATOM     29  C   UNL     1      -0.641   1.103   0.136  0.00  0.00    -0.017 C 
ATOM     30  C   UNL     1      -0.404  -0.408   0.077  0.00  0.00    -0.082 C 
ENDBRANCH  26  30
ENDBRANCH  25  26
ENDBRANCH   1  25
TORSDOF 8
