REMARK  Name = ZINC29909217
REMARK  11 active torsions:
REMARK  status: ('A' for Active; 'I' for Inactive)
REMARK    1  A    between atoms: C_1  and  C_2
REMARK    2  A    between atoms: C_5  and  N_32
REMARK    3  A    between atoms: C_6  and  N_9
REMARK    4  A    between atoms: C_7  and  C_8
REMARK    5  A    between atoms: C_10  and  C_12
REMARK    6  A    between atoms: C_12  and  C_14
REMARK    7  A    between atoms: C_12  and  N_15
REMARK    8  A    between atoms: C_18  and  C_21
REMARK    9  A    between atoms: N_23  and  C_24
REMARK   10  A    between atoms: C_29  and  O_30
REMARK   11  A    between atoms: O_30  and  C_31
REMARK                            x       y       z     vdW  Elec       q    Type
REMARK                         _______ _______ _______ _____ _____    ______ ____
ROOT
ATOM      1  N   UNL     1      -5.981   1.583  -0.190  0.00  0.00    +0.387 N 
ATOM      2  C   UNL     1      -6.581   2.895   0.080  0.00  0.00    -0.077 C 
ATOM      3  C   UNL     1      -7.950   2.707   0.737  0.00  0.00    -0.006 C 
ATOM      4  C   UNL     1      -8.852   1.894  -0.197  0.00  0.00    +0.072 C 
ATOM      5  C   UNL     1      -8.181   0.552  -0.501  0.00  0.00    -0.006 C 
ATOM      6  C   UNL     1      -6.806   0.803  -1.122  0.00  0.00    -0.077 C 
ATOM      7  H   UNL     1      -5.938   1.032   0.761  0.00  0.00    -0.081 HD
ENDROOT
BRANCH   4   8
ATOM      8  C   UNL     1     -10.181   1.654   0.470  0.00  0.00    +0.220 C 
ATOM      9  O   UNL     1     -10.557   0.520   0.683  0.00  0.00    -0.275 OA
ATOM     10  N   UNL     1     -10.953   2.698   0.831  0.00  0.00    -0.282 N 
ATOM     11  H   UNL     1     -10.658   3.721   0.555  0.00  0.00    +0.155 HD
BRANCH  10  12
ATOM     12  C   UNL     1     -12.131   2.481   1.558  0.00  0.00    +0.076 A 
ATOM     13  C   UNL     1     -12.309   1.295   2.256  0.00  0.00    +0.027 A 
ATOM     14  C   UNL     1     -13.472   1.083   2.972  0.00  0.00    +0.002 A 
ATOM     15  C   UNL     1     -14.460   2.050   2.994  0.00  0.00    +0.004 A 
ATOM     16  C   UNL     1     -14.290   3.233   2.300  0.00  0.00    +0.047 A 
ATOM     17  C   UNL     1     -13.125   3.456   1.585  0.00  0.00    +0.141 A 
BRANCH  17  18
ATOM     18  O   UNL     1     -12.954   4.622   0.907  0.00  0.00    -0.493 OA
ATOM     19  C   UNL     1     -14.015   5.577   0.980  0.00  0.00    +0.277 C 
ENDBRANCH  17  18
ENDBRANCH  10  12
ENDBRANCH   4   8
BRANCH   1  20
ATOM     20  C   UNL     1      -4.608   1.725  -0.694  0.00  0.00    +0.016 C 
ATOM     21  C   UNL     1      -3.838   2.705   0.193  0.00  0.00    -0.004 C 
BRANCH  20  23
ATOM     22  N   UNL     1      -2.825   0.174  -1.425  0.00  0.00    -0.285 N 
ATOM     23  C   UNL     1      -3.923   0.383  -0.672  0.00  0.00    +0.203 C 
ATOM     24  O   UNL     1      -4.360  -0.509   0.024  0.00  0.00    -0.277 OA
ATOM     25  H   UNL     1      -2.472   0.958  -2.111  0.00  0.00    +0.155 HD
BRANCH  22  31
ATOM     26  C   UNL     1      -2.839  -4.734  -1.704  0.00  0.00    +0.044 C 
ATOM     27  C   UNL     1      -2.116  -3.434  -1.464  0.00  0.00    -0.046 A 
ATOM     28  C   UNL     1      -0.768  -3.439  -1.158  0.00  0.00    +0.006 A 
ATOM     29  C   UNL     1      -0.101  -2.248  -0.937  0.00  0.00    +0.035 A 
ATOM     30  C   UNL     1      -0.781  -1.048  -1.021  0.00  0.00    +0.148 A 
ATOM     31  C   UNL     1      -2.135  -1.040  -1.333  0.00  0.00    +0.067 A 
ATOM     32  C   UNL     1      -2.802  -2.238  -1.549  0.00  0.00    -0.024 A 
ATOM     33  C   UNL     1      -4.272  -2.234  -1.881  0.00  0.00    +0.046 C 
BRANCH  30  34
ATOM     34  N   UNL     1      -0.068   0.227  -0.784  0.00  0.00    +0.058 N 
ATOM     35  O   UNL     1       1.137   0.226  -0.606  0.00  0.00    -0.126 OA
ATOM     36  O   UNL     1      -0.685   1.276  -0.768  0.00  0.00    -0.126 OA
ENDBRANCH  30  34
ENDBRANCH  22  31
ENDBRANCH  20  23
ENDBRANCH   1  20
TORSDOF 7
