REMARK  Name = ZINC11788990
REMARK  10 active torsions:
REMARK  status: ('A' for Active; 'I' for Inactive)
REMARK    1  A    between atoms: C_1  and  C_2
REMARK    2  A    between atoms: C_2  and  C_3
REMARK    3  A    between atoms: C_2  and  C_6
REMARK    4  A    between atoms: C_2  and  O_32
REMARK    5  A    between atoms: C_3  and  N_61
REMARK    6  A    between atoms: C_4  and  N_61
REMARK    7  A    between atoms: C_5  and  N_61
REMARK    8  A    between atoms: C_17  and  C_19
REMARK    9  A    between atoms: C_19  and  C_20
REMARK   10  A    between atoms: C_20  and  C_21
REMARK                            x       y       z     vdW  Elec       q    Type
REMARK                         _______ _______ _______ _____ _____    ______ ____
ROOT
ATOM      1  C   UNL     1       3.911  12.645   4.026  0.00  0.00    -0.018 A 
ATOM      2  C   UNL     1       4.136  12.491   5.382  0.00  0.00    +0.010 A 
ATOM      3  C   UNL     1       4.669  11.314   5.871  0.00  0.00    +0.046 A 
ATOM      4  C   UNL     1       4.983  10.282   4.997  0.00  0.00    +0.125 A 
ATOM      5  C   UNL     1       4.789  10.460   3.635  0.00  0.00    +0.012 A 
ATOM      6  C   UNL     1       4.239  11.625   3.150  0.00  0.00    +0.015 A 
ATOM      7  C   UNL     1       5.254   9.366   2.686  0.00  0.00    +0.146 C 
ATOM      8  N   UNL     1       4.446   8.166   2.929  0.00  0.00    -0.294 N 
ATOM      9  C   UNL     1       4.757   7.277   4.049  0.00  0.00    +0.149 C 
ATOM     10  C   UNL     1       4.576   7.986   5.383  0.00  0.00    +0.248 C 
ATOM     11  O   UNL     1       5.465   9.106   5.471  0.00  0.00    -0.490 OA
ATOM     12  C   UNL     1       3.413   7.878   2.112  0.00  0.00    +0.216 C 
ATOM     13  O   UNL     1       3.151   8.613   1.183  0.00  0.00    -0.276 OA
ENDROOT
BRANCH   1  15
ATOM     14  C   UNL     1       1.784  13.798   3.482  0.00  0.00    +0.044 C 
ATOM     15  C   UNL     1       3.309  13.924   3.503  0.00  0.00    +0.074 C 
BRANCH  15  16
ATOM     16  O   UNL     1       3.785  14.167   2.178  0.00  0.00    -0.386 OA
ATOM     17  H   UNL     1       4.746  14.258   2.115  0.00  0.00    +0.211 HD
ENDBRANCH  15  16
BRANCH  15  18
ATOM     18  C   UNL     1       3.712  15.087   4.411  0.00  0.00    -0.040 C 
BRANCH  18  21
ATOM     19  C   UNL     1       3.056  17.336   5.022  0.00  0.00    -0.096 C 
ATOM     20  C   UNL     1       3.627  16.823   2.726  0.00  0.00    -0.096 C 
ATOM     21  N   UNL     1       3.006  16.306   3.963  0.00  0.00    +0.378 N 
ATOM     22  H   UNL     1       2.025  16.071   3.772  0.00  0.00    -0.083 HD
ENDBRANCH  18  21
ENDBRANCH  15  18
ENDBRANCH   1  15
BRANCH  12  23
ATOM     23  C   UNL     1       2.583   6.644   2.353  0.00  0.00    +0.103 C 
BRANCH  23  24
ATOM     24  C   UNL     1       1.485   6.552   1.292  0.00  0.00    +0.083 C 
BRANCH  24  25
ATOM     25  C   UNL     1       0.655   5.318   1.533  0.00  0.00    +0.109 A 
ATOM     26  N   UNL     1      -0.696   5.305   1.689  0.00  0.00    -0.342 N 
ATOM     27  H   UNL     1      -1.303   6.100   1.664  0.00  0.00    +0.167 HD
ATOM     28  C   UNL     1      -1.075   3.991   1.889  0.00  0.00    +0.066 A 
ATOM     29  C   UNL     1      -2.292   3.360   2.103  0.00  0.00    +0.030 A 
ATOM     30  C   UNL     1      -2.337   1.992   2.265  0.00  0.00    +0.040 A 
ATOM     31  C   UNL     1      -1.168   1.240   2.226  0.00  0.00    +0.126 A 
ATOM     32  C   UNL     1       0.049   1.851   2.015  0.00  0.00    +0.068 A 
ATOM     33  C   UNL     1       0.109   3.236   1.843  0.00  0.00    +0.092 A 
ATOM     34  N   UNL     1       1.126   4.108   1.623  0.00  0.00    -0.232 NA
ATOM     35  F   UNL     1      -1.227  -0.099   2.392  0.00  0.00    -0.205 F 
ENDBRANCH  24  25
ENDBRANCH  23  24
ENDBRANCH  12  23
TORSDOF 7
