REMARK  Name = ZINC00887296
REMARK  9 active torsions:
REMARK  status: ('A' for Active; 'I' for Inactive)
REMARK    1  A    between atoms: C_3  and  C_6
REMARK    2  A    between atoms: N_9  and  C_11
REMARK    3  A    between atoms: C_11  and  C_12
REMARK    4  A    between atoms: N_14  and  C_15
REMARK    5  A    between atoms: N_14  and  C_22
REMARK    6  A    between atoms: C_15  and  C_16
REMARK    7  A    between atoms: C_22  and  C_24
REMARK    8  A    between atoms: C_22  and  C_30
REMARK    9  A    between atoms: N_32  and  C_33
REMARK                            x       y       z     vdW  Elec       q    Type
REMARK                         _______ _______ _______ _____ _____    ______ ____
ROOT
ATOM      1  C   UNL     1       9.900   1.391   5.054  0.00  0.00    +0.240 C 
ATOM      2  O   UNL     1       9.987   0.479   5.849  0.00  0.00    -0.273 OA
ATOM      3  N   UNL     1       9.749   1.128   3.741  0.00  0.00    -0.282 N 
ENDROOT
BRANCH   1   4
ATOM      4  C   UNL     1       9.960   2.818   5.535  0.00  0.00    +0.264 C 
BRANCH   4   8
ATOM      5  C   UNL     1       9.704   2.864   9.055  0.00  0.00    +0.211 A 
ATOM      6  N   UNL     1      11.034   2.859   8.881  0.00  0.00    -0.107 NA
ATOM      7  N   UNL     1      11.254   2.842   7.610  0.00  0.00    -0.045 NA
ATOM      8  N   UNL     1      10.126   2.836   6.990  0.00  0.00    -0.154 N 
ATOM      9  N   UNL     1       9.166   2.843   7.850  0.00  0.00    -0.129 NA
BRANCH   5  12
ATOM     10  C   UNL     1       8.609   2.917  12.679  0.00  0.00    +0.008 A 
ATOM     11  C   UNL     1       9.486   2.903  11.617  0.00  0.00    +0.019 A 
ATOM     12  C   UNL     1       8.981   2.882  10.345  0.00  0.00    +0.060 A 
ATOM     13  S   UNL     1       7.221   2.881  10.649  0.00  0.00    -0.093 S 
ATOM     14  C   UNL     1       7.273   2.909  12.433  0.00  0.00    +0.046 A 
ENDBRANCH   5  12
ENDBRANCH   4   8
ENDBRANCH   1   4
BRANCH   3  15
ATOM     15  C   UNL     1       9.643   2.229   2.781  0.00  0.00    +0.140 C 
BRANCH  15  16
ATOM     16  C   UNL     1      11.043   2.752   2.448  0.00  0.00    +0.136 C 
ATOM     17  C   UNL     1      10.996   3.648   1.185  0.00  0.00    +0.035 C 
ATOM     18  C   UNL     1      12.250   4.536   1.408  0.00  0.00    +0.031 C 
ATOM     19  C   UNL     1      12.275   4.690   2.944  0.00  0.00    +0.160 C 
ATOM     20  O   UNL     1      11.518   3.607   3.500  0.00  0.00    -0.375 OA
ENDBRANCH  15  16
ENDBRANCH   3  15
BRANCH   3  21
ATOM     21  C   UNL     1       9.690  -0.260   3.273  0.00  0.00    +0.192 C 
BRANCH  21  22
ATOM     22  C   UNL     1       8.299  -0.565   2.780  0.00  0.00    -0.015 A 
ATOM     23  C   UNL     1       7.866  -0.103   1.547  0.00  0.00    +0.025 A 
ATOM     24  C   UNL     1       6.583  -0.403   1.129  0.00  0.00    +0.111 A 
ATOM     25  N   UNL     1       5.777  -1.119   1.887  0.00  0.00    -0.263 NA
ATOM     26  C   UNL     1       6.155  -1.575   3.065  0.00  0.00    +0.111 A 
ATOM     27  C   UNL     1       7.425  -1.320   3.547  0.00  0.00    +0.025 A 
ENDBRANCH  21  22
BRANCH  21  28
ATOM     28  C   UNL     1      10.675  -0.453   2.150  0.00  0.00    +0.238 C 
ATOM     29  O   UNL     1      10.779   0.389   1.282  0.00  0.00    -0.273 OA
ATOM     30  N   UNL     1      11.441  -1.561   2.108  0.00  0.00    -0.311 N 
ATOM     31  H   UNL     1      11.358  -2.235   2.802  0.00  0.00    +0.149 HD
BRANCH  30  32
ATOM     32  C   UNL     1      12.399  -1.750   1.016  0.00  0.00    +0.073 C 
ATOM     33  C   UNL     1      11.710  -2.444  -0.177  0.00  0.00    +0.022 C 
ATOM     34  C   UNL     1      12.797  -3.391  -0.745  0.00  0.00    +0.002 C 
ATOM     35  C   UNL     1      13.502  -3.907   0.534  0.00  0.00    +0.002 C 
ATOM     36  C   UNL     1      13.539  -2.679   1.468  0.00  0.00    +0.022 C 
ENDBRANCH  30  32
ENDBRANCH  21  28
ENDBRANCH   3  21
TORSDOF 9
