REMARK  Name = ZINC03641154
REMARK  5 active torsions:
REMARK  status: ('A' for Active; 'I' for Inactive)
REMARK    1  A    between atoms: C_1  and  C_2
REMARK    2  A    between atoms: C_5  and  C_8
REMARK    3  A    between atoms: C_8  and  O_10
REMARK    4  A    between atoms: O_10  and  C_11
REMARK    5  A    between atoms: C_15  and  C_17
REMARK                            x       y       z     vdW  Elec       q    Type
REMARK                         _______ _______ _______ _____ _____    ______ ____
ROOT
ATOM      1  C   UNL     1      -0.198   1.037  -0.097  0.00  0.00    +0.117 C 
ATOM      2  C   UNL     1      -1.011   1.590  -1.252  0.00  0.00    +0.039 C 
ATOM      3  C   UNL     1      -0.630   2.201  -2.400  0.00  0.00    +0.048 C 
ATOM      4  C   UNL     1      -1.839   2.685  -3.112  0.00  0.00    +0.007 A 
ATOM      5  C   UNL     1      -1.975   3.424  -4.275  0.00  0.00    +0.010 A 
ATOM      6  C   UNL     1      -3.280   3.705  -4.690  0.00  0.00    +0.001 A 
ATOM      7  C   UNL     1      -4.377   3.269  -3.983  0.00  0.00    +0.001 A 
ATOM      8  C   UNL     1      -4.250   2.521  -2.808  0.00  0.00    +0.012 A 
ATOM      9  C   UNL     1      -2.964   2.240  -2.385  0.00  0.00    +0.031 A 
ATOM     10  C   UNL     1      -2.440   1.514  -1.216  0.00  0.00    +0.193 C 
ATOM     11  O   UNL     1      -3.105   0.949  -0.368  0.00  0.00    -0.287 OA
ATOM     12  N   UNL     1       0.629   2.362  -2.896  0.00  0.00    -0.313 N 
ATOM     13  C   UNL     1       1.589   1.355  -2.915  0.00  0.00    +0.045 A 
ATOM     14  C   UNL     1       2.027   0.822  -4.121  0.00  0.00    +0.024 A 
ATOM     15  C   UNL     1       3.013  -0.147  -4.117  0.00  0.00    +0.002 A 
ATOM     16  C   UNL     1       3.554  -0.582  -2.920  0.00  0.00    +0.001 A 
ATOM     17  C   UNL     1       3.108  -0.061  -1.720  0.00  0.00    +0.016 A 
ATOM     18  C   UNL     1       2.111   0.912  -1.722  0.00  0.00    +0.030 A 
ATOM     19  S   UNL     1       1.528   1.560  -0.194  0.00  0.00    -0.110 S 
ATOM     20  H   UNL     1       0.871   3.229  -3.257  0.00  0.00    +0.152 HD
ENDROOT
BRANCH   1  25
ATOM     21  C   UNL     1      -1.819   1.073   3.316  0.00  0.00    +0.132 A 
ATOM     22  C   UNL     1      -1.875   2.434   3.579  0.00  0.00    +0.046 A 
ATOM     23  C   UNL     1      -1.389   3.336   2.652  0.00  0.00    +0.004 A 
ATOM     24  C   UNL     1      -0.846   2.883   1.464  0.00  0.00    +0.005 A 
ATOM     25  C   UNL     1      -0.789   1.527   1.200  0.00  0.00    -0.026 A 
ATOM     26  C   UNL     1      -1.279   0.621   2.121  0.00  0.00    +0.051 A 
BRANCH  21  27
ATOM     27  O   UNL     1      -2.296   0.184   4.226  0.00  0.00    -0.422 OA
BRANCH  27  28
ATOM     28  C   UNL     1      -1.392  -0.591   4.857  0.00  0.00    +0.344 C 
ATOM     29  O   UNL     1      -0.205  -0.406   4.680  0.00  0.00    -0.245 OA
BRANCH  28  34
ATOM     30  C   UNL     1      -3.155  -4.779   8.386  0.00  0.00    +0.044 C 
ATOM     31  C   UNL     1      -2.694  -3.682   7.462  0.00  0.00    -0.050 A 
ATOM     32  C   UNL     1      -1.340  -3.473   7.263  0.00  0.00    +0.004 A 
ATOM     33  C   UNL     1      -0.911  -2.471   6.418  0.00  0.00    +0.015 A 
ATOM     34  C   UNL     1      -1.845  -1.666   5.763  0.00  0.00    +0.059 A 
ATOM     35  C   UNL     1      -3.209  -1.878   5.973  0.00  0.00    +0.015 A 
ATOM     36  C   UNL     1      -3.625  -2.888   6.816  0.00  0.00    +0.004 A 
ENDBRANCH  28  34
ENDBRANCH  27  28
ENDBRANCH  21  27
ENDBRANCH   1  25
TORSDOF 4
