REMARK  Name = ZINC67584544
REMARK  10 active torsions:
REMARK  status: ('A' for Active; 'I' for Inactive)
REMARK    1  A    between atoms: C_1  and  C_2
REMARK    2  A    between atoms: C_2  and  C_3
REMARK    3  A    between atoms: C_3  and  C_4
REMARK    4  A    between atoms: N_6  and  C_7
REMARK    5  A    between atoms: C_11  and  N_14
REMARK    6  A    between atoms: C_12  and  C_13
REMARK    7  A    between atoms: N_17  and  C_18
REMARK    8  A    between atoms: C_18  and  C_19
REMARK    9  A    between atoms: C_19  and  C_21
REMARK   10  A    between atoms: C_19  and  N_26
REMARK                            x       y       z     vdW  Elec       q    Type
REMARK                         _______ _______ _______ _____ _____    ______ ____
ROOT
ATOM      1  N   UNL     1       2.921  -6.707  -4.134  0.00  0.00    -0.269 N 
ATOM      2  C   UNL     1       2.922  -8.054  -4.162  0.00  0.00    +0.304 C 
ATOM      3  O   UNL     1       2.386  -8.681  -3.269  0.00  0.00    -0.253 OA
ATOM      4  N   UNL     1       3.518  -8.707  -5.180  0.00  0.00    -0.300 N 
ATOM      5  H   UNL     1       3.405  -6.207  -4.810  0.00  0.00    +0.156 HD
ATOM      6  H   UNL     1       3.946  -8.207  -5.892  0.00  0.00    +0.150 HD
ENDROOT
BRANCH   1  11
ATOM      7  C   UNL     1       0.902  -4.152  -2.417  0.00  0.00    +0.038 A 
ATOM      8  C   UNL     1       0.833  -4.691  -1.139  0.00  0.00    +0.024 A 
ATOM      9  C   UNL     1       1.455  -5.893  -0.860  0.00  0.00    +0.004 A 
ATOM     10  C   UNL     1       2.147  -6.562  -1.851  0.00  0.00    +0.024 A 
ATOM     11  C   UNL     1       2.219  -6.028  -3.131  0.00  0.00    +0.039 A 
ATOM     12  C   UNL     1       1.591  -4.824  -3.416  0.00  0.00    -0.008 A 
ATOM     13  C   UNL     1       1.662  -4.246  -4.806  0.00  0.00    +0.047 C 
BRANCH   7  16
ATOM     14  C   UNL     1      -0.776  -2.530  -1.954  0.00  0.00    +0.217 C 
ATOM     15  O   UNL     1      -1.240  -3.266  -1.109  0.00  0.00    -0.275 OA
ATOM     16  N   UNL     1       0.272  -2.934  -2.699  0.00  0.00    -0.285 N 
ATOM     17  H   UNL     1       0.589  -2.382  -3.430  0.00  0.00    +0.155 HD
BRANCH  14  18
ATOM     18  C   UNL     1      -1.371  -1.163  -2.171  0.00  0.00    +0.096 C 
BRANCH  18  20
ATOM     19  C   UNL     1      -3.143   0.433  -1.424  0.00  0.00    +0.004 C 
ATOM     20  C   UNL     1      -2.539  -0.956  -1.204  0.00  0.00    +0.006 C 
ENDBRANCH  18  20
ENDBRANCH  14  18
ENDBRANCH   7  16
ENDBRANCH   1  11
BRANCH   4  21
ATOM     21  C   UNL     1       3.520 -10.171  -5.210  0.00  0.00    +0.098 C 
BRANCH  21  22
ATOM     22  C   UNL     1       4.361 -10.656  -6.392  0.00  0.00    +0.016 C 
BRANCH  22  23
ATOM     23  N   UNL     1       4.380 -12.125  -6.410  0.00  0.00    +0.387 N 
ATOM     24  C   UNL     1       5.350 -12.613  -7.424  0.00  0.00    -0.078 C 
ATOM     25  C   UNL     1       5.668 -14.052  -6.947  0.00  0.00    -0.020 C 
ATOM     26  C   UNL     1       5.684 -13.910  -5.407  0.00  0.00    -0.020 C 
ATOM     27  C   UNL     1       4.858 -12.645  -5.111  0.00  0.00    -0.078 C 
ATOM     28  H   UNL     1       3.458 -12.483  -6.610  0.00  0.00    -0.081 HD
ENDBRANCH  22  23
BRANCH  22  29
ATOM     29  C   UNL     1       3.762 -10.146  -7.677  0.00  0.00    +0.093 A 
ATOM     30  C   UNL     1       4.196  -9.084  -8.381  0.00  0.00    +0.043 A 
ATOM     31  C   UNL     1       3.350  -8.966  -9.507  0.00  0.00    +0.041 A 
ATOM     32  C   UNL     1       2.450  -9.962  -9.425  0.00  0.00    +0.195 A 
ATOM     33  O   UNL     1       2.708 -10.677  -8.318  0.00  0.00    -0.469 OA
ENDBRANCH  22  29
ENDBRANCH  21  22
ENDBRANCH   4  21
TORSDOF 8
