REMARK  Name = ZINC40155801
REMARK  4 active torsions:
REMARK  status: ('A' for Active; 'I' for Inactive)
REMARK    1  A    between atoms: C_4  and  C_7
REMARK    2  A    between atoms: C_15  and  N_18
REMARK    3  A    between atoms: N_18  and  S_19
REMARK    4  A    between atoms: S_19  and  C_22
REMARK                            x       y       z     vdW  Elec       q    Type
REMARK                         _______ _______ _______ _____ _____    ______ ____
ROOT
ATOM      1  C   UNL     1       3.698  -0.688  -0.037  0.00  0.00    +0.160 A 
ATOM      2  N   UNL     1       4.827   0.007  -0.039  0.00  0.00    -0.235 NA
ATOM      3  C   UNL     1       5.995  -0.609  -0.057  0.00  0.00    +0.118 A 
ATOM      4  C   UNL     1       6.034  -1.999  -0.071  0.00  0.00    -0.006 A 
ATOM      5  C   UNL     1       4.842  -2.693  -0.064  0.00  0.00    +0.048 A 
ATOM      6  N   UNL     1       3.702  -2.012  -0.044  0.00  0.00    -0.232 NA
ATOM      7  C   UNL     1       4.780  -4.196  -0.062  0.00  0.00    +0.057 C 
ATOM      8  C   UNL     1       6.117  -4.787  -0.508  0.00  0.00    +0.027 C 
ATOM      9  C   UNL     1       7.234  -4.145   0.324  0.00  0.00    +0.081 C 
ATOM     10  C   UNL     1       7.373  -2.683  -0.098  0.00  0.00    +0.058 C 
ENDROOT
BRANCH   1  14
ATOM     11  C   UNL     1      -0.017   1.379   0.010  0.00  0.00    +0.000 A 
ATOM     12  C   UNL     1       1.169   2.092   0.002  0.00  0.00    +0.001 A 
ATOM     13  C   UNL     1       2.377   1.426  -0.013  0.00  0.00    +0.011 A 
ATOM     14  C   UNL     1       2.402   0.033  -0.021  0.00  0.00    +0.019 A 
ATOM     15  C   UNL     1       1.205  -0.680  -0.013  0.00  0.00    +0.011 A 
ATOM     16  C   UNL     1       0.002  -0.004   0.002  0.00  0.00    +0.001 A 
ENDBRANCH   1  14
BRANCH   9  17
ATOM     17  N   UNL     1       8.494  -4.853   0.084  0.00  0.00    -0.187 NA
ATOM     18  H   UNL     1       8.689  -5.212  -0.796  0.00  0.00    +0.148 HD
BRANCH  17  19
ATOM     19  S   UNL     1       9.585  -5.040   1.315  0.00  0.00    +0.059 S 
ATOM     20  O   UNL     1      10.675  -5.780   0.783  0.00  0.00    -0.153 OA
ATOM     21  O   UNL     1       9.751  -3.760   1.909  0.00  0.00    -0.153 OA
BRANCH  19  22
ATOM     22  C   UNL     1       8.828  -6.065   2.532  0.00  0.00    +0.106 A 
ATOM     23  C   UNL     1       8.078  -5.481   3.551  0.00  0.00    +0.029 A 
ATOM     24  C   UNL     1       7.480  -6.244   4.506  0.00  0.00    +0.010 A 
ATOM     25  C   UNL     1       7.618  -7.642   4.467  0.00  0.00    -0.018 A 
ATOM     26  C   UNL     1       7.015  -8.463   5.436  0.00  0.00    +0.008 A 
ATOM     27  C   UNL     1       7.171  -9.813   5.365  0.00  0.00    +0.001 A 
ATOM     28  C   UNL     1       7.921 -10.397   4.346  0.00  0.00    +0.001 A 
ATOM     29  C   UNL     1       8.519  -9.634   3.391  0.00  0.00    +0.008 A 
ATOM     30  C   UNL     1       8.381  -8.236   3.430  0.00  0.00    -0.016 A 
ATOM     31  C   UNL     1       8.979  -7.416   2.459  0.00  0.00    +0.037 A 
ENDBRANCH  19  22
ENDBRANCH  17  19
ENDBRANCH   9  17
TORSDOF 4
