REMARK  Name = ZINC06196795
REMARK  8 active torsions:
REMARK  status: ('A' for Active; 'I' for Inactive)
REMARK    1  A    between atoms: C_1  and  C_2
REMARK    2  A    between atoms: C_2  and  O_3
REMARK    3  A    between atoms: O_3  and  C_4
REMARK    4  A    between atoms: C_11  and  C_16
REMARK    5  A    between atoms: C_16  and  C_18
REMARK    6  A    between atoms: C_16  and  N_65
REMARK    7  A    between atoms: N_22  and  C_23
REMARK    8  A    between atoms: C_31  and  O_34
REMARK                            x       y       z     vdW  Elec       q    Type
REMARK                         _______ _______ _______ _____ _____    ______ ____
ROOT
ATOM      1  C   UNL     1      -1.334   2.140   0.020  0.00  0.00    +0.039 C 
ENDROOT
BRANCH   1   9
ATOM      2  C   UNL     1       4.808   1.302  -0.040  0.00  0.00    +0.121 A 
ATOM      3  C   UNL     1       4.769  -0.090  -0.047  0.00  0.00    +0.047 A 
ATOM      4  C   UNL     1       3.565  -0.759  -0.039  0.00  0.00    +0.030 A 
ATOM      5  C   UNL     1       2.373  -0.043  -0.022  0.00  0.00    +0.049 A 
ATOM      6  C   UNL     1       2.407   1.364  -0.014  0.00  0.00    +0.002 A 
ATOM      7  C   UNL     1       3.637   2.032  -0.023  0.00  0.00    +0.055 A 
ATOM      8  C   UNL     1       1.145   2.106   0.002  0.00  0.00    +0.017 A 
ATOM      9  C   UNL     1      -0.017   1.407   0.010  0.00  0.00    +0.011 A 
ATOM     10  C   UNL     1       0.002  -0.004   0.002  0.00  0.00    +0.251 A 
ATOM     11  O   UNL     1      -1.054  -0.613   0.009  0.00  0.00    -0.268 OA
ATOM     12  N   UNL     1       1.156  -0.694  -0.013  0.00  0.00    -0.322 N 
ATOM     13  H   UNL     1       1.132  -1.694  -0.018  0.00  0.00    +0.169 HD
BRANCH   2  14
ATOM     14  O   UNL     1       6.006   1.945  -0.048  0.00  0.00    -0.492 OA
BRANCH  14  16
ATOM     15  C   UNL     1       8.421   2.025  -0.072  0.00  0.00    +0.048 C 
ATOM     16  C   UNL     1       7.180   1.131  -0.065  0.00  0.00    +0.225 C 
ENDBRANCH  14  16
ENDBRANCH   2  14
ENDBRANCH   1   9
BRANCH   1  22
ATOM     17  C   UNL     1      -1.372   1.726   2.405  0.00  0.00    -0.075 C 
ATOM     18  C   UNL     1      -2.193   1.104   3.537  0.00  0.00    +0.013 C 
ATOM     19  C   UNL     1      -3.504   1.878   3.694  0.00  0.00    +0.111 C 
ATOM     20  C   UNL     1      -4.265   1.853   2.366  0.00  0.00    +0.013 C 
ATOM     21  C   UNL     1      -3.384   2.454   1.268  0.00  0.00    -0.075 C 
ATOM     22  N   UNL     1      -2.150   1.649   1.150  0.00  0.00    +0.389 N 
ATOM     23  H   UNL     1      -2.406   0.670   0.976  0.00  0.00    -0.080 HD
BRANCH  19  24
ATOM     24  O   UNL     1      -4.300   1.266   4.712  0.00  0.00    -0.392 OA
ATOM     25  H   UNL     1      -3.879   1.247   5.582  0.00  0.00    +0.210 HD
ENDBRANCH  19  24
ENDBRANCH   1  22
BRANCH   1  26
ATOM     26  C   UNL     1      -2.071   1.867  -1.266  0.00  0.00    +0.143 A 
ATOM     27  N   UNL     1      -2.695   0.760  -1.590  0.00  0.00    -0.115 NA
ATOM     28  N   UNL     1      -3.197   0.917  -2.766  0.00  0.00    -0.023 NA
ATOM     29  N   UNL     1      -2.911   2.095  -3.200  0.00  0.00    -0.044 NA
ATOM     30  N   UNL     1      -2.221   2.713  -2.301  0.00  0.00    -0.227 N 
BRANCH  30  31
ATOM     31  C   UNL     1      -1.698   4.078  -2.392  0.00  0.00    +0.111 C 
ATOM     32  C   UNL     1      -2.859   5.059  -2.570  0.00  0.00    +0.027 C 
ATOM     33  C   UNL     1      -2.313   6.485  -2.665  0.00  0.00    +0.002 C 
ATOM     34  C   UNL     1      -1.368   6.590  -3.864  0.00  0.00    +0.000 C 
ATOM     35  C   UNL     1      -0.207   5.610  -3.687  0.00  0.00    +0.002 C 
ATOM     36  C   UNL     1      -0.754   4.184  -3.592  0.00  0.00    +0.027 C 
ENDBRANCH  30  31
ENDBRANCH   1  26
TORSDOF 7
