REMARK  Name = ZINC09493484
REMARK  10 active torsions:
REMARK  status: ('A' for Active; 'I' for Inactive)
REMARK    1  A    between atoms: C_1  and  O_2
REMARK    2  A    between atoms: O_2  and  C_3
REMARK    3  A    between atoms: C_6  and  N_11
REMARK    4  A    between atoms: C_8  and  O_9
REMARK    5  A    between atoms: O_9  and  C_10
REMARK    6  A    between atoms: C_20  and  C_21
REMARK    7  A    between atoms: N_22  and  C_23
REMARK    8  A    between atoms: C_23  and  C_24
REMARK    9  A    between atoms: C_24  and  C_26
REMARK   10  A    between atoms: C_24  and  N_65
REMARK                            x       y       z     vdW  Elec       q    Type
REMARK                         _______ _______ _______ _____ _____    ______ ____
ROOT
ATOM      1  N   UNL     1      -1.925  -1.893   6.726  0.00  0.00    -0.205 N 
ATOM      2  C   UNL     1      -1.539  -2.809   5.823  0.00  0.00    +0.258 C 
ATOM      3  O   UNL     1      -1.389  -3.965   6.171  0.00  0.00    -0.269 OA
ATOM      4  C   UNL     1      -1.297  -2.439   4.423  0.00  0.00    +0.042 A 
ATOM      5  C   UNL     1      -0.897  -3.386   3.480  0.00  0.00    +0.013 A 
ATOM      6  C   UNL     1      -0.679  -2.999   2.175  0.00  0.00    +0.001 A 
ATOM      7  C   UNL     1      -0.854  -1.678   1.789  0.00  0.00    +0.000 A 
ATOM      8  C   UNL     1      -1.250  -0.726   2.706  0.00  0.00    +0.005 A 
ATOM      9  C   UNL     1      -1.474  -1.097   4.027  0.00  0.00    -0.018 A 
ATOM     10  C   UNL     1      -1.899  -0.117   5.049  0.00  0.00    +0.147 C 
ATOM     11  C   UNL     1      -2.106  -0.598   6.420  0.00  0.00    +0.239 C 
ATOM     12  O   UNL     1      -2.451   0.185   7.287  0.00  0.00    -0.274 OA
ENDROOT
BRANCH   1  16
ATOM     13  C   UNL     1      -2.578  -3.119  10.663  0.00  0.00    +0.162 A 
ATOM     14  C   UNL     1      -3.643  -2.704   9.879  0.00  0.00    +0.051 A 
ATOM     15  C   UNL     1      -3.426  -2.298   8.576  0.00  0.00    +0.028 A 
ATOM     16  C   UNL     1      -2.142  -2.305   8.049  0.00  0.00    +0.048 A 
ATOM     17  C   UNL     1      -1.074  -2.725   8.829  0.00  0.00    +0.073 A 
ATOM     18  C   UNL     1      -1.289  -3.127  10.137  0.00  0.00    +0.163 A 
BRANCH  13  20
ATOM     19  C   UNL     1      -4.139  -3.485  12.419  0.00  0.00    +0.277 C 
ATOM     20  O   UNL     1      -2.792  -3.519  11.945  0.00  0.00    -0.491 OA
ENDBRANCH  13  20
BRANCH  18  21
ATOM     21  O   UNL     1      -0.243  -3.535  10.905  0.00  0.00    -0.491 OA
ATOM     22  C   UNL     1       1.051  -3.517  10.300  0.00  0.00    +0.277 C 
ENDBRANCH  18  21
ENDBRANCH   1  16
BRANCH  10  23
ATOM     23  C   UNL     1      -2.089   1.208   4.725  0.00  0.00    +0.095 C 
ATOM     24  N   UNL     1      -2.476   1.552   3.469  0.00  0.00    -0.296 NA
BRANCH  24  25
ATOM     25  C   UNL     1      -2.678   2.962   3.125  0.00  0.00    +0.133 C 
BRANCH  25  26
ATOM     26  C   UNL     1      -4.070   3.403   3.582  0.00  0.00    +0.021 C 
BRANCH  26  31
ATOM     27  C   UNL     1      -4.966   1.158   3.335  0.00  0.00    -0.078 C 
ATOM     28  C   UNL     1      -6.419   0.623   3.344  0.00  0.00    -0.020 C 
ATOM     29  C   UNL     1      -7.203   1.852   3.875  0.00  0.00    -0.020 C 
ATOM     30  C   UNL     1      -6.446   3.043   3.252  0.00  0.00    -0.078 C 
ATOM     31  N   UNL     1      -5.097   2.566   2.908  0.00  0.00    +0.388 N 
ATOM     32  H   UNL     1      -4.964   2.627   1.891  0.00  0.00    -0.081 HD
ENDBRANCH  26  31
BRANCH  26  33
ATOM     33  C   UNL     1      -4.284   4.849   3.213  0.00  0.00    +0.093 A 
ATOM     34  C   UNL     1      -4.163   5.899   4.044  0.00  0.00    +0.043 A 
ATOM     35  C   UNL     1      -4.451   7.057   3.285  0.00  0.00    +0.041 A 
ATOM     36  C   UNL     1      -4.732   6.645   2.036  0.00  0.00    +0.195 A 
ATOM     37  O   UNL     1      -4.624   5.307   1.997  0.00  0.00    -0.469 OA
ENDBRANCH  26  33
ENDBRANCH  25  26
ENDBRANCH  24  25
ENDBRANCH  10  23
TORSDOF 8
