REMARK  Name = ZINC22468850
REMARK  5 active torsions:
REMARK  status: ('A' for Active; 'I' for Inactive)
REMARK    1  A    between atoms: C_1  and  C_2
REMARK    2  A    between atoms: C_2  and  C_4
REMARK    3  A    between atoms: C_2  and  N_16
REMARK    4  A    between atoms: N_6  and  C_7
REMARK    5  A    between atoms: N_16  and  C_17
REMARK                            x       y       z     vdW  Elec       q    Type
REMARK                         _______ _______ _______ _____ _____    ______ ____
ROOT
ATOM      1  C   UNL     1      -2.765   7.549   1.432  0.00  0.00    +0.038 C 
ATOM      2  C   UNL     1      -1.261   7.291   1.312  0.00  0.00    +0.154 C 
ENDROOT
BRANCH   2   3
ATOM      3  C   UNL     1      -0.552   7.896   2.496  0.00  0.00    +0.237 C 
ATOM      4  O   UNL     1       0.096   7.191   3.241  0.00  0.00    -0.273 OA
ATOM      5  N   UNL     1      -0.638   9.221   2.728  0.00  0.00    -0.282 N 
ATOM      6  H   UNL     1      -1.164   9.872   2.014  0.00  0.00    +0.155 HD
BRANCH   5   7
ATOM      7  C   UNL     1      -0.058   9.770   3.880  0.00  0.00    +0.072 A 
ATOM      8  C   UNL     1       1.123   9.241   4.382  0.00  0.00    +0.029 A 
ATOM      9  C   UNL     1       1.696   9.783   5.517  0.00  0.00    +0.043 A 
ATOM     10  C   UNL     1       1.093  10.854   6.155  0.00  0.00    +0.161 A 
ATOM     11  C   UNL     1      -0.086  11.385   5.657  0.00  0.00    +0.195 A 
ATOM     12  C   UNL     1      -0.660  10.848   4.516  0.00  0.00    +0.182 A 
ATOM     13  F   UNL     1      -1.807  11.369   4.027  0.00  0.00    -0.200 F 
ATOM     14  F   UNL     1      -0.673  12.430   6.281  0.00  0.00    -0.199 F 
ATOM     15  F   UNL     1       1.655  11.381   7.265  0.00  0.00    -0.202 F 
ENDBRANCH   5   7
ENDBRANCH   2   3
BRANCH   2  16
ATOM     16  N   UNL     1      -1.014   5.848   1.281  0.00  0.00    -0.333 N 
ATOM     17  H   UNL     1      -0.766   5.311   2.209  0.00  0.00    +0.147 HD
BRANCH  16  18
ATOM     18  C   UNL     1      -1.094   5.152   0.072  0.00  0.00    +0.031 A 
ATOM     19  C   UNL     1      -1.407   5.831  -1.095  0.00  0.00    +0.023 A 
ATOM     20  C   UNL     1      -1.485   5.141  -2.288  0.00  0.00    +0.002 A 
ATOM     21  C   UNL     1      -1.254   3.780  -2.312  0.00  0.00    +0.004 A 
ATOM     22  C   UNL     1      -0.941   3.094  -1.145  0.00  0.00    -0.042 A 
ATOM     23  C   UNL     1      -0.857   3.777   0.047  0.00  0.00    -0.023 A 
ATOM     24  C   UNL     1      -0.508   3.101   1.347  0.00  0.00    +0.037 C 
ATOM     25  C   UNL     1      -0.703   1.590   1.236  0.00  0.00    +0.005 C 
ATOM     26  C   UNL     1       0.035   1.097  -0.014  0.00  0.00    +0.005 C 
ATOM     27  C   UNL     1      -0.707   1.609  -1.246  0.00  0.00    +0.035 C 
ENDBRANCH  16  18
ENDBRANCH   2  16
TORSDOF 4
