REMARK  Name = ZINC39314680
REMARK  5 active torsions:
REMARK  status: ('A' for Active; 'I' for Inactive)
REMARK    1  A    between atoms: C_1  and  C_2
REMARK    2  A    between atoms: C_5  and  C_8
REMARK    3  A    between atoms: C_12  and  C_16
REMARK    4  A    between atoms: C_13  and  C_15
REMARK    5  A    between atoms: N_19  and  N_20
REMARK                            x       y       z     vdW  Elec       q    Type
REMARK                         _______ _______ _______ _____ _____    ______ ____
ROOT
ATOM      1  C   UNL     1      -0.151  -4.270   0.008  0.00  0.00    +0.162 A 
ATOM      2  N   UNL     1      -0.248  -4.913  -1.136  0.00  0.00    -0.220 NA
ATOM      3  C   UNL     1      -0.036  -6.221  -1.203  0.00  0.00    +0.116 A 
ATOM      4  C   UNL     1       0.301  -6.983  -0.069  0.00  0.00    +0.077 A 
ATOM      5  C   UNL     1       0.499  -8.399  -0.318  0.00  0.00    -0.026 A 
ATOM      6  C   UNL     1       0.353  -8.871  -1.566  0.00  0.00    -0.008 A 
ATOM      7  S   UNL     1      -0.068  -7.420  -2.511  0.00  0.00    -0.073 S 
ATOM      8  C   UNL     1       0.508 -10.290  -2.052  0.00  0.00    +0.052 C 
ATOM      9  C   UNL     1       0.864  -9.328   0.811  0.00  0.00    +0.045 C 
ATOM     10  C   UNL     1       0.400  -6.257   1.163  0.00  0.00    +0.279 A 
ATOM     11  O   UNL     1       0.688  -6.833   2.198  0.00  0.00    -0.265 OA
ATOM     12  N   UNL     1       0.178  -4.930   1.159  0.00  0.00    -0.214 N 
ENDROOT
BRANCH   1  17
ATOM     13  C   UNL     1      -1.094   1.404   0.160  0.00  0.00    +0.044 C 
ATOM     14  C   UNL     1      -0.847  -0.082   0.120  0.00  0.00    -0.050 A 
ATOM     15  C   UNL     1      -1.137  -0.858   1.228  0.00  0.00    +0.004 A 
ATOM     16  C   UNL     1      -0.913  -2.219   1.198  0.00  0.00    +0.012 A 
ATOM     17  C   UNL     1      -0.393  -2.813   0.047  0.00  0.00    +0.019 A 
ATOM     18  C   UNL     1      -0.103  -2.023  -1.068  0.00  0.00    +0.012 A 
ATOM     19  C   UNL     1      -0.337  -0.665  -1.026  0.00  0.00    +0.004 A 
ENDBRANCH   1  17
BRANCH  12  20
ATOM     20  N   UNL     1       0.276  -4.230   2.329  0.00  0.00    -0.294 N 
ATOM     21  H   UNL     1       0.439  -4.850   3.108  0.00  0.00    +0.163 HD
ATOM     22  H   UNL     1       0.996  -3.526   2.269  0.00  0.00    +0.163 HD
ENDBRANCH  12  20
TORSDOF 2
