REMARK  Name = ZINC06648358
REMARK  9 active torsions:
REMARK  status: ('A' for Active; 'I' for Inactive)
REMARK    1  A    between atoms: C_1  and  C_2
REMARK    2  A    between atoms: C_2  and  C_3
REMARK    3  A    between atoms: C_4  and  C_14
REMARK    4  A    between atoms: C_5  and  C_13
REMARK    5  A    between atoms: C_14  and  O_16
REMARK    6  A    between atoms: O_16  and  C_17
REMARK    7  A    between atoms: C_17  and  C_18
REMARK    8  A    between atoms: N_20  and  C_21
REMARK    9  A    between atoms: C_21  and  C_27
REMARK                            x       y       z     vdW  Elec       q    Type
REMARK                         _______ _______ _______ _____ _____    ______ ____
ROOT
ATOM      1  C   UNL     1       5.601   2.075   2.309  0.00  0.00    +0.342 C 
ATOM      2  O   UNL     1       6.121   2.787   1.474  0.00  0.00    -0.245 OA
ENDROOT
BRANCH   1   4
ATOM      3  C   UNL     1       6.393   2.390   4.660  0.00  0.00    +0.056 A 
ATOM      4  C   UNL     1       6.378   1.623   3.481  0.00  0.00    +0.084 A 
ATOM      5  C   UNL     1       7.097   0.434   3.430  0.00  0.00    -0.026 A 
ATOM      6  C   UNL     1       7.822   0.053   4.572  0.00  0.00    +0.004 A 
ATOM      7  C   UNL     1       8.575  -1.133   4.594  0.00  0.00    +0.010 A 
ATOM      8  C   UNL     1       9.261  -1.474   5.719  0.00  0.00    +0.001 A 
ATOM      9  C   UNL     1       9.227  -0.660   6.850  0.00  0.00    +0.002 A 
ATOM     10  C   UNL     1       8.508   0.495   6.863  0.00  0.00    +0.028 A 
ATOM     11  C   UNL     1       7.786   0.882   5.721  0.00  0.00    +0.072 A 
ATOM     12  N   UNL     1       7.072   2.014   5.712  0.00  0.00    -0.251 NA
ATOM     13  C   UNL     1       7.101  -0.418   2.187  0.00  0.00    +0.045 C 
BRANCH   3  15
ATOM     14  C   UNL     1       4.192   3.389   5.213  0.00  0.00    +0.010 C 
ATOM     15  C   UNL     1       5.608   3.676   4.711  0.00  0.00    +0.053 C 
ENDBRANCH   3  15
ENDBRANCH   1   4
BRANCH   1  16
ATOM     16  O   UNL     1       4.316   1.696   2.167  0.00  0.00    -0.452 OA
BRANCH  16  17
ATOM     17  C   UNL     1       3.614   2.177   0.990  0.00  0.00    +0.328 C 
BRANCH  17  18
ATOM     18  C   UNL     1       2.200   1.655   1.001  0.00  0.00    +0.252 C 
ATOM     19  O   UNL     1       1.822   0.948   1.910  0.00  0.00    -0.272 OA
ATOM     20  N   UNL     1       1.357   1.975  -0.000  0.00  0.00    -0.295 N 
ATOM     21  H   UNL     1       1.659   2.541  -0.728  0.00  0.00    +0.150 HD
BRANCH  20  22
ATOM     22  C   UNL     1      -0.018   1.468   0.010  0.00  0.00    +0.121 C 
ATOM     23  C   UNL     1      -0.734   1.961   1.269  0.00  0.00    +0.041 C 
ATOM     24  C   UNL     1      -2.169   1.432   1.280  0.00  0.00    +0.003 C 
ATOM     25  C   UNL     1      -2.909   1.938   0.040  0.00  0.00    +0.000 C 
ATOM     26  C   UNL     1      -2.193   1.445  -1.219  0.00  0.00    +0.003 C 
ATOM     27  C   UNL     1      -0.758   1.975  -1.229  0.00  0.00    +0.041 C 
BRANCH  22  28
ATOM     28  C   UNL     1       0.002  -0.004   0.002  0.00  0.00    +0.088 C 
ATOM     29  N   UNL     1       0.018  -1.140  -0.004  0.00  0.00    -0.194 NA
ENDBRANCH  22  28
ENDBRANCH  20  22
ENDBRANCH  17  18
ENDBRANCH  16  17
ENDBRANCH   1  16
TORSDOF 7
