REMARK  Name = ZINC59292943
REMARK  8 active torsions:
REMARK  status: ('A' for Active; 'I' for Inactive)
REMARK    1  A    between atoms: C_1  and  C_2
REMARK    2  A    between atoms: C_2  and  C_3
REMARK    3  A    between atoms: C_3  and  C_4
REMARK    4  A    between atoms: C_4  and  O_5
REMARK    5  A    between atoms: O_5  and  C_6
REMARK    6  A    between atoms: C_6  and  C_8
REMARK    7  A    between atoms: C_9  and  N_30
REMARK    8  A    between atoms: C_13  and  C_29
REMARK                            x       y       z     vdW  Elec       q    Type
REMARK                         _______ _______ _______ _____ _____    ______ ____
ROOT
ATOM      1  C   UNL     1       2.179  -4.345  -3.723  0.00  0.00    +0.117 C 
ATOM      2  C   UNL     1       2.343  -5.688  -3.839  0.00  0.00    +0.196 C 
ATOM      3  O   UNL     1       2.931  -6.241  -4.913  0.00  0.00    -0.441 OA
ATOM      4  C   UNL     1       3.692  -5.488  -5.732  0.00  0.00    +0.145 A 
ATOM      5  C   UNL     1       4.604  -6.100  -6.622  0.00  0.00    +0.088 A 
ATOM      6  C   UNL     1       5.356  -5.334  -7.433  0.00  0.00    +0.110 A 
ATOM      7  O   UNL     1       5.270  -3.999  -7.426  0.00  0.00    -0.427 OA
ATOM      8  C   UNL     1       4.419  -3.377  -6.597  0.00  0.00    +0.345 A 
ATOM      9  O   UNL     1       4.352  -2.159  -6.602  0.00  0.00    -0.245 OA
ATOM     10  C   UNL     1       3.605  -4.111  -5.726  0.00  0.00    +0.103 A 
ATOM     11  C   UNL     1       2.649  -3.411  -4.802  0.00  0.00    +0.145 C 
ATOM     12  C   UNL     1       1.490  -2.838  -5.557  0.00  0.00    -0.001 A 
ATOM     13  C   UNL     1       0.512  -3.438  -6.321  0.00  0.00    +0.022 A 
ATOM     14  C   UNL     1      -0.439  -2.603  -6.898  0.00  0.00    +0.018 A 
ATOM     15  C   UNL     1      -0.402  -1.235  -6.713  0.00  0.00    +0.017 A 
ATOM     16  C   UNL     1       0.578  -0.625  -5.945  0.00  0.00    +0.025 A 
ATOM     17  C   UNL     1       1.538  -1.453  -5.360  0.00  0.00    +0.038 A 
ATOM     18  N   UNL     1       2.615  -1.119  -4.558  0.00  0.00    -0.284 N 
ATOM     19  C   UNL     1       3.323  -2.204  -4.182  0.00  0.00    +0.237 C 
ATOM     20  O   UNL     1       4.312  -2.212  -3.480  0.00  0.00    -0.274 OA
ATOM     21 BR   UNL     1      -1.810  -3.356  -7.960  0.00  0.00    -0.050 Br
ATOM     22  C   UNL     1       6.325  -5.999  -8.377  0.00  0.00    +0.086 C 
ATOM     23  H   UNL     1       2.834  -0.211  -4.296  0.00  0.00    +0.155 HD
ENDROOT
BRANCH   2  24
ATOM     24  N   UNL     1       1.897  -6.501  -2.833  0.00  0.00    -0.329 N 
ATOM     25  H   UNL     1       1.392  -6.127  -2.094  0.00  0.00    +0.145 HD
ATOM     26  H   UNL     1       2.086  -7.452  -2.858  0.00  0.00    +0.145 HD
ENDBRANCH   2  24
BRANCH   1  27
ATOM     27  C   UNL     1       1.556  -3.821  -2.580  0.00  0.00    +0.342 C 
ATOM     28  O   UNL     1       0.389  -3.476  -2.627  0.00  0.00    -0.245 OA
BRANCH  27  29
ATOM     29  O   UNL     1       2.250  -3.700  -1.428  0.00  0.00    -0.461 OA
BRANCH  29  30
ATOM     30  C   UNL     1       1.553  -3.159  -0.304  0.00  0.00    +0.232 C 
BRANCH  30  31
ATOM     31  C   UNL     1       2.495  -3.099   0.900  0.00  0.00    +0.041 C 
BRANCH  31  33
ATOM     32  C   UNL     1       2.690  -2.460   3.307  0.00  0.00    +0.004 C 
ATOM     33  C   UNL     1       1.748  -2.521   2.103  0.00  0.00    -0.000 C 
ENDBRANCH  31  33
ENDBRANCH  30  31
ENDBRANCH  29  30
ENDBRANCH  27  29
ENDBRANCH   1  27
TORSDOF 6
