REMARK  Name = ZINC58167352
REMARK  8 active torsions:
REMARK  status: ('A' for Active; 'I' for Inactive)
REMARK    1  A    between atoms: C_1  and  C_2
REMARK    2  A    between atoms: N_7  and  S_9
REMARK    3  A    between atoms: S_9  and  C_12
REMARK    4  A    between atoms: C_15  and  N_21
REMARK    5  A    between atoms: C_16  and  N_18
REMARK    6  A    between atoms: N_21  and  C_22
REMARK    7  A    between atoms: C_22  and  C_23
REMARK    8  A    between atoms: C_26  and  C_29
REMARK                            x       y       z     vdW  Elec       q    Type
REMARK                         _______ _______ _______ _____ _____    ______ ____
ROOT
ATOM      1  C   UNL     1       1.602  -3.341   3.626  0.00  0.00    +0.108 A 
ATOM      2  C   UNL     1       2.627  -4.206   3.288  0.00  0.00    +0.030 A 
ATOM      3  C   UNL     1       3.805  -4.198   4.008  0.00  0.00    +0.027 A 
ATOM      4  C   UNL     1       3.961  -3.319   5.072  0.00  0.00    +0.058 A 
ATOM      5  C   UNL     1       2.930  -2.451   5.409  0.00  0.00    +0.149 A 
ATOM      6  C   UNL     1       1.756  -2.461   4.681  0.00  0.00    +0.063 A 
ENDROOT
BRANCH   1   7
ATOM      7  S   UNL     1       0.101  -3.355   2.704  0.00  0.00    +0.061 S 
ATOM      8  O   UNL     1      -0.905  -2.826   3.558  0.00  0.00    -0.153 OA
ATOM      9  O   UNL     1      -0.002  -4.643   2.114  0.00  0.00    -0.153 OA
BRANCH   7  15
ATOM     10  C   UNL     1      -1.365   1.022   0.591  0.00  0.00    +0.009 C 
ATOM     11  C   UNL     1      -1.066  -0.477   0.510  0.00  0.00    +0.002 C 
ATOM     12  C   UNL     1      -0.429  -0.797  -0.844  0.00  0.00    +0.006 C 
ATOM     13  C   UNL     1      -0.160  -2.301  -0.940  0.00  0.00    +0.017 C 
ATOM     14  C   UNL     1       0.819  -2.712   0.164  0.00  0.00    +0.109 C 
ATOM     15  N   UNL     1       0.280  -2.277   1.460  0.00  0.00    -0.176 NA
ATOM     16  C   UNL     1      -0.098  -0.867   1.631  0.00  0.00    +0.112 C 
ENDBRANCH   7  15
ENDBRANCH   1   7
BRANCH   5  17
ATOM     17  N   UNL     1       3.091  -1.513   6.542  0.00  0.00    +0.058 N 
ATOM     18  O   UNL     1       3.680  -1.864   7.538  0.00  0.00    -0.126 OA
ATOM     19  O   UNL     1       2.634  -0.396   6.473  0.00  0.00    -0.126 OA
ENDBRANCH   5  17
BRANCH   4  20
ATOM     20  N   UNL     1       5.152  -3.308   5.803  0.00  0.00    -0.335 N 
ATOM     21  H   UNL     1       5.293  -2.638   6.490  0.00  0.00    +0.147 HD
BRANCH  20  22
ATOM     22  C   UNL     1       6.187  -4.308   5.531  0.00  0.00    +0.174 C 
BRANCH  22  23
ATOM     23  C   UNL     1       7.361  -4.078   6.448  0.00  0.00    +0.102 A 
ATOM     24  N   UNL     1       8.310  -4.990   6.751  0.00  0.00    -0.342 N 
ATOM     25  H   UNL     1       8.360  -5.901   6.421  0.00  0.00    +0.167 HD
ATOM     26  C   UNL     1       9.193  -4.383   7.614  0.00  0.00    +0.064 A 
ATOM     27  C   UNL     1       8.739  -3.114   7.802  0.00  0.00    +0.110 A 
ATOM     28  N   UNL     1       7.627  -2.963   7.074  0.00  0.00    -0.348 N 
ATOM     29  H   UNL     1       7.099  -2.152   7.020  0.00  0.00    +0.166 HD
BRANCH  26  30
ATOM     30  C   UNL     1      10.399  -4.990   8.219  0.00  0.00    -0.000 A 
ATOM     31  C   UNL     1      10.741  -6.311   7.925  0.00  0.00    +0.010 A 
ATOM     32  C   UNL     1      11.866  -6.872   8.492  0.00  0.00    +0.001 A 
ATOM     33  C   UNL     1      12.655  -6.128   9.352  0.00  0.00    +0.000 A 
ATOM     34  C   UNL     1      12.321  -4.818   9.648  0.00  0.00    +0.001 A 
ATOM     35  C   UNL     1      11.202  -4.244   9.082  0.00  0.00    +0.010 A 
ENDBRANCH  26  30
ENDBRANCH  22  23
ENDBRANCH  20  22
ENDBRANCH   4  20
TORSDOF 7
