REMARK  Name = ZINC38903393
REMARK  11 active torsions:
REMARK  status: ('A' for Active; 'I' for Inactive)
REMARK    1  A    between atoms: C_1  and  C_2
REMARK    2  A    between atoms: C_2  and  C_3
REMARK    3  A    between atoms: C_2  and  C_4
REMARK    4  A    between atoms: C_2  and  C_5
REMARK    5  A    between atoms: C_8  and  C_11
REMARK    6  A    between atoms: C_13  and  C_16
REMARK    7  A    between atoms: C_16  and  N_17
REMARK    8  A    between atoms: C_21  and  C_24
REMARK    9  A    between atoms: N_26  and  C_27
REMARK   10  A    between atoms: C_27  and  C_28
REMARK   11  A    between atoms: C_33  and  N_34
REMARK                            x       y       z     vdW  Elec       q    Type
REMARK                         _______ _______ _______ _____ _____    ______ ____
ROOT
ATOM      1  N   UNL     1       6.448  -3.218  -6.445  0.00  0.00    +0.386 N 
ATOM      2  C   UNL     1       5.844  -4.489  -6.861  0.00  0.00    -0.078 C 
ATOM      3  C   UNL     1       6.677  -5.654  -6.323  0.00  0.00    -0.018 C 
ATOM      4  C   UNL     1       8.100  -5.558  -6.879  0.00  0.00    +0.009 C 
ATOM      5  C   UNL     1       8.694  -4.197  -6.502  0.00  0.00    +0.058 C 
ATOM      6  C   UNL     1       7.786  -3.086  -7.034  0.00  0.00    -0.065 C 
ATOM      7  H   UNL     1       6.521  -3.196  -5.439  0.00  0.00    -0.081 HD
ENDROOT
BRANCH   5   8
ATOM      8  C   UNL     1      10.066  -4.061  -7.109  0.00  0.00    +0.215 C 
ATOM      9  O   UNL     1      10.298  -3.161  -7.889  0.00  0.00    -0.276 OA
ATOM     10  N   UNL     1      11.036  -4.939  -6.787  0.00  0.00    -0.311 N 
ATOM     11  H   UNL     1      10.851  -5.659  -6.163  0.00  0.00    +0.149 HD
BRANCH  10  12
ATOM     12  C   UNL     1      12.370  -4.807  -7.377  0.00  0.00    +0.141 C 
BRANCH  12  13
ATOM     13  C   UNL     1      13.261  -5.905  -6.856  0.00  0.00    -0.007 A 
ATOM     14  C   UNL     1      14.151  -5.646  -5.831  0.00  0.00    +0.007 A 
ATOM     15  C   UNL     1      14.969  -6.652  -5.353  0.00  0.00    +0.000 A 
ATOM     16  C   UNL     1      14.899  -7.921  -5.898  0.00  0.00    +0.002 A 
ATOM     17  C   UNL     1      14.011  -8.187  -6.922  0.00  0.00    +0.026 A 
ATOM     18  C   UNL     1      13.185  -7.179  -7.401  0.00  0.00    +0.052 A 
BRANCH  18  19
ATOM     19  N   UNL     1      12.279  -7.447  -8.437  0.00  0.00    -0.306 N 
ATOM     20  C   UNL     1      12.559  -8.073  -9.623  0.00  0.00    +0.112 A 
ATOM     21  C   UNL     1      11.408  -8.122 -10.320  0.00  0.00    +0.130 A 
ATOM     22  N   UNL     1      10.448  -7.544  -9.584  0.00  0.00    -0.244 NA
ATOM     23  C   UNL     1      10.955  -7.141  -8.451  0.00  0.00    +0.204 A 
ENDBRANCH  18  19
ENDBRANCH  12  13
ENDBRANCH  10  12
ENDBRANCH   5   8
BRANCH   1  24
ATOM     24  C   UNL     1       5.603  -2.105  -6.898  0.00  0.00    +0.022 C 
BRANCH  24  27
ATOM     25  C   UNL     1       2.698  -1.862  -4.737  0.00  0.00    +0.202 A 
ATOM     26  N   UNL     1       3.975  -1.598  -5.067  0.00  0.00    -0.193 NA
ATOM     27  C   UNL     1       4.270  -2.170  -6.200  0.00  0.00    +0.211 A 
ATOM     28  O   UNL     1       3.187  -2.825  -6.639  0.00  0.00    -0.340 OA
ATOM     29  N   UNL     1       2.172  -2.617  -5.669  0.00  0.00    -0.056 NA
BRANCH  25  33
ATOM     30  C   UNL     1       0.707  -0.490  -1.238  0.00  0.00    -0.042 A 
ATOM     31  C   UNL     1       0.033  -1.285  -2.147  0.00  0.00    +0.005 A 
ATOM     32  C   UNL     1       0.674  -1.733  -3.285  0.00  0.00    +0.012 A 
ATOM     33  C   UNL     1       2.003  -1.383  -3.516  0.00  0.00    +0.022 A 
ATOM     34  C   UNL     1       2.678  -0.582  -2.596  0.00  0.00    +0.012 A 
ATOM     35  C   UNL     1       2.025  -0.135  -1.465  0.00  0.00    +0.005 A 
BRANCH  30  37
ATOM     36  C   UNL     1      -0.019   1.526   0.010  0.00  0.00    +0.015 C 
ATOM     37  C   UNL     1       0.002  -0.004   0.002  0.00  0.00    -0.013 C 
ATOM     38  C   UNL     1       0.742  -0.511   1.242  0.00  0.00    +0.015 C 
ATOM     39  C   UNL     1      -1.433  -0.534   0.013  0.00  0.00    +0.015 C 
ENDBRANCH  30  37
ENDBRANCH  25  33
ENDBRANCH  24  27
ENDBRANCH   1  24
TORSDOF 8
