REMARK  Name = ZINC11842213
REMARK  5 active torsions:
REMARK  status: ('A' for Active; 'I' for Inactive)
REMARK    1  A    between atoms: C_8  and  N_10
REMARK    2  A    between atoms: C_21  and  N_62
REMARK    3  A    between atoms: C_25  and  C_26
REMARK    4  A    between atoms: C_25  and  N_62
REMARK    5  A    between atoms: C_26  and  O_32
REMARK                            x       y       z     vdW  Elec       q    Type
REMARK                         _______ _______ _______ _____ _____    ______ ____
ROOT
ATOM      1  N   UNL     1       2.891  -2.391  -0.039  0.00  0.00    -0.295 N 
ATOM      2  C   UNL     1       3.895  -1.482  -0.043  0.00  0.00    +0.203 A 
ATOM      3  N   UNL     1       3.685  -0.183  -0.033  0.00  0.00    -0.230 NA
ATOM      4  C   UNL     1       2.422   0.232  -0.019  0.00  0.00    +0.116 A 
ATOM      5  C   UNL     1       1.308  -0.637  -0.014  0.00  0.00    +0.076 A 
ATOM      6  C   UNL     1       1.581  -2.047  -0.025  0.00  0.00    +0.263 A 
ATOM      7  O   UNL     1       0.691  -2.880  -0.021  0.00  0.00    -0.267 OA
ATOM      8  C   UNL     1       0.002  -0.004   0.002  0.00  0.00    -0.023 A 
ATOM      9  C   UNL     1      -0.016   1.350   0.009  0.00  0.00    -0.006 A 
ATOM     10  S   UNL     1       1.691   1.837  -0.004  0.00  0.00    -0.073 S 
ATOM     11  C   UNL     1      -1.220   2.240   0.031  0.00  0.00    +0.027 C 
ATOM     12  C   UNL     1      -2.444   1.396   0.410  0.00  0.00    -0.067 C 
ATOM     13  C   UNL     1      -2.442   0.119  -0.435  0.00  0.00    -0.011 C 
ATOM     14  C   UNL     1      -1.302  -0.797   0.011  0.00  0.00    +0.035 C 
ENDROOT
BRANCH   1  22
ATOM     15  C   UNL     1       6.688  -6.993  -0.832  0.00  0.00    +0.000 A 
ATOM     16  C   UNL     1       6.719  -6.997   0.550  0.00  0.00    +0.000 A 
ATOM     17  C   UNL     1       5.933  -6.111   1.260  0.00  0.00    +0.004 A 
ATOM     18  C   UNL     1       5.112  -5.218   0.592  0.00  0.00    -0.042 A 
ATOM     19  C   UNL     1       5.080  -5.214  -0.790  0.00  0.00    -0.042 A 
ATOM     20  C   UNL     1       5.870  -6.103  -1.500  0.00  0.00    +0.004 A 
ATOM     21  C   UNL     1       4.114  -4.155  -1.276  0.00  0.00    +0.061 C 
ATOM     22  C   UNL     1       3.238  -3.814  -0.052  0.00  0.00    +0.100 C 
ATOM     23  C   UNL     1       4.165  -4.163   1.132  0.00  0.00    +0.061 C 
ENDBRANCH   1  22
BRANCH  12  24
ATOM     24  N   UNL     1      -3.677   2.159   0.137  0.00  0.00    +0.383 N 
ATOM     25  H   UNL     1      -4.450   1.505  -0.032  0.00  0.00    -0.085 HD
ATOM     26  H   UNL     1      -3.536   2.745  -0.694  0.00  0.00    -0.085 HD
BRANCH  24  27
ATOM     27  C   UNL     1      -4.011   3.020   1.288  0.00  0.00    -0.047 C 
BRANCH  27  28
ATOM     28  C   UNL     1      -5.292   3.798   0.977  0.00  0.00    +0.051 C 
ATOM     29  C   UNL     1      -5.116   4.565  -0.335  0.00  0.00    +0.033 C 
ATOM     30  C   UNL     1      -6.397   5.343  -0.646  0.00  0.00    +0.003 C 
ATOM     31  C   UNL     1      -6.683   6.329   0.488  0.00  0.00    +0.000 C 
ATOM     32  C   UNL     1      -6.858   5.561   1.800  0.00  0.00    +0.003 C 
ATOM     33  C   UNL     1      -5.577   4.784   2.111  0.00  0.00    +0.033 C 
BRANCH  28  34
ATOM     34  O   UNL     1      -6.384   2.885   0.852  0.00  0.00    -0.390 OA
ATOM     35  H   UNL     1      -6.271   2.229   0.151  0.00  0.00    +0.210 HD
ENDBRANCH  28  34
ENDBRANCH  27  28
ENDBRANCH  24  27
ENDBRANCH  12  24
TORSDOF 5
