REMARK  Name = ZINC38672649
REMARK  10 active torsions:
REMARK  status: ('A' for Active; 'I' for Inactive)
REMARK    1  A    between atoms: C_1  and  N_2
REMARK    2  A    between atoms: N_5  and  C_8
REMARK    3  A    between atoms: C_8  and  C_10
REMARK    4  A    between atoms: C_8  and  C_26
REMARK    5  A    between atoms: C_10  and  N_11
REMARK    6  A    between atoms: N_11  and  S_12
REMARK    7  A    between atoms: S_12  and  C_15
REMARK    8  A    between atoms: C_18  and  O_21
REMARK    9  A    between atoms: O_21  and  C_22
REMARK   10  A    between atoms: N_34  and  C_35
REMARK                            x       y       z     vdW  Elec       q    Type
REMARK                         _______ _______ _______ _____ _____    ______ ____
ROOT
ATOM      1  C   UNL     1       1.453  -3.974  -0.034  0.00  0.00    +0.102 C 
ENDROOT
BRANCH   1   2
ATOM      2  C   UNL     1       0.076  -4.549   0.178  0.00  0.00    -0.029 A 
ATOM      3  C   UNL     1      -0.696  -4.917  -0.908  0.00  0.00    +0.007 A 
ATOM      4  C   UNL     1      -1.956  -5.443  -0.717  0.00  0.00    +0.024 A 
ATOM      5  C   UNL     1      -2.462  -5.608   0.574  0.00  0.00    +0.033 A 
ATOM      6  C   UNL     1      -1.680  -5.236   1.656  0.00  0.00    -0.025 A 
ATOM      7  C   UNL     1      -0.415  -4.714   1.460  0.00  0.00    +0.010 A 
ATOM      8  C   UNL     1      -2.451  -5.515   2.926  0.00  0.00    +0.056 C 
ATOM      9  C   UNL     1      -3.789  -6.099   2.444  0.00  0.00    +0.109 C 
ATOM     10  N   UNL     1      -3.697  -6.115   0.982  0.00  0.00    -0.332 N 
ATOM     11  C   UNL     1      -4.747  -6.593   0.080  0.00  0.00    +0.129 C 
ENDBRANCH   1   2
BRANCH   1  16
ATOM     12  C   UNL     1       0.234   1.341   1.386  0.00  0.00    -0.096 C 
ATOM     13  N   UNL     1       0.195  -0.096   1.082  0.00  0.00    +0.379 N 
ATOM     14  C   UNL     1       0.610  -0.313  -0.310  0.00  0.00    -0.064 C 
ATOM     15  C   UNL     1       0.551  -1.808  -0.633  0.00  0.00    +0.066 C 
ATOM     16  N   UNL     1       1.439  -2.539   0.281  0.00  0.00    -0.298 NA
ATOM     17  C   UNL     1       1.050  -2.311   1.680  0.00  0.00    +0.066 C 
ATOM     18  C   UNL     1       1.105  -0.813   1.984  0.00  0.00    -0.064 C 
ATOM     19  H   UNL     1      -0.745  -0.441   1.209  0.00  0.00    -0.082 HD
ENDBRANCH   1  16
BRANCH   1  20
ATOM     20  C   UNL     1       2.450  -4.688   0.881  0.00  0.00    +0.129 C 
BRANCH  20  21
ATOM     21  N   UNL     1       3.764  -4.050   0.763  0.00  0.00    -0.188 NA
ATOM     22  H   UNL     1       3.947  -3.449   0.024  0.00  0.00    +0.148 HD
BRANCH  21  23
ATOM     23  S   UNL     1       4.938  -4.356   1.890  0.00  0.00    +0.058 S 
ATOM     24  O   UNL     1       6.087  -3.623   1.490  0.00  0.00    -0.153 OA
ATOM     25  O   UNL     1       4.331  -4.186   3.164  0.00  0.00    -0.153 OA
BRANCH  23  26
ATOM     26  C   UNL     1       5.357  -6.063   1.756  0.00  0.00    +0.105 A 
ATOM     27  C   UNL     1       4.672  -7.002   2.505  0.00  0.00    +0.032 A 
ATOM     28  C   UNL     1       4.999  -8.340   2.402  0.00  0.00    +0.048 A 
ATOM     29  C   UNL     1       6.015  -8.741   1.546  0.00  0.00    +0.130 A 
ATOM     30  C   UNL     1       6.700  -7.797   0.796  0.00  0.00    +0.048 A 
ATOM     31  C   UNL     1       6.365  -6.460   0.898  0.00  0.00    +0.032 A 
BRANCH  29  32
ATOM     32  O   UNL     1       6.338 -10.057   1.444  0.00  0.00    -0.406 OA
BRANCH  32  33
ATOM     33  C   UNL     1       7.394 -10.397   0.543  0.00  0.00    +0.575 C 
ATOM     34  F   UNL     1       8.570  -9.751   0.938  0.00  0.00    -0.133 F 
ATOM     35  F   UNL     1       7.595 -11.782   0.561  0.00  0.00    -0.133 F 
ATOM     36  F   UNL     1       7.051  -9.992  -0.752  0.00  0.00    -0.133 F 
ENDBRANCH  32  33
ENDBRANCH  29  32
ENDBRANCH  23  26
ENDBRANCH  21  23
ENDBRANCH  20  21
ENDBRANCH   1  20
TORSDOF 8
