REMARK  Name = ZINC19753861
REMARK  6 active torsions:
REMARK  status: ('A' for Active; 'I' for Inactive)
REMARK    1  A    between atoms: C_1  and  C_2
REMARK    2  A    between atoms: C_2  and  C_3
REMARK    3  A    between atoms: C_2  and  C_4
REMARK    4  A    between atoms: C_2  and  C_5
REMARK    5  A    between atoms: C_8  and  C_11
REMARK    6  A    between atoms: C_17  and  N_20
REMARK                            x       y       z     vdW  Elec       q    Type
REMARK                         _______ _______ _______ _____ _____    ______ ____
ROOT
ATOM      1  C   UNL     1       2.478   1.395  -0.014  0.00  0.00    +0.169 A 
ATOM      2  N   UNL     1       3.199   2.500  -0.020  0.00  0.00    -0.128 NA
ATOM      3  N   UNL     1       2.430   3.530  -0.005  0.00  0.00    -0.129 NA
ATOM      4  C   UNL     1       1.162   3.142   0.011  0.00  0.00    +0.161 A 
ATOM      5  N   UNL     1       1.162   1.770   0.005  0.00  0.00    -0.281 N 
ATOM      6  C   UNL     1      -0.012   1.076   0.019  0.00  0.00    +0.117 A 
ATOM      7  C   UNL     1      -1.199   1.734   0.032  0.00  0.00    +0.041 A 
ATOM      8  C   UNL     1      -1.227   3.143   0.043  0.00  0.00    +0.028 A 
ATOM      9  C   UNL     1      -0.059   3.841   0.030  0.00  0.00    +0.050 A 
ENDROOT
BRANCH   1  13
ATOM     10  C   UNL     1       3.965  -2.583  -0.048  0.00  0.00    -0.042 A 
ATOM     11  C   UNL     1       4.776  -1.541  -0.461  0.00  0.00    +0.005 A 
ATOM     12  C   UNL     1       4.300  -0.246  -0.453  0.00  0.00    +0.012 A 
ATOM     13  C   UNL     1       2.995   0.011  -0.026  0.00  0.00    +0.020 A 
ATOM     14  C   UNL     1       2.184  -1.044   0.395  0.00  0.00    +0.012 A 
ATOM     15  C   UNL     1       2.671  -2.334   0.376  0.00  0.00    +0.005 A 
BRANCH  10  17
ATOM     16  C   UNL     1       5.715  -4.089   0.856  0.00  0.00    +0.015 C 
ATOM     17  C   UNL     1       4.492  -3.994  -0.060  0.00  0.00    -0.013 C 
ATOM     18  C   UNL     1       3.406  -4.949   0.439  0.00  0.00    +0.015 C 
ATOM     19  C   UNL     1       4.892  -4.377  -1.486  0.00  0.00    +0.015 C 
ENDBRANCH  10  17
ENDBRANCH   1  13
BRANCH   7  20
ATOM     20  N   UNL     1      -2.398   1.011   0.039  0.00  0.00    -0.357 N 
ATOM     21  H   UNL     1      -3.361   1.543   0.050  0.00  0.00    +0.142 HD
ATOM     22  H   UNL     1      -2.378  -0.089   0.035  0.00  0.00    +0.142 HD
ENDBRANCH   7  20
TORSDOF 3
