REMARK  Name = ZINC11997944
REMARK  13 active torsions:
REMARK  status: ('A' for Active; 'I' for Inactive)
REMARK    1  A    between atoms: C_1  and  N_60
REMARK    2  A    between atoms: C_2  and  N_60
REMARK    3  A    between atoms: C_3  and  C_5
REMARK    4  A    between atoms: C_3  and  C_26
REMARK    5  A    between atoms: C_3  and  N_60
REMARK    6  A    between atoms: C_5  and  N_6
REMARK    7  A    between atoms: N_6  and  S_7
REMARK    8  A    between atoms: S_7  and  C_10
REMARK    9  A    between atoms: C_12  and  N_18
REMARK   10  A    between atoms: C_15  and  O_16
REMARK   11  A    between atoms: O_16  and  C_17
REMARK   12  A    between atoms: C_29  and  O_32
REMARK   13  A    between atoms: O_32  and  C_33
REMARK                            x       y       z     vdW  Elec       q    Type
REMARK                         _______ _______ _______ _____ _____    ______ ____
ROOT
ATOM      1  S   UNL     1       0.614   5.794  -1.084  0.00  0.00    +0.062 S 
ATOM      2  O   UNL     1       0.041   6.207   0.149  0.00  0.00    -0.153 OA
ATOM      3  O   UNL     1       1.902   6.221  -1.506  0.00  0.00    -0.153 OA
ENDROOT
BRANCH   1   4
ATOM      4  C   UNL     1       0.652   4.032  -1.056  0.00  0.00    +0.148 A 
ATOM      5  C   UNL     1       1.813   3.361  -1.387  0.00  0.00    +0.057 A 
ATOM      6  C   UNL     1       1.842   1.973  -1.365  0.00  0.00    +0.061 A 
ATOM      7  C   UNL     1       0.705   1.261  -1.009  0.00  0.00    +0.029 A 
ATOM      8  C   UNL     1      -0.457   1.933  -0.683  0.00  0.00    +0.049 A 
ATOM      9  C   UNL     1      -0.484   3.320  -0.700  0.00  0.00    +0.146 A 
BRANCH   6  10
ATOM     10  N   UNL     1       3.019   1.292  -1.701  0.00  0.00    -0.144 N 
ATOM     11  C   UNL     1       4.266   1.779  -1.611  0.00  0.00    +0.240 C 
ATOM     12  O   UNL     1       4.467   2.895  -1.180  0.00  0.00    -0.274 OA
ATOM     13  C   UNL     1       5.406   0.911  -2.050  0.00  0.00    +0.122 C 
ATOM     14  C   UNL     1       4.923  -0.563  -2.089  0.00  0.00    +0.198 C 
ATOM     15  S   UNL     1       3.119  -0.271  -2.292  0.00  0.00    +0.052 S 
ATOM     16  O   UNL     1       2.370  -1.072  -1.388  0.00  0.00    -0.155 OA
ATOM     17  O   UNL     1       2.769  -0.185  -3.667  0.00  0.00    -0.155 OA
ENDBRANCH   6  10
BRANCH   9  18
ATOM     18  O   UNL     1      -1.626   3.981  -0.374  0.00  0.00    -0.493 OA
ATOM     19  C   UNL     1      -2.758   3.184  -0.017  0.00  0.00    +0.277 C 
ENDBRANCH   9  18
ENDBRANCH   1   4
BRANCH   1  20
ATOM     20  N   UNL     1      -0.447   6.242  -2.273  0.00  0.00    -0.191 NA
ATOM     21  H   UNL     1      -0.126   6.719  -3.055  0.00  0.00    +0.148 HD
BRANCH  20  22
ATOM     22  C   UNL     1      -1.870   5.917  -2.146  0.00  0.00    +0.095 C 
BRANCH  22  23
ATOM     23  C   UNL     1      -2.680   6.790  -3.107  0.00  0.00    -0.023 C 
BRANCH  23  24
ATOM     24  C   UNL     1      -2.527   8.239  -2.721  0.00  0.00    -0.059 A 
ATOM     25  C   UNL     1      -3.275   8.758  -1.681  0.00  0.00    +0.005 A 
ATOM     26  C   UNL     1      -3.132  10.084  -1.321  0.00  0.00    +0.046 A 
ATOM     27  C   UNL     1      -2.246  10.898  -2.012  0.00  0.00    +0.120 A 
ATOM     28  C   UNL     1      -1.500  10.375  -3.059  0.00  0.00    +0.046 A 
ATOM     29  C   UNL     1      -1.642   9.047  -3.410  0.00  0.00    +0.005 A 
BRANCH  27  30
ATOM     30  O   UNL     1      -2.108  12.204  -1.664  0.00  0.00    -0.495 OA
ATOM     31  C   UNL     1      -2.908  12.674  -0.576  0.00  0.00    +0.277 C 
ENDBRANCH  27  30
ENDBRANCH  23  24
BRANCH  23  34
ATOM     32  C   UNL     1      -4.905   7.219  -3.959  0.00  0.00    -0.096 C 
ATOM     33  C   UNL     1      -4.273   4.977  -3.299  0.00  0.00    -0.096 C 
ATOM     34  N   UNL     1      -4.107   6.417  -3.009  0.00  0.00    +0.381 N 
ATOM     35  H   UNL     1      -4.436   6.605  -2.055  0.00  0.00    -0.082 HD
ENDBRANCH  23  34
ENDBRANCH  22  23
ENDBRANCH  20  22
ENDBRANCH   1  20
TORSDOF 9
