REMARK  Name = ZINC09615484
REMARK  7 active torsions:
REMARK  status: ('A' for Active; 'I' for Inactive)
REMARK    1  A    between atoms: C_1  and  C_2
REMARK    2  A    between atoms: C_5  and  N_9
REMARK    3  A    between atoms: C_7  and  C_8
REMARK    4  A    between atoms: N_17  and  C_20
REMARK    5  A    between atoms: C_20  and  C_21
REMARK    6  A    between atoms: N_23  and  C_24
REMARK    7  A    between atoms: C_24  and  C_25
REMARK                            x       y       z     vdW  Elec       q    Type
REMARK                         _______ _______ _______ _____ _____    ______ ____
ROOT
ATOM      1  N   UNL     1       1.136   1.910   0.002  0.00  0.00    -0.228 N 
ATOM      2  C   UNL     1       0.035   1.310  -0.485  0.00  0.00    +0.270 A 
ATOM      3  O   UNL     1       0.096   0.180  -0.933  0.00  0.00    -0.266 OA
ATOM      4  C   UNL     1      -1.249   2.044  -0.476  0.00  0.00    +0.074 A 
ATOM      5  C   UNL     1      -2.562   1.582  -0.940  0.00  0.00    -0.023 A 
ATOM      6  C   UNL     1      -3.570   2.469  -0.812  0.00  0.00    -0.004 A 
ATOM      7  S   UNL     1      -2.829   3.899  -0.072  0.00  0.00    -0.075 S 
ATOM      8  C   UNL     1      -1.208   3.329   0.060  0.00  0.00    +0.097 A 
ATOM      9  N   UNL     1      -0.043   3.866   0.536  0.00  0.00    -0.278 N 
ATOM     10  C   UNL     1       1.102   3.156   0.501  0.00  0.00    +0.338 A 
ATOM     11  O   UNL     1       2.125   3.654   0.930  0.00  0.00    -0.246 OA
ATOM     12  C   UNL     1      -5.000   2.294  -1.220  0.00  0.00    +0.043 C 
ATOM     13  C   UNL     1      -5.517   0.951  -0.687  0.00  0.00    +0.005 C 
ATOM     14  C   UNL     1      -5.241  -0.122  -1.735  0.00  0.00    +0.001 C 
ATOM     15  C   UNL     1      -3.949   0.196  -2.485  0.00  0.00    +0.005 C 
ATOM     16  C   UNL     1      -2.763   0.191  -1.528  0.00  0.00    +0.037 C 
ENDROOT
BRANCH   1  21
ATOM     17  C   UNL     1       6.064  -0.903  -0.058  0.00  0.00    +0.044 C 
ATOM     18  C   UNL     1       4.756  -0.156  -0.042  0.00  0.00    -0.047 A 
ATOM     19  C   UNL     1       3.916  -0.259   1.052  0.00  0.00    +0.005 A 
ATOM     20  C   UNL     1       2.718   0.428   1.071  0.00  0.00    +0.027 A 
ATOM     21  C   UNL     1       2.353   1.215  -0.013  0.00  0.00    +0.055 A 
ATOM     22  C   UNL     1       3.199   1.317  -1.109  0.00  0.00    +0.030 A 
ATOM     23  C   UNL     1       4.398   0.631  -1.121  0.00  0.00    -0.046 A 
ATOM     24  C   UNL     1       5.316   0.741  -2.311  0.00  0.00    +0.044 C 
ENDBRANCH   1  21
BRANCH   9  25
ATOM     25  C   UNL     1      -0.039   5.223   1.089  0.00  0.00    +0.223 C 
BRANCH  25  26
ATOM     26  C   UNL     1       0.247   6.213  -0.010  0.00  0.00    +0.233 C 
ATOM     27  O   UNL     1       0.431   5.823  -1.144  0.00  0.00    -0.274 OA
ATOM     28  N   UNL     1       0.299   7.531   0.266  0.00  0.00    -0.307 N 
ATOM     29  H   UNL     1       0.153   7.842   1.173  0.00  0.00    +0.149 HD
BRANCH  28  30
ATOM     30  C   UNL     1       0.578   8.493  -0.803  0.00  0.00    +0.178 C 
BRANCH  30  31
ATOM     31  C   UNL     1       0.581   9.889  -0.234  0.00  0.00    +0.122 A 
ATOM     32  C   UNL     1       1.652  10.532   0.265  0.00  0.00    +0.046 A 
ATOM     33  C   UNL     1       1.205  11.806   0.684  0.00  0.00    +0.041 A 
ATOM     34  C   UNL     1      -0.112  11.865   0.416  0.00  0.00    +0.195 A 
ATOM     35  O   UNL     1      -0.483  10.703  -0.145  0.00  0.00    -0.466 OA
ENDBRANCH  30  31
ENDBRANCH  28  30
ENDBRANCH  25  26
ENDBRANCH   9  25
TORSDOF 5
