REMARK  Name = ZINC39595422
REMARK  8 active torsions:
REMARK  status: ('A' for Active; 'I' for Inactive)
REMARK    1  A    between atoms: C_1  and  C_2
REMARK    2  A    between atoms: C_7  and  C_8
REMARK    3  A    between atoms: C_12  and  C_21
REMARK    4  A    between atoms: N_23  and  C_24
REMARK    5  A    between atoms: C_24  and  C_25
REMARK    6  A    between atoms: C_25  and  C_27
REMARK    7  A    between atoms: C_25  and  O_28
REMARK    8  A    between atoms: O_28  and  C_29
REMARK                            x       y       z     vdW  Elec       q    Type
REMARK                         _______ _______ _______ _____ _____    ______ ____
ROOT
ATOM      1  C   UNL     1       0.124   0.207   2.390  0.00  0.00    +0.247 C 
ATOM      2  O   UNL     1       0.007   1.415   2.312  0.00  0.00    -0.270 OA
ATOM      3  N   UNL     1       0.323  -0.374   3.590  0.00  0.00    -0.296 N 
ATOM      4  C   UNL     1       0.603  -1.802   3.871  0.00  0.00    +0.121 C 
ATOM      5  C   UNL     1       1.653  -1.778   5.005  0.00  0.00    +0.100 C 
ATOM      6  C   UNL     1       1.456  -0.417   5.693  0.00  0.00    -0.004 C 
ATOM      7  C   UNL     1       0.318   0.271   4.924  0.00  0.00    +0.115 C 
ATOM      8  C   UNL     1       2.730   0.415   5.593  0.00  0.00    -0.010 C 
ATOM      9  C   UNL     1       2.529   1.740   6.334  0.00  0.00    -0.082 C 
ATOM     10  N   UNL     1       2.204   1.472   7.741  0.00  0.00    +0.379 N 
ATOM     11  C   UNL     1       0.929   0.751   7.832  0.00  0.00    -0.082 C 
ATOM     12  C   UNL     1       1.063  -0.615   7.154  0.00  0.00    -0.010 C 
ATOM     13  H   UNL     1       2.936   0.912   8.152  0.00  0.00    -0.086 HD
ATOM     14  H   UNL     1       2.132   2.346   8.240  0.00  0.00    -0.086 HD
ENDROOT
BRANCH   1  21
ATOM     15  C   UNL     1      -2.152   0.467   0.623  0.00  0.00    +0.044 C 
ATOM     16  C   UNL     1      -1.045  -0.507   0.310  0.00  0.00    -0.038 A 
ATOM     17  C   UNL     1      -1.108  -1.280  -0.831  0.00  0.00    +0.004 A 
ATOM     18  C   UNL     1      -0.092  -2.175  -1.120  0.00  0.00    +0.000 A 
ATOM     19  C   UNL     1       0.992  -2.299  -0.269  0.00  0.00    +0.001 A 
ATOM     20  C   UNL     1       1.066  -1.531   0.874  0.00  0.00    +0.013 A 
ATOM     21  C   UNL     1       0.048  -0.623   1.169  0.00  0.00    +0.040 A 
ENDBRANCH   1  21
BRANCH   5  22
ATOM     22  C   UNL     1       3.044  -1.883   4.434  0.00  0.00    +0.218 C 
ATOM     23  O   UNL     1       3.264  -1.511   3.301  0.00  0.00    -0.275 OA
ATOM     24  N   UNL     1       4.043  -2.390   5.183  0.00  0.00    -0.312 N 
ATOM     25  H   UNL     1       3.867  -2.688   6.089  0.00  0.00    +0.149 HD
BRANCH  24  26
ATOM     26  C   UNL     1       5.395  -2.493   4.628  0.00  0.00    +0.148 C 
BRANCH  26  27
ATOM     27  C   UNL     1       6.332  -3.097   5.676  0.00  0.00    +0.187 C 
ATOM     28  C   UNL     1       7.744  -3.204   5.096  0.00  0.00    +0.053 C 
BRANCH  27  29
ATOM     29  O   UNL     1       6.354  -2.261   6.834  0.00  0.00    -0.488 OA
BRANCH  29  30
ATOM     30  C   UNL     1       6.681  -2.850   8.014  0.00  0.00    +0.121 A 
ATOM     31  C   UNL     1       6.601  -2.128   9.196  0.00  0.00    +0.048 A 
ATOM     32  C   UNL     1       6.934  -2.728  10.395  0.00  0.00    +0.042 A 
ATOM     33  C   UNL     1       7.347  -4.049  10.418  0.00  0.00    +0.124 A 
ATOM     34  C   UNL     1       7.428  -4.771   9.239  0.00  0.00    +0.042 A 
ATOM     35  C   UNL     1       7.089  -4.175   8.039  0.00  0.00    +0.048 A 
ATOM     36  F   UNL     1       7.672  -4.634  11.591  0.00  0.00    -0.205 F 
ENDBRANCH  29  30
ENDBRANCH  27  29
ENDBRANCH  26  27
ENDBRANCH  24  26
ENDBRANCH   5  22
TORSDOF 6
