REMARK  Name = ZINC02967678
REMARK  8 active torsions:
REMARK  status: ('A' for Active; 'I' for Inactive)
REMARK    1  A    between atoms: C_9  and  C_28
REMARK    2  A    between atoms: C_14  and  S_16
REMARK    3  A    between atoms: S_16  and  C_17
REMARK    4  A    between atoms: C_17  and  C_18
REMARK    5  A    between atoms: N_20  and  C_21
REMARK    6  A    between atoms: C_28  and  C_29
REMARK    7  A    between atoms: C_29  and  C_30
REMARK    8  A    between atoms: N_32  and  C_33
REMARK                            x       y       z     vdW  Elec       q    Type
REMARK                         _______ _______ _______ _____ _____    ______ ____
ROOT
ATOM      1  C   UNL     1      -6.081  11.969  -2.994  0.00  0.00    +0.001 A 
ATOM      2  C   UNL     1      -7.254  12.621  -2.644  0.00  0.00    +0.002 A 
ATOM      3  C   UNL     1      -7.723  12.584  -1.349  0.00  0.00    +0.028 A 
ATOM      4  C   UNL     1      -7.011  11.881  -0.375  0.00  0.00    +0.077 A 
ATOM      5  C   UNL     1      -5.819  11.219  -0.736  0.00  0.00    +0.041 A 
ATOM      6  C   UNL     1      -5.361  11.269  -2.048  0.00  0.00    +0.013 A 
ATOM      7  C   UNL     1      -5.081  10.482   0.313  0.00  0.00    +0.139 C 
ATOM      8  N   UNL     1      -3.973   9.800   0.244  0.00  0.00    -0.255 NA
ATOM      9  C   UNL     1      -3.685   9.272   1.585  0.00  0.00    +0.194 C 
ATOM     10  C   UNL     1      -4.833   9.779   2.432  0.00  0.00    +0.251 C 
ATOM     11  O   UNL     1      -5.012   9.587   3.615  0.00  0.00    -0.272 OA
ATOM     12  N   UNL     1      -5.616  10.491   1.590  0.00  0.00    -0.200 N 
ATOM     13  C   UNL     1      -6.791  11.171   1.834  0.00  0.00    +0.169 C 
ATOM     14  N   UNL     1      -7.443  11.823   0.910  0.00  0.00    -0.225 NA
ENDROOT
BRANCH  13  15
ATOM     15  S   UNL     1      -7.442  11.161   3.471  0.00  0.00    -0.080 S 
BRANCH  15  16
ATOM     16  C   UNL     1      -8.928  12.164   3.225  0.00  0.00    +0.173 C 
BRANCH  16  17
ATOM     17  C   UNL     1      -9.668  12.295   4.531  0.00  0.00    +0.227 C 
ATOM     18  O   UNL     1      -9.234  11.763   5.530  0.00  0.00    -0.275 OA
ATOM     19  N   UNL     1     -10.813  13.004   4.589  0.00  0.00    -0.285 N 
ATOM     20  H   UNL     1     -11.126  13.486   3.807  0.00  0.00    +0.155 HD
BRANCH  19  21
ATOM     21  C   UNL     1     -11.552  13.046   5.778  0.00  0.00    +0.034 A 
ATOM     22  C   UNL     1     -12.938  13.096   5.734  0.00  0.00    +0.026 A 
ATOM     23  C   UNL     1     -13.665  13.132   6.908  0.00  0.00    +0.040 A 
ATOM     24  C   UNL     1     -13.011  13.130   8.128  0.00  0.00    +0.124 A 
ATOM     25  C   UNL     1     -11.628  13.085   8.175  0.00  0.00    +0.040 A 
ATOM     26  C   UNL     1     -10.898  13.044   7.003  0.00  0.00    +0.026 A 
ATOM     27  F   UNL     1     -13.723  13.171   9.275  0.00  0.00    -0.205 F 
ENDBRANCH  19  21
ENDBRANCH  16  17
ENDBRANCH  15  16
ENDBRANCH  13  15
BRANCH   9  28
ATOM     28  C   UNL     1      -3.667   7.742   1.567  0.00  0.00    +0.045 C 
BRANCH  28  29
ATOM     29  C   UNL     1      -2.484   7.256   0.727  0.00  0.00    +0.098 C 
BRANCH  29  30
ATOM     30  C   UNL     1      -2.466   5.750   0.709  0.00  0.00    +0.213 C 
ATOM     31  O   UNL     1      -3.315   5.126   1.309  0.00  0.00    -0.276 OA
ATOM     32  N   UNL     1      -1.506   5.095   0.026  0.00  0.00    -0.312 N 
ATOM     33  H   UNL     1      -0.827   5.594  -0.454  0.00  0.00    +0.149 HD
BRANCH  32  34
ATOM     34  C   UNL     1      -1.488   3.631   0.009  0.00  0.00    +0.073 C 
ATOM     35  C   UNL     1      -0.768   3.144  -1.251  0.00  0.00    +0.022 C 
ATOM     36  C   UNL     1      -0.750   1.614  -1.269  0.00  0.00    +0.002 C 
ATOM     37  C   UNL     1      -0.015   1.098  -0.030  0.00  0.00    +0.000 C 
ATOM     38  C   UNL     1      -0.735   1.585   1.229  0.00  0.00    +0.002 C 
ATOM     39  C   UNL     1      -0.753   3.115   1.247  0.00  0.00    +0.022 C 
ENDBRANCH  32  34
ENDBRANCH  29  30
ENDBRANCH  28  29
ENDBRANCH   9  28
TORSDOF 8
