REMARK  Name = ZINC49429493
REMARK  4 active torsions:
REMARK  status: ('A' for Active; 'I' for Inactive)
REMARK    1  A    between atoms: C_1  and  C_2
REMARK    2  A    between atoms: C_8  and  N_10
REMARK    3  A    between atoms: C_11  and  C_13
REMARK    4  A    between atoms: N_21  and  C_22
REMARK                            x       y       z     vdW  Elec       q    Type
REMARK                         _______ _______ _______ _____ _____    ______ ____
ROOT
ATOM      1  C   UNL     1       0.035   0.572   4.841  0.00  0.00    +0.078 C 
ATOM      2  C   UNL     1      -1.105  -0.387   5.191  0.00  0.00    +0.032 C 
ATOM      3  C   UNL     1      -1.841   0.131   6.430  0.00  0.00    +0.110 C 
ATOM      4  N   UNL     1      -0.866   0.329   7.511  0.00  0.00    -0.285 N 
ATOM      5  C   UNL     1       0.316   1.161   7.252  0.00  0.00    +0.110 C 
ATOM      6  C   UNL     1       1.028   0.632   6.004  0.00  0.00    +0.032 C 
ATOM      7  C   UNL     1      -1.054  -0.242   8.717  0.00  0.00    +0.307 C 
ATOM      8  O   UNL     1      -2.080  -0.852   8.949  0.00  0.00    -0.252 OA
ATOM      9  N   UNL     1      -0.103  -0.137   9.668  0.00  0.00    -0.264 N 
ATOM     10  H   UNL     1       0.681   0.411   9.510  0.00  0.00    +0.157 HD
ENDROOT
BRANCH   9  11
ATOM     11  C   UNL     1      -0.249  -0.818  10.880  0.00  0.00    +0.073 A 
ATOM     12  C   UNL     1       0.584  -0.838  11.958  0.00  0.00    +0.031 A 
ATOM     13  C   UNL     1       0.228  -1.593  13.060  0.00  0.00    +0.009 A 
ATOM     14  C   UNL     1      -0.935  -2.287  13.036  0.00  0.00    +0.047 A 
ATOM     15  S   UNL     1      -1.578  -1.879  11.421  0.00  0.00    -0.082 S 
ENDBRANCH   9  11
BRANCH   1  17
ATOM     16  N   UNL     1       0.059  -0.049   2.447  0.00  0.00    -0.312 N 
ATOM     17  C   UNL     1       0.740   0.084   3.602  0.00  0.00    +0.216 C 
ATOM     18  O   UNL     1       1.921  -0.190   3.645  0.00  0.00    -0.276 OA
ATOM     19  H   UNL     1      -0.885   0.170   2.413  0.00  0.00    +0.149 HD
BRANCH  16  26
ATOM     20  C   UNL     1      -0.013   1.512   0.008  0.00  0.00    +0.009 C 
ATOM     21  C   UNL     1       0.006  -0.018   0.002  0.00  0.00    +0.006 C 
ATOM     22  C   UNL     1      -1.430  -0.547   0.013  0.00  0.00    +0.005 C 
ATOM     23  C   UNL     1      -1.411  -2.076   0.007  0.00  0.00    +0.000 C 
ATOM     24  C   UNL     1      -0.672  -2.582   1.248  0.00  0.00    +0.002 C 
ATOM     25  C   UNL     1       0.764  -2.054   1.237  0.00  0.00    +0.022 C 
ATOM     26  C   UNL     1       0.745  -0.524   1.243  0.00  0.00    +0.076 C 
ENDBRANCH  16  26
ENDBRANCH   1  17
TORSDOF 3
