REMARK  Name = ZINC49027926
REMARK  4 active torsions:
REMARK  status: ('A' for Active; 'I' for Inactive)
REMARK    1  A    between atoms: C_3  and  C_16
REMARK    2  A    between atoms: N_10  and  C_11
REMARK    3  A    between atoms: C_11  and  C_12
REMARK    4  A    between atoms: C_16  and  N_17
REMARK                            x       y       z     vdW  Elec       q    Type
REMARK                         _______ _______ _______ _____ _____    ______ ____
ROOT
ATOM      1  C   UNL     1      -0.017   1.532   0.004  0.00  0.00    +0.019 C 
ATOM      2  C   UNL     1       1.422   2.054  -0.004  0.00  0.00    +0.008 C 
ATOM      3  C   UNL     1       2.130   1.584  -1.276  0.00  0.00    +0.024 C 
ATOM      4  C   UNL     1       2.171   0.052  -1.296  0.00  0.00    +0.114 C 
ATOM      5  N   UNL     1       0.802  -0.460  -1.143  0.00  0.00    -0.285 N 
ATOM      6  C   UNL     1       0.000   0.000  -0.001  0.00  0.00    +0.109 C 
ATOM      7  C   UNL     1       0.293  -1.334  -2.033  0.00  0.00    +0.302 C 
ATOM      8  O   UNL     1       0.930  -1.634  -3.024  0.00  0.00    -0.253 OA
ATOM      9  N   UNL     1      -0.923  -1.876  -1.824  0.00  0.00    -0.291 N 
ATOM     10  H   UNL     1      -1.462  -1.584  -1.072  0.00  0.00    +0.151 HD
ENDROOT
BRANCH   9  11
ATOM     11  C   UNL     1      -1.431  -2.908  -2.732  0.00  0.00    +0.218 C 
BRANCH  11  12
ATOM     12  C   UNL     1      -2.822  -3.351  -2.273  0.00  0.00    +0.405 C 
ATOM     13  F   UNL     1      -3.688  -2.252  -2.284  0.00  0.00    -0.169 F 
ATOM     14  F   UNL     1      -3.307  -4.335  -3.141  0.00  0.00    -0.169 F 
ATOM     15  F   UNL     1      -2.743  -3.869  -0.977  0.00  0.00    -0.169 F 
ENDBRANCH  11  12
ENDBRANCH   9  11
BRANCH   3  16
ATOM     16  C   UNL     1       3.557   2.134  -1.299  0.00  0.00    +0.110 C 
BRANCH  16  17
ATOM     17  N   UNL     1       4.195   1.784  -2.571  0.00  0.00    -0.299 N 
ATOM     18  C   UNL     1       5.464   2.166  -2.816  0.00  0.00    +0.297 C 
ATOM     19  O   UNL     1       6.079   2.802  -1.982  0.00  0.00    -0.253 OA
ATOM     20  N   UNL     1       6.051   1.844  -3.986  0.00  0.00    -0.313 N 
ATOM     21  H   UNL     1       3.704   1.276  -3.236  0.00  0.00    +0.150 HD
ATOM     22  H   UNL     1       5.560   1.337  -4.651  0.00  0.00    +0.146 HD
ATOM     23  H   UNL     1       6.964   2.119  -4.163  0.00  0.00    +0.146 HD
ENDBRANCH  16  17
ENDBRANCH   3  16
TORSDOF 4
