REMARK  Name = ZINC35882664
REMARK  5 active torsions:
REMARK  status: ('A' for Active; 'I' for Inactive)
REMARK    1  A    between atoms: C_1  and  C_2
REMARK    2  A    between atoms: C_2  and  C_3
REMARK    3  A    between atoms: N_7  and  C_25
REMARK    4  A    between atoms: C_11  and  N_16
REMARK    5  A    between atoms: C_17  and  C_19
REMARK                            x       y       z     vdW  Elec       q    Type
REMARK                         _______ _______ _______ _____ _____    ______ ____
ROOT
ATOM      1  C   UNL     1      -1.685  -0.122  -0.415  0.00  0.00    +0.259 C 
ATOM      2  C   UNL     1      -1.791  -1.590  -0.692  0.00  0.00    +0.257 C 
ATOM      3  O   UNL     1      -2.186  -1.846  -1.810  0.00  0.00    -0.272 OA
ATOM      4  N   UNL     1      -1.550  -2.622   0.009  0.00  0.00    -0.287 N 
ATOM      5  C   UNL     1      -1.311  -2.817   1.400  0.00  0.00    +0.147 C 
ATOM      6  C   UNL     1      -1.392  -1.641   2.323  0.00  0.00    +0.013 A 
ATOM      7  C   UNL     1      -1.069  -1.965   3.650  0.00  0.00    +0.032 A 
ATOM      8  C   UNL     1      -1.034  -1.003   4.639  0.00  0.00    +0.034 A 
ATOM      9  C   UNL     1      -1.318   0.315   4.300  0.00  0.00    +0.027 A 
ATOM     10  C   UNL     1      -1.652   0.619   3.007  0.00  0.00    +0.048 A 
ATOM     11  C   UNL     1      -1.723  -0.376   2.000  0.00  0.00    +0.126 A 
ATOM     12  O   UNL     1      -2.218   0.184   0.857  0.00  0.00    -0.479 OA
ENDROOT
BRANCH   4  13
ATOM     13  C   UNL     1      -1.509  -3.862  -0.770  0.00  0.00    +0.107 C 
ATOM     14  C   UNL     1      -0.091  -4.429  -0.740  0.00  0.00    +0.027 C 
ATOM     15  C   UNL     1      -0.117  -5.827  -1.371  0.00  0.00    +0.007 C 
ATOM     16  C   UNL     1      -0.858  -6.768  -0.424  0.00  0.00    +0.035 C 
ATOM     17  C   UNL     1      -2.189  -6.183  -0.031  0.00  0.00    -0.042 A 
ATOM     18  C   UNL     1      -2.486  -4.848  -0.185  0.00  0.00    -0.024 A 
ATOM     19  C   UNL     1      -3.731  -4.371   0.205  0.00  0.00    +0.006 A 
ATOM     20  C   UNL     1      -4.671  -5.225   0.743  0.00  0.00    +0.000 A 
ATOM     21  C   UNL     1      -4.374  -6.566   0.895  0.00  0.00    +0.000 A 
ATOM     22  C   UNL     1      -3.139  -7.041   0.509  0.00  0.00    +0.004 A 
ENDBRANCH   4  13
BRANCH   8  23
ATOM     23  N   UNL     1      -0.719  -1.347   5.959  0.00  0.00    -0.281 N 
ATOM     24  C   UNL     1      -1.308  -0.700   6.984  0.00  0.00    +0.248 C 
ATOM     25  O   UNL     1      -2.186   0.113   6.765  0.00  0.00    -0.270 OA
ATOM     26  H   UNL     1      -0.076  -2.052   6.136  0.00  0.00    +0.155 HD
BRANCH  24  27
ATOM     27  C   UNL     1      -0.887  -0.978   8.373  0.00  0.00    +0.037 A 
ATOM     28  C   UNL     1       0.124  -1.906   8.627  0.00  0.00    +0.013 A 
ATOM     29  C   UNL     1       0.512  -2.161   9.926  0.00  0.00    +0.001 A 
ATOM     30  C   UNL     1      -0.099  -1.498  10.976  0.00  0.00    +0.000 A 
ATOM     31  C   UNL     1      -1.102  -0.577  10.731  0.00  0.00    +0.001 A 
ATOM     32  C   UNL     1      -1.496  -0.309   9.437  0.00  0.00    +0.013 A 
ENDBRANCH  24  27
ENDBRANCH   8  23
BRANCH   1  34
ATOM     33  C   UNL     1      -0.108   1.814  -0.314  0.00  0.00    +0.008 C 
ATOM     34  C   UNL     1      -0.213   0.294  -0.459  0.00  0.00    +0.051 C 
ENDBRANCH   1  34
TORSDOF 4
