REMARK  Name = ZINC04776976
REMARK  3 active torsions:
REMARK  status: ('A' for Active; 'I' for Inactive)
REMARK    1  A    between atoms: C_1  and  C_2
REMARK    2  A    between atoms: C_5  and  C_8
REMARK    3  A    between atoms: C_13  and  C_18
REMARK                            x       y       z     vdW  Elec       q    Type
REMARK                         _______ _______ _______ _____ _____    ______ ____
ROOT
ATOM      1  C   UNL     1       0.059  -4.275  -0.021  0.00  0.00    +0.175 C 
ATOM      2  C   UNL     1       1.309  -4.765   0.678  0.00  0.00    +0.041 C 
ATOM      3  C   UNL     1       1.272  -5.316   1.910  0.00  0.00    +0.020 C 
ATOM      4  C   UNL     1       2.536  -5.797   2.583  0.00  0.00    +0.060 C 
ATOM      5  C   UNL     1       3.721  -4.944   2.124  0.00  0.00    +0.032 C 
ATOM      6  C   UNL     1       3.830  -5.050   0.599  0.00  0.00    +0.088 C 
ATOM      7  C   UNL     1       2.526  -4.622  -0.013  0.00  0.00    +0.164 C 
ATOM      8  O   UNL     1       2.522  -4.142  -1.130  0.00  0.00    -0.292 OA
ATOM      9  N   UNL     1       0.094  -5.469   2.600  0.00  0.00    -0.287 N 
ATOM     10  C   UNL     1      -1.093  -5.333   1.900  0.00  0.00    +0.218 A 
ATOM     11  N   UNL     1      -1.124  -4.778   0.665  0.00  0.00    -0.221 N 
ATOM     12  N   UNL     1      -2.456  -4.805   0.255  0.00  0.00    -0.156 NA
ATOM     13  C   UNL     1      -3.140  -5.349   1.231  0.00  0.00    +0.247 A 
ATOM     14  N   UNL     1      -2.312  -5.667   2.223  0.00  0.00    -0.201 NA
ATOM     15  H   UNL     1       0.094  -5.667   3.550  0.00  0.00    +0.155 HD
ENDROOT
BRANCH   1  20
ATOM     16  C   UNL     1      -0.018   1.503   0.010  0.00  0.00    +0.044 C 
ATOM     17  C   UNL     1       0.002  -0.004   0.002  0.00  0.00    -0.050 A 
ATOM     18  C   UNL     1       0.006  -0.689  -1.199  0.00  0.00    +0.004 A 
ATOM     19  C   UNL     1       0.025  -2.071  -1.206  0.00  0.00    +0.006 A 
ATOM     20  C   UNL     1       0.040  -2.768  -0.013  0.00  0.00    -0.018 A 
ATOM     21  C   UNL     1       0.037  -2.084   1.188  0.00  0.00    +0.006 A 
ATOM     22  C   UNL     1       0.023  -0.702   1.195  0.00  0.00    +0.004 A 
ENDBRANCH   1  20
BRANCH   5  23
ATOM     23  C   UNL     1       4.989  -5.452   2.761  0.00  0.00    -0.042 A 
ATOM     24  C   UNL     1       5.410  -6.747   2.526  0.00  0.00    +0.004 A 
ATOM     25  C   UNL     1       6.572  -7.214   3.110  0.00  0.00    +0.002 A 
ATOM     26  C   UNL     1       7.315  -6.385   3.930  0.00  0.00    +0.020 A 
ATOM     27  C   UNL     1       6.895  -5.088   4.165  0.00  0.00    +0.041 A 
ATOM     28  C   UNL     1       5.734  -4.620   3.576  0.00  0.00    +0.024 A 
ATOM     29 CL   UNL     1       7.827  -4.046   5.195  0.00  0.00    -0.084 Cl
ENDBRANCH   5  23
TORSDOF 2
