REMARK  Name = ZINC02063181
REMARK  12 active torsions:
REMARK  status: ('A' for Active; 'I' for Inactive)
REMARK    1  A    between atoms: C_1  and  C_2
REMARK    2  A    between atoms: C_3  and  C_32
REMARK    3  A    between atoms: C_4  and  C_22
REMARK    4  A    between atoms: C_10  and  C_15
REMARK    5  A    between atoms: C_25  and  O_28
REMARK    6  A    between atoms: O_28  and  C_29
REMARK    7  A    between atoms: C_29  and  C_31
REMARK    8  A    between atoms: C_32  and  O_34
REMARK    9  A    between atoms: O_34  and  C_35
REMARK   10  A    between atoms: C_35  and  C_36
REMARK   11  A    between atoms: C_36  and  O_37
REMARK   12  A    between atoms: O_37  and  C_38
REMARK                            x       y       z     vdW  Elec       q    Type
REMARK                         _______ _______ _______ _____ _____    ______ ____
ROOT
ATOM      1  C   UNL     1      -5.930  -1.686  -1.754  0.00  0.00    +0.061 C 
ATOM      2  C   UNL     1      -5.309  -0.758  -2.766  0.00  0.00    +0.016 C 
ATOM      3  C   UNL     1      -4.079  -0.260  -2.549  0.00  0.00    +0.065 C 
ATOM      4  C   UNL     1      -3.434   0.676  -3.528  0.00  0.00    +0.092 C 
ATOM      5  C   UNL     1      -4.112   0.598  -4.875  0.00  0.00    +0.024 C 
ATOM      6  C   UNL     1      -5.346   0.067  -4.995  0.00  0.00    +0.016 C 
ATOM      7  N   UNL     1      -6.000  -0.429  -3.899  0.00  0.00    -0.321 N 
ATOM      8  C   UNL     1      -6.040   0.007  -6.334  0.00  0.00    +0.059 C 
ATOM      9  C   UNL     1      -4.998  -0.143  -7.445  0.00  0.00    +0.032 C 
ATOM     10  C   UNL     1      -4.033   1.045  -7.371  0.00  0.00    +0.088 C 
ATOM     11  C   UNL     1      -3.424   1.095  -5.996  0.00  0.00    +0.162 C 
ATOM     12  O   UNL     1      -2.316   1.574  -5.852  0.00  0.00    -0.292 OA
ATOM     13  H   UNL     1      -7.091  -0.561  -3.935  0.00  0.00    +0.152 HD
ENDROOT
BRANCH   9  14
ATOM     14  C   UNL     1      -5.686  -0.153  -8.786  0.00  0.00    -0.043 A 
ATOM     15  C   UNL     1      -6.462   0.924  -9.172  0.00  0.00    +0.005 A 
ATOM     16  C   UNL     1      -7.089   0.918 -10.404  0.00  0.00    +0.020 A 
ATOM     17  C   UNL     1      -6.948  -0.171 -11.246  0.00  0.00    +0.041 A 
ATOM     18  C   UNL     1      -6.176  -1.251 -10.857  0.00  0.00    +0.020 A 
ATOM     19  C   UNL     1      -5.546  -1.241  -9.627  0.00  0.00    +0.005 A 
ATOM     20 CL   UNL     1      -7.740  -0.182 -12.791  0.00  0.00    -0.084 Cl
ENDBRANCH   9  14
BRANCH   4  21
ATOM     21  C   UNL     1      -3.530   2.085  -3.002  0.00  0.00    -0.035 A 
ATOM     22  C   UNL     1      -4.769   2.651  -2.765  0.00  0.00    +0.008 A 
ATOM     23  C   UNL     1      -4.860   3.940  -2.277  0.00  0.00    +0.046 A 
ATOM     24  C   UNL     1      -3.706   4.672  -2.037  0.00  0.00    +0.132 A 
ATOM     25  C   UNL     1      -2.464   4.104  -2.281  0.00  0.00    +0.046 A 
ATOM     26  C   UNL     1      -2.379   2.812  -2.763  0.00  0.00    +0.008 A 
BRANCH  24  27
ATOM     27  O   UNL     1      -3.792   5.943  -1.563  0.00  0.00    -0.426 OA
BRANCH  27  28
ATOM     28  C   UNL     1      -4.103   6.090  -0.265  0.00  0.00    +0.309 C 
ATOM     29  O   UNL     1      -4.380   5.122   0.403  0.00  0.00    -0.251 OA
ATOM     30  C   UNL     1      -4.107   7.462   0.358  0.00  0.00    +0.136 C 
ENDBRANCH  27  28
ENDBRANCH  24  27
ENDBRANCH   4  21
BRANCH   3  31
ATOM     31  C   UNL     1      -3.383  -0.621  -1.372  0.00  0.00    +0.338 C 
ATOM     32  O   UNL     1      -3.936  -1.288  -0.518  0.00  0.00    -0.245 OA
BRANCH  31  33
ATOM     33  O   UNL     1      -2.104  -0.226  -1.197  0.00  0.00    -0.459 OA
BRANCH  33  34
ATOM     34  C   UNL     1      -1.462  -0.626   0.015  0.00  0.00    +0.260 C 
BRANCH  34  35
ATOM     35  C   UNL     1      -0.029  -0.089   0.035  0.00  0.00    +0.200 C 
BRANCH  35  36
ATOM     36  O   UNL     1      -0.057   1.339   0.075  0.00  0.00    -0.380 OA
ATOM     37  C   UNL     1       1.238   1.944   0.096  0.00  0.00    +0.194 C 
ENDBRANCH  35  36
ENDBRANCH  34  35
ENDBRANCH  33  34
ENDBRANCH  31  33
ENDBRANCH   3  31
TORSDOF 9
