REMARK  Name = ZINC36534284
REMARK  9 active torsions:
REMARK  status: ('A' for Active; 'I' for Inactive)
REMARK    1  A    between atoms: C_1  and  C_2
REMARK    2  A    between atoms: C_5  and  C_9
REMARK    3  A    between atoms: C_6  and  C_8
REMARK    4  A    between atoms: C_9  and  C_11
REMARK    5  A    between atoms: C_9  and  N_20
REMARK    6  A    between atoms: N_13  and  C_14
REMARK    7  A    between atoms: N_20  and  C_21
REMARK    8  A    between atoms: C_22  and  C_24
REMARK    9  A    between atoms: C_24  and  C_25
REMARK                            x       y       z     vdW  Elec       q    Type
REMARK                         _______ _______ _______ _____ _____    ______ ____
ROOT
ATOM      1  C   UNL     1       0.080  -4.289  -0.013  0.00  0.00    +0.192 C 
ENDROOT
BRANCH   1   6
ATOM      2  C   UNL     1       0.268   1.486  -0.076  0.00  0.00    +0.044 C 
ATOM      3  C   UNL     1       0.219  -0.020  -0.060  0.00  0.00    -0.050 A 
ATOM      4  C   UNL     1       1.332  -0.752  -0.428  0.00  0.00    +0.004 A 
ATOM      5  C   UNL     1       1.287  -2.134  -0.413  0.00  0.00    +0.006 A 
ATOM      6  C   UNL     1       0.129  -2.783  -0.028  0.00  0.00    -0.015 A 
ATOM      7  C   UNL     1      -0.984  -2.052   0.341  0.00  0.00    -0.045 A 
ATOM      8  C   UNL     1      -0.937  -0.670   0.330  0.00  0.00    +0.007 A 
ATOM      9  C   UNL     1      -2.246  -2.760   0.760  0.00  0.00    +0.044 C 
ENDBRANCH   1   6
BRANCH   1  10
ATOM     10  C   UNL     1       1.484  -4.838  -0.027  0.00  0.00    +0.238 C 
ATOM     11  O   UNL     1       1.885  -5.452  -0.994  0.00  0.00    -0.273 OA
ATOM     12  N   UNL     1       2.293  -4.647   1.033  0.00  0.00    -0.311 N 
ATOM     13  H   UNL     1       1.950  -4.220   1.834  0.00  0.00    +0.149 HD
BRANCH  12  14
ATOM     14  C   UNL     1       3.690  -5.083   0.976  0.00  0.00    +0.073 C 
ATOM     15  C   UNL     1       3.779  -6.561   1.361  0.00  0.00    +0.022 C 
ATOM     16  C   UNL     1       5.238  -7.017   1.301  0.00  0.00    +0.002 C 
ATOM     17  C   UNL     1       6.073  -6.185   2.277  0.00  0.00    +0.000 C 
ATOM     18  C   UNL     1       5.984  -4.707   1.893  0.00  0.00    +0.002 C 
ATOM     19  C   UNL     1       4.525  -4.251   1.952  0.00  0.00    +0.022 C 
ENDBRANCH  12  14
ENDBRANCH   1  10
BRANCH   1  20
ATOM     20  N   UNL     1      -0.643  -4.767  -1.194  0.00  0.00    -0.289 N 
ATOM     21  C   UNL     1      -0.225  -4.340  -2.531  0.00  0.00    +0.133 C 
ATOM     22  C   UNL     1      -1.694  -5.599  -1.050  0.00  0.00    +0.221 C 
ATOM     23  O   UNL     1      -2.040  -5.953   0.057  0.00  0.00    -0.275 OA
BRANCH  22  24
ATOM     24  C   UNL     1      -2.438  -6.090  -2.265  0.00  0.00    +0.131 C 
BRANCH  24  25
ATOM     25  C   UNL     1      -3.559  -7.000  -1.833  0.00  0.00    -0.035 A 
ATOM     26  C   UNL     1      -3.334  -8.357  -1.701  0.00  0.00    +0.008 A 
ATOM     27  C   UNL     1      -4.360  -9.195  -1.305  0.00  0.00    +0.050 A 
ATOM     28  C   UNL     1      -5.617  -8.676  -1.040  0.00  0.00    +0.166 A 
ATOM     29  C   UNL     1      -5.843  -7.309  -1.174  0.00  0.00    +0.166 A 
ATOM     30  C   UNL     1      -4.809  -6.474  -1.565  0.00  0.00    +0.053 A 
ATOM     31  O   UNL     1      -7.146  -7.050  -0.860  0.00  0.00    -0.453 OA
ATOM     32  C   UNL     1      -7.818  -8.321  -0.929  0.00  0.00    +0.466 C 
ATOM     33  O   UNL     1      -6.777  -9.274  -0.643  0.00  0.00    -0.453 OA
ENDBRANCH  24  25
ENDBRANCH  22  24
ENDBRANCH   1  20
TORSDOF 6
