REMARK  Name = ZINC10927640
REMARK  12 active torsions:
REMARK  status: ('A' for Active; 'I' for Inactive)
REMARK    1  A    between atoms: C_1  and  C_2
REMARK    2  A    between atoms: C_3  and  N_15
REMARK    3  A    between atoms: N_6  and  C_9
REMARK    4  A    between atoms: N_7  and  C_8
REMARK    5  A    between atoms: C_16  and  C_18
REMARK    6  A    between atoms: C_18  and  C_20
REMARK    7  A    between atoms: C_18  and  O_21
REMARK    8  A    between atoms: O_21  and  C_22
REMARK    9  A    between atoms: C_22  and  C_24
REMARK   10  A    between atoms: C_24  and  C_26
REMARK   11  A    between atoms: C_24  and  S_27
REMARK   12  A    between atoms: S_27  and  C_28
REMARK                            x       y       z     vdW  Elec       q    Type
REMARK                         _______ _______ _______ _____ _____    ______ ____
ROOT
ATOM      1  N   UNL     1      -4.403   0.276   0.090  0.00  0.00    -0.277 N 
ATOM      2  C   UNL     1      -3.258   0.987   0.093  0.00  0.00    +0.258 C 
ATOM      3  O   UNL     1      -3.228   2.086   0.605  0.00  0.00    -0.271 OA
ATOM      4  H   UNL     1      -4.444  -0.576  -0.372  0.00  0.00    +0.155 HD
ENDROOT
BRANCH   1   7
ATOM      5  C   UNL     1      -7.159   0.662  -1.202  0.00  0.00    +0.067 C 
ATOM      6  C   UNL     1      -6.769   0.954   0.224  0.00  0.00    +0.059 A 
ATOM      7  C   UNL     1      -5.540   0.770   0.759  0.00  0.00    +0.121 A 
ATOM      8  C   UNL     1      -5.614   1.174   2.163  0.00  0.00    +0.293 A 
ATOM      9  O   UNL     1      -4.706   1.147   2.974  0.00  0.00    -0.264 OA
ATOM     10  N   UNL     1      -6.880   1.586   2.387  0.00  0.00    -0.216 N 
ATOM     11  N   UNL     1      -7.599   1.449   1.195  0.00  0.00    -0.282 N 
ATOM     12  C   UNL     1      -9.014   1.782   1.013  0.00  0.00    +0.171 C 
BRANCH  10  13
ATOM     13  C   UNL     1      -7.386   2.061   3.602  0.00  0.00    +0.067 A 
ATOM     14  C   UNL     1      -8.079   3.263   3.644  0.00  0.00    +0.028 A 
ATOM     15  C   UNL     1      -8.583   3.726   4.844  0.00  0.00    +0.002 A 
ATOM     16  C   UNL     1      -8.387   2.999   6.004  0.00  0.00    +0.000 A 
ATOM     17  C   UNL     1      -7.692   1.804   5.966  0.00  0.00    +0.002 A 
ATOM     18  C   UNL     1      -7.191   1.333   4.769  0.00  0.00    +0.028 A 
ENDBRANCH  10  13
ENDBRANCH   1   7
BRANCH   2  19
ATOM     19  C   UNL     1      -2.015   0.416  -0.540  0.00  0.00    +0.259 C 
ATOM     20  C   UNL     1      -2.236   0.259  -2.046  0.00  0.00    +0.062 C 
BRANCH  19  21
ATOM     21  O   UNL     1      -0.897   1.312  -0.306  0.00  0.00    -0.451 OA
BRANCH  21  22
ATOM     22  C   UNL     1       0.322   0.756  -0.220  0.00  0.00    +0.321 C 
ATOM     23  O   UNL     1       0.450  -0.440  -0.337  0.00  0.00    -0.250 OA
BRANCH  22  24
ATOM     24  C   UNL     1       1.531   1.624   0.017  0.00  0.00    +0.157 C 
ATOM     25  C   UNL     1       1.956   2.276  -1.301  0.00  0.00    +0.031 C 
BRANCH  24  26
ATOM     26  S   UNL     1       2.890   0.606   0.654  0.00  0.00    -0.111 S 
BRANCH  26  27
ATOM     27  C   UNL     1       2.395   0.215   2.299  0.00  0.00    +0.009 A 
ATOM     28  C   UNL     1       1.178   0.675   2.788  0.00  0.00    +0.015 A 
ATOM     29  C   UNL     1       0.790   0.362   4.076  0.00  0.00    +0.001 A 
ATOM     30  C   UNL     1       1.617  -0.399   4.883  0.00  0.00    +0.000 A 
ATOM     31  C   UNL     1       2.831  -0.853   4.402  0.00  0.00    +0.001 A 
ATOM     32  C   UNL     1       3.223  -0.549   3.113  0.00  0.00    +0.015 A 
ENDBRANCH  26  27
ENDBRANCH  24  26
ENDBRANCH  22  24
ENDBRANCH  21  22
ENDBRANCH  19  21
ENDBRANCH   2  19
TORSDOF 8
