REMARK  Name = ZINC33027882
REMARK  4 active torsions:
REMARK  status: ('A' for Active; 'I' for Inactive)
REMARK    1  A    between atoms: C_6  and  C_7
REMARK    2  A    between atoms: C_9  and  C_13
REMARK    3  A    between atoms: C_16  and  C_25
REMARK    4  A    between atoms: C_16  and  O_29
REMARK                            x       y       z     vdW  Elec       q    Type
REMARK                         _______ _______ _______ _____ _____    ______ ____
ROOT
ATOM      1  C   UNL     1       6.117   0.683  -0.050  0.00  0.00    +0.286 C 
ATOM      2  O   UNL     1       6.664   1.769  -0.051  0.00  0.00    -0.266 OA
ATOM      3  N   UNL     1       6.856  -0.445  -0.062  0.00  0.00    -0.147 N 
ATOM      4  C   UNL     1       8.329  -0.507  -0.077  0.00  0.00    +0.259 C 
ATOM      5  C   UNL     1       8.614  -2.008  -0.222  0.00  0.00    +0.096 C 
ATOM      6  C   UNL     1       9.447  -2.537   0.949  0.00  0.00    +0.014 C 
ATOM      7  C   UNL     1       9.418  -4.069   0.912  0.00  0.00    +0.001 C 
ATOM      8  C   UNL     1       8.006  -4.598   1.155  0.00  0.00    +0.006 C 
ATOM      9  C   UNL     1       7.070  -4.146   0.023  0.00  0.00    +0.053 C 
ATOM     10  C   UNL     1       7.238  -2.646  -0.107  0.00  0.00    +0.045 C 
ATOM     11  N   UNL     1       6.354  -1.747  -0.057  0.00  0.00    -0.183 NA
ENDROOT
BRANCH   1  14
ATOM     12  C   UNL     1       2.481   1.069  -0.015  0.00  0.00    +0.093 A 
ATOM     13  C   UNL     1       3.759   1.657  -0.024  0.00  0.00    +0.062 A 
ATOM     14  C   UNL     1       4.648   0.599  -0.037  0.00  0.00    +0.123 A 
ATOM     15  N   UNL     1       3.893  -0.540  -0.035  0.00  0.00    -0.272 N 
ATOM     16  H   UNL     1       4.383  -1.525  -0.049  0.00  0.00    +0.189 HD
ATOM     17  N   UNL     1       2.645  -0.237  -0.017  0.00  0.00    -0.173 NA
BRANCH  12  23
ATOM     18  C   UNL     1      -0.013   1.076   0.008  0.00  0.00    +0.011 A 
ATOM     19  C   UNL     1      -1.216   1.751   0.017  0.00  0.00    +0.016 A 
ATOM     20  C   UNL     1      -1.236   3.135   0.030  0.00  0.00    +0.018 A 
ATOM     21  C   UNL     1      -0.051   3.849   0.022  0.00  0.00    +0.016 A 
ATOM     22  C   UNL     1       1.158   3.183   0.008  0.00  0.00    +0.011 A 
ATOM     23  C   UNL     1       1.184   1.790   0.000  0.00  0.00    +0.002 A 
ATOM     24 BR   UNL     1      -2.889   4.053   0.050  0.00  0.00    -0.050 Br
ENDBRANCH  12  23
ENDBRANCH   1  14
BRANCH   4  25
ATOM     25  C   UNL     1       8.891   0.271  -1.268  0.00  0.00    +0.438 C 
ATOM     26  F   UNL     1       8.523   1.617  -1.161  0.00  0.00    -0.166 F 
ATOM     27  F   UNL     1      10.286   0.168  -1.276  0.00  0.00    -0.166 F 
ATOM     28  F   UNL     1       8.377  -0.260  -2.456  0.00  0.00    -0.166 F 
ENDBRANCH   4  25
BRANCH   4  29
ATOM     29  O   UNL     1       8.867  -0.007   1.149  0.00  0.00    -0.363 OA
ATOM     30  H   UNL     1       9.956   0.017   1.303  0.00  0.00    +0.212 HD
ENDBRANCH   4  29
TORSDOF 4
