REMARK  Name = ZINC16140476
REMARK  13 active torsions:
REMARK  status: ('A' for Active; 'I' for Inactive)
REMARK    1  A    between atoms: C_1  and  C_2
REMARK    2  A    between atoms: C_2  and  N_65
REMARK    3  A    between atoms: C_3  and  C_4
REMARK    4  A    between atoms: C_3  and  N_65
REMARK    5  A    between atoms: C_5  and  C_6
REMARK    6  A    between atoms: C_5  and  N_65
REMARK    7  A    between atoms: C_11  and  C_12
REMARK    8  A    between atoms: C_12  and  N_13
REMARK    9  A    between atoms: C_14  and  C_16
REMARK   10  A    between atoms: C_16  and  C_17
REMARK   11  A    between atoms: C_17  and  S_18
REMARK   12  A    between atoms: S_18  and  C_19
REMARK   13  A    between atoms: C_19  and  C_20
REMARK                            x       y       z     vdW  Elec       q    Type
REMARK                         _______ _______ _______ _____ _____    ______ ____
ROOT
ATOM      1  N   UNL     1       0.256   1.720  -0.014  0.00  0.00    -0.311 N 
ATOM      2  C   UNL     1       1.348   2.491   0.158  0.00  0.00    +0.214 C 
ATOM      3  O   UNL     1       1.224   3.680   0.363  0.00  0.00    -0.276 OA
ATOM      4  H   UNL     1       0.354   0.769  -0.178  0.00  0.00    +0.149 HD
ENDROOT
BRANCH   1   5
ATOM      5  C   UNL     1      -1.080   2.319   0.042  0.00  0.00    +0.139 C 
BRANCH   5  11
ATOM      6  C   UNL     1      -2.489   0.415   0.850  0.00  0.00    -0.059 A 
ATOM      7  C   UNL     1      -3.442  -0.564   0.641  0.00  0.00    +0.002 A 
ATOM      8  C   UNL     1      -4.026  -0.706  -0.603  0.00  0.00    +0.000 A 
ATOM      9  C   UNL     1      -3.656   0.131  -1.640  0.00  0.00    +0.000 A 
ATOM     10  C   UNL     1      -2.707   1.113  -1.430  0.00  0.00    +0.005 A 
ATOM     11  C   UNL     1      -2.119   1.252  -0.186  0.00  0.00    -0.029 A 
BRANCH   6  12
ATOM     12  C   UNL     1      -1.853   0.570   2.208  0.00  0.00    -0.043 C 
BRANCH  12  13
ATOM     13  N   UNL     1      -2.493   1.703   2.907  0.00  0.00    +0.382 N 
ATOM     14  H   UNL     1      -2.478   2.526   2.293  0.00  0.00    -0.081 HD
BRANCH  13  16
ATOM     15  C   UNL     1      -3.960   0.164   4.168  0.00  0.00    -0.017 C 
ATOM     16  C   UNL     1      -3.897   1.370   3.229  0.00  0.00    -0.082 C 
ENDBRANCH  13  16
BRANCH  13  17
ATOM     17  C   UNL     1      -1.751   2.016   4.147  0.00  0.00    -0.082 C 
ATOM     18  C   UNL     1      -2.197   3.389   4.654  0.00  0.00    -0.017 C 
ENDBRANCH  13  17
ENDBRANCH  12  13
ENDBRANCH   6  12
ENDBRANCH   5  11
ENDBRANCH   1   5
BRANCH   2  19
ATOM     19  C   UNL     1       2.722   1.876   0.094  0.00  0.00    +0.106 C 
BRANCH  19  20
ATOM     20  C   UNL     1       3.777   2.961   0.320  0.00  0.00    +0.079 C 
BRANCH  20  21
ATOM     21  S   UNL     1       5.431   2.220   0.243  0.00  0.00    -0.153 S 
BRANCH  21  22
ATOM     22  C   UNL     1       6.552   3.619   0.526  0.00  0.00    +0.143 C 
BRANCH  22  23
ATOM     23  C   UNL     1       7.978   3.135   0.487  0.00  0.00    +0.121 A 
ATOM     24  N   UNL     1       8.988   4.023   0.677  0.00  0.00    -0.310 N 
ATOM     25  H   UNL     1       8.777   4.957   0.834  0.00  0.00    +0.170 HD
ATOM     26  C   UNL     1      10.277   3.634   0.650  0.00  0.00    +0.260 A 
ATOM     27  O   UNL     1      11.173   4.442   0.822  0.00  0.00    -0.267 OA
ATOM     28  C   UNL     1      10.575   2.252   0.417  0.00  0.00    +0.075 A 
ATOM     29  C   UNL     1      11.895   1.609   0.346  0.00  0.00    -0.023 A 
ATOM     30  C   UNL     1      11.915   0.285   0.116  0.00  0.00    -0.004 A 
ATOM     31  S   UNL     1      10.204  -0.182  -0.023  0.00  0.00    -0.073 S 
ATOM     32  C   UNL     1       9.469   1.411   0.233  0.00  0.00    +0.116 A 
ATOM     33  N   UNL     1       8.220   1.869   0.278  0.00  0.00    -0.226 NA
ATOM     34  C   UNL     1      13.315  -0.263   0.069  0.00  0.00    +0.043 C 
ATOM     35  C   UNL     1      14.182   0.830   0.732  0.00  0.00    +0.010 C 
ATOM     36  C   UNL     1      13.341   2.096   0.472  0.00  0.00    +0.037 C 
ENDBRANCH  22  23
ENDBRANCH  21  22
ENDBRANCH  20  21
ENDBRANCH  19  20
ENDBRANCH   2  19
TORSDOF 11
