REMARK  Name = ZINC25463440
REMARK  9 active torsions:
REMARK  status: ('A' for Active; 'I' for Inactive)
REMARK    1  A    between atoms: C_1  and  C_2
REMARK    2  A    between atoms: C_2  and  C_3
REMARK    3  A    between atoms: C_2  and  C_4
REMARK    4  A    between atoms: C_2  and  C_5
REMARK    5  A    between atoms: N_7  and  C_8
REMARK    6  A    between atoms: C_8  and  C_9
REMARK    7  A    between atoms: C_9  and  C_10
REMARK    8  A    between atoms: C_10  and  C_11
REMARK    9  A    between atoms: N_13  and  C_14
REMARK                            x       y       z     vdW  Elec       q    Type
REMARK                         _______ _______ _______ _____ _____    ______ ____
ROOT
ATOM      1  C   UNL     1       2.291  -5.815  -3.940  0.00  0.00    +0.217 C 
ATOM      2  O   UNL     1       1.790  -6.433  -3.024  0.00  0.00    -0.275 OA
ATOM      3  N   UNL     1       2.873  -6.475  -4.960  0.00  0.00    -0.285 N 
ATOM      4  H   UNL     1       3.213  -5.984  -5.724  0.00  0.00    +0.155 HD
ENDROOT
BRANCH   3   5
ATOM      5  C   UNL     1       2.985  -7.871  -4.918  0.00  0.00    +0.037 A 
ATOM      6  C   UNL     1       4.102  -8.495  -5.458  0.00  0.00    +0.027 A 
ATOM      7  C   UNL     1       4.214  -9.871  -5.416  0.00  0.00    +0.051 A 
ATOM      8  C   UNL     1       3.213 -10.633  -4.836  0.00  0.00    +0.167 A 
ATOM      9  C   UNL     1       2.091 -10.010  -4.293  0.00  0.00    +0.169 A 
ATOM     10  C   UNL     1       1.982  -8.630  -4.331  0.00  0.00    +0.072 A 
ATOM     11  O   UNL     1       1.261 -10.970  -3.787  0.00  0.00    -0.447 OA
ATOM     12  C   UNL     1       1.700 -12.203  -4.374  0.00  0.00    +0.254 C 
ATOM     13  O   UNL     1       3.086 -11.984  -4.670  0.00  0.00    -0.448 OA
ATOM     14  C   UNL     1       0.921 -12.487  -5.654  0.00  0.00    +0.093 C 
ATOM     15  C   UNL     1      -0.560 -12.682  -5.320  0.00  0.00    +0.008 C 
ATOM     16  C   UNL     1      -0.710 -13.850  -4.343  0.00  0.00    +0.000 C 
ATOM     17  C   UNL     1       0.059 -13.544  -3.056  0.00  0.00    +0.008 C 
ATOM     18  C   UNL     1       1.542 -13.350  -3.382  0.00  0.00    +0.093 C 
ENDBRANCH   3   5
BRANCH   1  19
ATOM     19  C   UNL     1       2.263  -4.308  -3.936  0.00  0.00    +0.097 C 
BRANCH  19  20
ATOM     20  C   UNL     1       1.551  -3.814  -2.675  0.00  0.00    +0.028 C 
BRANCH  20  21
ATOM     21  C   UNL     1       1.522  -2.284  -2.671  0.00  0.00    +0.104 C 
BRANCH  21  24
ATOM     22  C   UNL     1       0.696  -0.490  -1.245  0.00  0.00    +0.218 C 
ATOM     23  O   UNL     1       1.130   0.309  -2.048  0.00  0.00    -0.275 OA
ATOM     24  N   UNL     1       0.840  -1.812  -1.464  0.00  0.00    -0.315 N 
ATOM     25  H   UNL     1       0.492  -2.450  -0.822  0.00  0.00    +0.149 HD
BRANCH  22  27
ATOM     26  C   UNL     1      -0.035   1.526   0.001  0.00  0.00    +0.020 C 
ATOM     27  C   UNL     1      -0.006  -0.004  -0.004  0.00  0.00    +0.039 C 
ATOM     28  C   UNL     1       0.742  -0.503   1.234  0.00  0.00    +0.020 C 
ATOM     29  C   UNL     1      -1.439  -0.540   0.016  0.00  0.00    +0.020 C 
ENDBRANCH  22  27
ENDBRANCH  21  24
ENDBRANCH  20  21
ENDBRANCH  19  20
ENDBRANCH   1  19
TORSDOF 6
