REMARK  Name = ZINC18329694
REMARK  6 active torsions:
REMARK  status: ('A' for Active; 'I' for Inactive)
REMARK    1  A    between atoms: C_1  and  C_2
REMARK    2  A    between atoms: C_7  and  N_8
REMARK    3  A    between atoms: C_18  and  S_19
REMARK    4  A    between atoms: S_19  and  C_20
REMARK    5  A    between atoms: C_20  and  C_21
REMARK    6  A    between atoms: C_29  and  N_31
REMARK                            x       y       z     vdW  Elec       q    Type
REMARK                         _______ _______ _______ _____ _____    ______ ____
ROOT
ATOM      1  N   UNL     1      -1.201  -0.722   0.009  0.00  0.00    -0.255 N 
ATOM      2  C   UNL     1      -1.790  -1.055  -1.162  0.00  0.00    +0.267 A 
ATOM      3  O   UNL     1      -1.295  -0.743  -2.229  0.00  0.00    -0.267 OA
ATOM      4  C   UNL     1      -3.047  -1.812  -1.100  0.00  0.00    +0.065 A 
ATOM      5  C   UNL     1      -3.727  -2.205  -2.252  0.00  0.00    +0.017 A 
ATOM      6  C   UNL     1      -4.896  -2.904  -2.143  0.00  0.00    +0.021 A 
ATOM      7  C   UNL     1      -5.417  -3.228  -0.895  0.00  0.00    +0.043 A 
ATOM      8  C   UNL     1      -4.766  -2.852   0.260  0.00  0.00    +0.048 A 
ATOM      9  C   UNL     1      -3.568  -2.137   0.174  0.00  0.00    +0.080 A 
ATOM     10  N   UNL     1      -2.895  -1.747   1.282  0.00  0.00    -0.223 NA
ATOM     11  C   UNL     1      -1.772  -1.077   1.200  0.00  0.00    +0.177 A 
ATOM     12 CL   UNL     1      -6.905  -4.117  -0.790  0.00  0.00    -0.083 Cl
ENDROOT
BRANCH   1  19
ATOM     13  C   UNL     1      -1.331   2.121   0.020  0.00  0.00    +0.046 C 
ATOM     14  C   UNL     1      -0.017   1.384   0.010  0.00  0.00    -0.026 A 
ATOM     15  C   UNL     1       1.171   2.090   0.002  0.00  0.00    +0.005 A 
ATOM     16  C   UNL     1       2.377   1.415  -0.013  0.00  0.00    +0.000 A 
ATOM     17  C   UNL     1       2.400   0.032  -0.021  0.00  0.00    +0.002 A 
ATOM     18  C   UNL     1       1.216  -0.679  -0.013  0.00  0.00    +0.026 A 
ATOM     19  C   UNL     1       0.002  -0.004   0.002  0.00  0.00    +0.055 A 
ENDBRANCH   1  19
BRANCH  11  20
ATOM     20  S   UNL     1      -0.962  -0.610   2.693  0.00  0.00    -0.079 S 
BRANCH  20  21
ATOM     21  C   UNL     1      -2.110  -1.308   3.906  0.00  0.00    +0.153 C 
BRANCH  21  22
ATOM     22  C   UNL     1      -1.606  -1.023   5.297  0.00  0.00    +0.142 A 
ATOM     23  N   UNL     1      -0.810  -1.897   5.866  0.00  0.00    -0.231 NA
ATOM     24  C   UNL     1      -0.334  -1.679   7.101  0.00  0.00    +0.076 A 
ATOM     25  C   UNL     1       0.522  -2.588   7.738  0.00  0.00    +0.028 A 
ATOM     26  C   UNL     1       0.972  -2.321   8.997  0.00  0.00    +0.002 A 
ATOM     27  C   UNL     1       0.594  -1.158   9.662  0.00  0.00    +0.001 A 
ATOM     28  C   UNL     1      -0.237  -0.253   9.072  0.00  0.00    +0.013 A 
ATOM     29  C   UNL     1      -0.717  -0.497   7.780  0.00  0.00    +0.040 A 
ATOM     30  C   UNL     1      -1.583   0.405   7.115  0.00  0.00    +0.127 A 
ATOM     31  N   UNL     1      -1.990   0.095   5.891  0.00  0.00    -0.216 NA
BRANCH  30  32
ATOM     32  N   UNL     1      -1.991   1.573   7.723  0.00  0.00    -0.343 N 
ATOM     33  H   UNL     1      -2.584   2.182   7.255  0.00  0.00    +0.144 HD
ATOM     34  H   UNL     1      -1.685   1.787   8.618  0.00  0.00    +0.144 HD
ENDBRANCH  30  32
ENDBRANCH  21  22
ENDBRANCH  20  21
ENDBRANCH  11  20
TORSDOF 5
