REMARK  Name = ZINC36808797
REMARK  6 active torsions:
REMARK  status: ('A' for Active; 'I' for Inactive)
REMARK    1  A    between atoms: C_3  and  C_6
REMARK    2  A    between atoms: C_9  and  S_18
REMARK    3  A    between atoms: N_10  and  C_11
REMARK    4  A    between atoms: C_11  and  C_12
REMARK    5  A    between atoms: S_18  and  C_19
REMARK    6  A    between atoms: C_19  and  C_20
REMARK                            x       y       z     vdW  Elec       q    Type
REMARK                         _______ _______ _______ _____ _____    ______ ____
ROOT
ATOM      1  C   UNL     1       3.735   1.821  -0.024  0.00  0.00    +0.172 A 
ATOM      2  N   UNL     1       4.126   3.048  -0.290  0.00  0.00    -0.128 NA
ATOM      3  N   UNL     1       5.406   3.127  -0.209  0.00  0.00    -0.122 NA
ATOM      4  C   UNL     1       5.912   1.958   0.113  0.00  0.00    +0.192 A 
ATOM      5  N   UNL     1       4.867   1.086   0.248  0.00  0.00    -0.299 N 
ENDROOT
BRANCH   1   8
ATOM      6  C   UNL     1      -0.016   1.354   0.009  0.00  0.00    +0.008 A 
ATOM      7  C   UNL     1       1.176   2.042   0.002  0.00  0.00    +0.019 A 
ATOM      8  C   UNL     1       2.348   1.328  -0.013  0.00  0.00    +0.056 A 
ATOM      9  S   UNL     1       1.752  -0.355  -0.017  0.00  0.00    -0.094 S 
ATOM     10  C   UNL     1       0.002  -0.004   0.002  0.00  0.00    +0.046 A 
ENDBRANCH   1   8
BRANCH   5  11
ATOM     11  C   UNL     1       4.938  -0.333   0.603  0.00  0.00    +0.157 C 
BRANCH  11  12
ATOM     12  C   UNL     1       5.075  -1.172  -0.669  0.00  0.00    +0.138 C 
ATOM     13  C   UNL     1       5.029  -2.673  -0.314  0.00  0.00    +0.035 C 
ATOM     14  C   UNL     1       6.095  -3.271  -1.272  0.00  0.00    +0.031 C 
ATOM     15  C   UNL     1       7.125  -2.114  -1.325  0.00  0.00    +0.160 C 
ATOM     16  O   UNL     1       6.339  -0.910  -1.290  0.00  0.00    -0.375 OA
ENDBRANCH  11  12
ENDBRANCH   5  11
BRANCH   4  17
ATOM     17  S   UNL     1       7.620   1.585   0.337  0.00  0.00    -0.077 S 
BRANCH  17  18
ATOM     18  C   UNL     1       8.459   3.162   0.023  0.00  0.00    +0.173 C 
BRANCH  18  19
ATOM     19  C   UNL     1       9.946   2.980   0.183  0.00  0.00    +0.226 C 
ATOM     20  O   UNL     1      10.396   1.894   0.480  0.00  0.00    -0.275 OA
ATOM     21  N   UNL     1      10.777   4.025  -0.004  0.00  0.00    -0.301 N 
ATOM     22  C   UNL     1      10.208   5.309  -0.352  0.00  0.00    +0.108 C 
ATOM     23  C   UNL     1      10.093   5.425  -1.892  0.00  0.00    +0.019 C 
ATOM     24  C   UNL     1      11.426   5.575  -2.494  0.00  0.00    +0.002 C 
ATOM     25  C   UNL     1      12.353   4.383  -2.274  0.00  0.00    +0.002 C 
ATOM     26  C   UNL     1      13.043   4.526  -0.940  0.00  0.00    +0.019 C 
ATOM     27  C   UNL     1      12.228   3.814   0.161  0.00  0.00    +0.108 C 
ENDBRANCH  18  19
ENDBRANCH  17  18
ENDBRANCH   4  17
TORSDOF 6
