REMARK  Name = ZINC39957699
REMARK  10 active torsions:
REMARK  status: ('A' for Active; 'I' for Inactive)
REMARK    1  A    between atoms: C_1  and  C_2
REMARK    2  A    between atoms: C_2  and  C_3
REMARK    3  A    between atoms: C_3  and  C_4
REMARK    4  A    between atoms: C_4  and  N_5
REMARK    5  A    between atoms: N_5  and  C_6
REMARK    6  A    between atoms: C_14  and  C_16
REMARK    7  A    between atoms: C_16  and  S_17
REMARK    8  A    between atoms: S_17  and  C_18
REMARK    9  A    between atoms: C_22  and  C_27
REMARK   10  A    between atoms: N_23  and  C_24
REMARK                            x       y       z     vdW  Elec       q    Type
REMARK                         _______ _______ _______ _____ _____    ______ ____
ROOT
ATOM      1  C   UNL     1       0.780  -3.544  -7.814  0.00  0.00    +0.237 C 
ATOM      2  N   UNL     1       1.879  -2.593  -8.047  0.00  0.00    -0.237 N 
ATOM      3  N   UNL     1       3.065  -3.334  -7.989  0.00  0.00    -0.169 NA
ATOM      4  C   UNL     1       2.825  -4.597  -7.753  0.00  0.00    +0.147 C 
ATOM      5  N   UNL     1       1.451  -4.841  -7.629  0.00  0.00    -0.282 N 
ATOM      6  H   UNL     1       1.798  -1.640  -8.210  0.00  0.00    +0.171 HD
ENDROOT
BRANCH   4   7
ATOM      7  C   UNL     1       3.816  -5.584  -7.641  0.00  0.00    +0.022 C 
ATOM      8  C   UNL     1       5.198  -5.397  -7.658  0.00  0.00    +0.006 A 
ATOM      9  C   UNL     1       6.003  -4.244  -7.783  0.00  0.00    +0.010 A 
ATOM     10  C   UNL     1       7.355  -4.361  -7.766  0.00  0.00    +0.001 A 
ATOM     11  C   UNL     1       7.980  -5.603  -7.627  0.00  0.00    +0.002 A 
ATOM     12  C   UNL     1       7.270  -6.751  -7.502  0.00  0.00    +0.026 A 
ATOM     13  C   UNL     1       5.852  -6.708  -7.512  0.00  0.00    +0.043 A 
ATOM     14  N   UNL     1       4.949  -7.664  -7.408  0.00  0.00    -0.380 N 
ATOM     15  C   UNL     1       3.609  -7.073  -7.471  0.00  0.00    +0.152 C 
ATOM     16  H   UNL     1       5.142  -8.608  -7.303  0.00  0.00    +0.160 HD
ENDBRANCH   4   7
BRANCH   5  17
ATOM     17  C   UNL     1       0.808  -6.130  -7.366  0.00  0.00    +0.078 C 
ATOM     18  C   UNL     1      -0.707  -6.217  -7.563  0.00  0.00    +0.024 C 
ATOM     19  C   UNL     1      -0.118  -6.223  -6.151  0.00  0.00    +0.024 C 
ENDBRANCH   5  17
BRANCH   1  20
ATOM     20  S   UNL     1      -0.145  -3.090  -6.321  0.00  0.00    -0.109 S 
BRANCH  20  21
ATOM     21  C   UNL     1       1.114  -3.064  -5.015  0.00  0.00    +0.168 C 
BRANCH  21  23
ATOM     22  N   UNL     1       1.231  -2.516  -2.606  0.00  0.00    -0.296 N 
ATOM     23  C   UNL     1       0.470  -2.696  -3.703  0.00  0.00    +0.226 C 
ATOM     24  O   UNL     1      -0.734  -2.561  -3.635  0.00  0.00    -0.275 OA
BRANCH  22  25
ATOM     25  C   UNL     1       2.670  -2.788  -2.660  0.00  0.00    +0.098 C 
ATOM     26  C   UNL     1       3.014  -3.952  -1.716  0.00  0.00    +0.046 C 
ATOM     27  C   UNL     1       4.547  -4.037  -1.520  0.00  0.00    +0.168 C 
ATOM     28  S   UNL     1       5.083  -2.295  -1.767  0.00  0.00    -0.029 S 
ATOM     29  O   UNL     1       5.532  -1.769  -0.526  0.00  0.00    -0.174 OA
ATOM     30  O   UNL     1       5.934  -2.230  -2.903  0.00  0.00    -0.174 OA
ATOM     31  C   UNL     1       3.459  -1.533  -2.188  0.00  0.00    +0.188 C 
ENDBRANCH  22  25
BRANCH  22  32
ATOM     32  C   UNL     1       0.620  -2.048  -1.359  0.00  0.00    +0.108 C 
BRANCH  32  33
ATOM     33  C   UNL     1       0.506  -0.523  -1.388  0.00  0.00    +0.019 C 
BRANCH  33  35
ATOM     34  C   UNL     1      -0.359   1.481  -0.172  0.00  0.00    +0.004 C 
ATOM     35  C   UNL     1      -0.244  -0.044  -0.143  0.00  0.00    -0.002 C 
ENDBRANCH  33  35
ENDBRANCH  32  33
ENDBRANCH  22  32
ENDBRANCH  21  23
ENDBRANCH  20  21
ENDBRANCH   1  20
TORSDOF 9
