REMARK  Name = ZINC63489321
REMARK  9 active torsions:
REMARK  status: ('A' for Active; 'I' for Inactive)
REMARK    1  A    between atoms: C_1  and  C_2
REMARK    2  A    between atoms: C_2  and  C_4
REMARK    3  A    between atoms: C_7  and  N_10
REMARK    4  A    between atoms: C_11  and  C_13
REMARK    5  A    between atoms: C_13  and  S_14
REMARK    6  A    between atoms: S_14  and  C_15
REMARK    7  A    between atoms: C_19  and  C_29
REMARK    8  A    between atoms: N_21  and  C_22
REMARK    9  A    between atoms: C_29  and  C_30
REMARK                            x       y       z     vdW  Elec       q    Type
REMARK                         _______ _______ _______ _____ _____    ______ ____
ROOT
ATOM      1  C   UNL     1      -7.335  -7.470  -0.317  0.00  0.00    +0.217 C 
ATOM      2  N   UNL     1      -8.072  -7.042  -1.528  0.00  0.00    -0.226 NA
ATOM      3  N   UNL     1      -9.480  -7.002  -1.104  0.00  0.00    -0.234 NA
ATOM      4  C   UNL     1      -9.396  -6.483   0.286  0.00  0.00    +0.163 C 
ATOM      5  N   UNL     1      -8.178  -7.114   0.837  0.00  0.00    -0.287 N 
ATOM      6  H   UNL     1      -7.762  -6.133  -1.838  0.00  0.00    +0.143 HD
ATOM      7  H   UNL     1      -9.889  -7.925  -1.121  0.00  0.00    +0.143 HD
ENDROOT
BRANCH   5   8
ATOM      8  C   UNL     1      -7.884  -7.330   2.187  0.00  0.00    +0.033 A 
ATOM      9  C   UNL     1      -7.792  -8.625   2.679  0.00  0.00    +0.026 A 
ATOM     10  C   UNL     1      -7.500  -8.837   4.013  0.00  0.00    +0.040 A 
ATOM     11  C   UNL     1      -7.300  -7.759   4.859  0.00  0.00    +0.124 A 
ATOM     12  C   UNL     1      -7.392  -6.466   4.370  0.00  0.00    +0.040 A 
ATOM     13  C   UNL     1      -7.678  -6.250   3.036  0.00  0.00    +0.026 A 
ATOM     14  F   UNL     1      -7.016  -7.968   6.162  0.00  0.00    -0.205 F 
ENDBRANCH   5   8
BRANCH   1  15
ATOM     15  S   UNL     1      -5.746  -6.600  -0.218  0.00  0.00    -0.112 S 
BRANCH  15  16
ATOM     16  C   UNL     1      -6.205  -4.846  -0.209  0.00  0.00    +0.168 C 
BRANCH  16  18
ATOM     17  N   UNL     1      -5.058  -2.657  -0.107  0.00  0.00    -0.285 N 
ATOM     18  C   UNL     1      -4.960  -4.001  -0.128  0.00  0.00    +0.227 C 
ATOM     19  O   UNL     1      -3.870  -4.530  -0.080  0.00  0.00    -0.275 OA
ATOM     20  H   UNL     1      -5.930  -2.234  -0.075  0.00  0.00    +0.155 HD
BRANCH  17  24
ATOM     21  C   UNL     1      -1.617  -0.319  -0.181  0.00  0.00    +0.017 A 
ATOM     22  C   UNL     1      -1.651  -1.541  -0.865  0.00  0.00    +0.013 A 
ATOM     23  C   UNL     1      -2.787  -2.308  -0.837  0.00  0.00    +0.024 A 
ATOM     24  C   UNL     1      -3.905  -1.874  -0.132  0.00  0.00    +0.033 A 
ATOM     25  C   UNL     1      -3.877  -0.660   0.549  0.00  0.00    +0.024 A 
ATOM     26  C   UNL     1      -2.743   0.111   0.532  0.00  0.00    +0.013 A 
BRANCH  21  28
ATOM     27  C   UNL     1       0.808   0.040  -0.974  0.00  0.00    +0.091 C 
ATOM     28  C   UNL     1      -0.402   0.505  -0.207  0.00  0.00    +0.160 C 
ATOM     29  O   UNL     1      -0.373   1.561   0.390  0.00  0.00    -0.292 OA
ENDBRANCH  21  28
ENDBRANCH  17  24
ENDBRANCH  16  18
ENDBRANCH  15  16
ENDBRANCH   1  15
BRANCH   4  30
ATOM     30  C   UNL     1     -10.629  -6.901   1.090  0.00  0.00    +0.093 C 
BRANCH  30  31
ATOM     31  C   UNL     1     -11.865  -6.326   0.449  0.00  0.00    +0.029 A 
ATOM     32  N   UNL     1     -12.263  -5.050   0.744  0.00  0.00    -0.311 N 
ATOM     33  C   UNL     1     -13.365  -4.527   0.177  0.00  0.00    +0.327 A 
ATOM     34  O   UNL     1     -13.700  -3.392   0.453  0.00  0.00    -0.247 OA
ATOM     35  N   UNL     1     -14.101  -5.244  -0.693  0.00  0.00    -0.275 N 
ATOM     36  C   UNL     1     -13.743  -6.504  -1.010  0.00  0.00    +0.254 A 
ATOM     37  O   UNL     1     -14.409  -7.153  -1.797  0.00  0.00    -0.268 OA
ATOM     38  C   UNL     1     -12.583  -7.065  -0.424  0.00  0.00    +0.091 A 
ATOM     39  H   UNL     1     -14.893  -4.851  -1.093  0.00  0.00    +0.173 HD
ATOM     40  H   UNL     1     -11.745  -4.518   1.368  0.00  0.00    +0.170 HD
ENDBRANCH  30  31
ENDBRANCH   4  30
TORSDOF 8
