REMARK  Name = ZINC12658537
REMARK  13 active torsions:
REMARK  status: ('A' for Active; 'I' for Inactive)
REMARK    1  A    between atoms: C_1  and  C_2
REMARK    2  A    between atoms: C_2  and  C_4
REMARK    3  A    between atoms: C_10  and  C_45
REMARK    4  A    between atoms: N_22  and  O_23
REMARK    5  A    between atoms: O_23  and  C_24
REMARK    6  A    between atoms: C_24  and  C_25
REMARK    7  A    between atoms: N_27  and  C_28
REMARK    8  A    between atoms: C_28  and  C_30
REMARK    9  A    between atoms: C_28  and  C_37
REMARK   10  A    between atoms: C_30  and  C_31
REMARK   11  A    between atoms: C_37  and  O_39
REMARK   12  A    between atoms: O_39  and  C_40
REMARK   13  A    between atoms: C_43  and  C_44
REMARK                            x       y       z     vdW  Elec       q    Type
REMARK                         _______ _______ _______ _____ _____    ______ ____
ROOT
ATOM      1  C   UNL     1      -6.780  -6.145  -8.856  0.00  0.00    +0.061 C 
ATOM      2  C   UNL     1      -7.763  -4.948  -8.835  0.00  0.00    +0.012 C 
ATOM      3  C   UNL     1      -7.828  -4.453  -7.366  0.00  0.00    +0.005 C 
ATOM      4  C   UNL     1      -6.613  -5.123  -6.704  0.00  0.00    -0.001 C 
ATOM      5  C   UNL     1      -6.602  -6.514  -7.372  0.00  0.00    -0.019 C 
ATOM      6  C   UNL     1      -5.305  -7.223  -7.054  0.00  0.00    +0.008 C 
ATOM      7  C   UNL     1      -4.689  -6.602  -5.787  0.00  0.00    +0.005 C 
ATOM      8  C   UNL     1      -5.782  -6.365  -4.753  0.00  0.00    +0.002 C 
ATOM      9  C   UNL     1      -6.712  -5.252  -5.189  0.00  0.00    -0.003 C 
ATOM     10  C   UNL     1      -6.359  -3.893  -4.594  0.00  0.00    +0.008 C 
ATOM     11  C   UNL     1      -6.241  -3.953  -3.079  0.00  0.00    +0.031 C 
ATOM     12  C   UNL     1      -5.186  -4.986  -2.731  0.00  0.00    -0.062 C 
ATOM     13  C   UNL     1      -4.213  -4.622  -1.902  0.00  0.00    +0.026 C 
ATOM     14  C   UNL     1      -3.165  -5.585  -1.520  0.00  0.00    +0.080 C 
ATOM     15  N   UNL     1      -2.034  -5.195  -1.023  0.00  0.00    -0.089 NA
ATOM     16  C   UNL     1      -3.473  -7.053  -1.736  0.00  0.00    +0.059 C 
ATOM     17  C   UNL     1      -4.048  -7.194  -3.147  0.00  0.00    +0.017 C 
ATOM     18  C   UNL     1      -5.297  -6.348  -3.328  0.00  0.00    -0.007 C 
ATOM     19  C   UNL     1      -6.396  -7.064  -2.525  0.00  0.00    +0.016 C 
ATOM     20  C   UNL     1      -7.802  -7.358  -6.945  0.00  0.00    +0.012 C 
ENDROOT
BRANCH   1  22
ATOM     21  C   UNL     1      -6.494  -8.385 -10.160  0.00  0.00    +0.086 C 
ATOM     22  C   UNL     1      -7.383  -7.302  -9.605  0.00  0.00    +0.134 C 
ATOM     23  O   UNL     1      -8.578  -7.363  -9.761  0.00  0.00    -0.297 OA
ENDBRANCH   1  22
BRANCH  15  24
ATOM     24  O   UNL     1      -1.781  -3.814  -0.836  0.00  0.00    -0.384 OA
BRANCH  24  25
ATOM     25  C   UNL     1      -0.496  -3.528  -0.280  0.00  0.00    +0.358 C 
BRANCH  25  26
ATOM     26  C   UNL     1      -0.336  -2.038  -0.126  0.00  0.00    +0.254 C 
ATOM     27  O   UNL     1      -1.234  -1.293  -0.458  0.00  0.00    -0.272 OA
ATOM     28  N   UNL     1       0.805  -1.532   0.382  0.00  0.00    -0.299 N 
ATOM     29  H   UNL     1       1.524  -2.127   0.648  0.00  0.00    +0.150 HD
BRANCH  28  30
ATOM     30  C   UNL     1       0.961  -0.083   0.533  0.00  0.00    +0.188 C 
BRANCH  30  31
ATOM     31  C   UNL     1       0.354   0.354   1.841  0.00  0.00    +0.328 C 
ATOM     32  O   UNL     1      -0.155  -0.461   2.573  0.00  0.00    -0.249 OA
BRANCH  31  33
ATOM     33  O   UNL     1       0.381   1.649   2.194  0.00  0.00    -0.467 OA
ATOM     34  C   UNL     1      -0.222   1.998   3.468  0.00  0.00    +0.280 C 
ENDBRANCH  31  33
ENDBRANCH  30  31
BRANCH  30  35
ATOM     35  C   UNL     1       2.448   0.275   0.515  0.00  0.00    +0.090 C 
BRANCH  35  36
ATOM     36  C   UNL     1       3.027  -0.050  -0.838  0.00  0.00    +0.061 A 
ATOM     37  C   UNL     1       3.689   0.805  -1.641  0.00  0.00    +0.107 A 
ATOM     38  N   UNL     1       4.039   0.103  -2.763  0.00  0.00    -0.351 N 
ATOM     39  H   UNL     1       4.542   0.457  -3.552  0.00  0.00    +0.166 HD
ATOM     40  C   UNL     1       3.577  -1.156  -2.607  0.00  0.00    +0.196 A 
ATOM     41  N   UNL     1       2.978  -1.242  -1.451  0.00  0.00    -0.241 NA
ENDBRANCH  35  36
ENDBRANCH  30  35
ENDBRANCH  28  30
ENDBRANCH  25  26
ENDBRANCH  24  25
ENDBRANCH  15  24
TORSDOF 9
