REMARK  Name = ZINC36558223
REMARK  21 active torsions:
REMARK  status: ('A' for Active; 'I' for Inactive)
REMARK    1  A    between atoms: C_1  and  C_2
REMARK    2  A    between atoms: C_2  and  C_3
REMARK    3  A    between atoms: C_3  and  C_4
REMARK    4  A    between atoms: C_4  and  C_5
REMARK    5  A    between atoms: C_5  and  C_6
REMARK    6  A    between atoms: C_6  and  C_8
REMARK    7  A    between atoms: C_6  and  N_22
REMARK    8  A    between atoms: N_10  and  C_11
REMARK    9  A    between atoms: C_11  and  S_12
REMARK   10  A    between atoms: S_12  and  C_15
REMARK   11  A    between atoms: C_18  and  C_21
REMARK   12  A    between atoms: N_22  and  C_23
REMARK   13  A    between atoms: C_23  and  C_24
REMARK   14  A    between atoms: C_27  and  C_29
REMARK   15  A    between atoms: C_30  and  C_32
REMARK   16  A    between atoms: C_32  and  C_34
REMARK   17  A    between atoms: C_32  and  C_36
REMARK   18  A    between atoms: C_34  and  C_35
REMARK   19  A    between atoms: C_36  and  C_37
REMARK   20  A    between atoms: C_37  and  C_38
REMARK   21  A    between atoms: C_38  and  C_39
REMARK                            x       y       z     vdW  Elec       q    Type
REMARK                         _______ _______ _______ _____ _____    ______ ____
ROOT
ATOM      1  C   UNL     1      -1.388  -3.605  -0.066  0.00  0.00    +0.162 C 
ENDROOT
BRANCH   1   2
ATOM      2  C   UNL     1      -2.542  -2.642  -0.176  0.00  0.00    +0.235 C 
ATOM      3  O   UNL     1      -3.454  -2.696   0.622  0.00  0.00    -0.274 OA
ATOM      4  N   UNL     1      -2.561  -1.721  -1.159  0.00  0.00    -0.295 N 
ATOM      5  H   UNL     1      -1.831  -1.678  -1.797  0.00  0.00    +0.150 HD
BRANCH   4   6
ATOM      6  C   UNL     1      -3.682  -0.785  -1.266  0.00  0.00    +0.278 C 
BRANCH   6   7
ATOM      7  S   UNL     1      -3.262   0.762  -0.417  0.00  0.00    +0.013 S 
ATOM      8  O   UNL     1      -4.316   1.704  -0.565  0.00  0.00    -0.168 OA
ATOM      9  O   UNL     1      -2.714   0.483   0.864  0.00  0.00    -0.168 OA
BRANCH   7  10
ATOM     10  C   UNL     1      -1.922   1.436  -1.342  0.00  0.00    +0.090 A 
ATOM     11  C   UNL     1      -0.621   1.105  -1.015  0.00  0.00    +0.027 A 
ATOM     12  C   UNL     1       0.430   1.634  -1.741  0.00  0.00    +0.005 A 
ATOM     13  C   UNL     1       0.179   2.494  -2.793  0.00  0.00    -0.050 A 
ATOM     14  C   UNL     1      -1.123   2.825  -3.121  0.00  0.00    +0.005 A 
ATOM     15  C   UNL     1      -2.174   2.292  -2.398  0.00  0.00    +0.027 A 
ATOM     16  C   UNL     1       1.325   3.072  -3.584  0.00  0.00    +0.044 C 
ENDBRANCH   7  10
ENDBRANCH   6   7
ENDBRANCH   4   6
ENDBRANCH   1   2
BRANCH   1  17
ATOM     17  N   UNL     1      -1.623  -4.524   1.050  0.00  0.00    -0.282 N 
ATOM     18  C   UNL     1      -1.628  -5.855   0.837  0.00  0.00    +0.220 C 
ATOM     19  O   UNL     1      -1.549  -6.289  -0.293  0.00  0.00    -0.275 OA
BRANCH  17  20
ATOM     20  C   UNL     1      -1.853  -3.997   2.397  0.00  0.00    +0.182 C 
BRANCH  20  21
ATOM     21  C   UNL     1      -0.534  -3.853   3.112  0.00  0.00    +0.122 A 
ATOM     22  C   UNL     1       0.189  -2.723   3.207  0.00  0.00    +0.046 A 
ATOM     23  C   UNL     1       1.344  -3.038   3.958  0.00  0.00    +0.045 A 
ATOM     24  C   UNL     1       1.258  -4.342   4.277  0.00  0.00    +0.102 A 
ATOM     25  O   UNL     1       0.115  -4.829   3.767  0.00  0.00    -0.463 OA
ATOM     26  C   UNL     1       2.270  -5.123   5.076  0.00  0.00    +0.086 C 
ENDBRANCH  20  21
ENDBRANCH  17  20
BRANCH  18  27
ATOM     27  C   UNL     1      -1.732  -6.804   2.003  0.00  0.00    +0.075 C 
BRANCH  27  28
ATOM     28  C   UNL     1      -3.200  -7.174   2.230  0.00  0.00    +0.009 C 
ATOM     29  C   UNL     1      -3.745  -7.883   0.989  0.00  0.00    +0.004 C 
ENDBRANCH  27  28
BRANCH  27  30
ATOM     30  C   UNL     1      -0.928  -8.071   1.703  0.00  0.00    +0.013 C 
BRANCH  30  31
ATOM     31  C   UNL     1      -0.908  -8.968   2.942  0.00  0.00    +0.000 C 
BRANCH  31  32
ATOM     32  C   UNL     1       0.002 -10.171   2.687  0.00  0.00    -0.003 C 
ATOM     33  C   UNL     1       0.021 -11.068   3.926  0.00  0.00    +0.004 C 
ENDBRANCH  31  32
ENDBRANCH  30  31
ENDBRANCH  27  30
ENDBRANCH  18  27
ENDBRANCH   1  17
BRANCH   1  34
ATOM     34  C   UNL     1      -0.095  -2.825   0.179  0.00  0.00    +0.032 C 
BRANCH  34  35
ATOM     35  C   UNL     1       1.093  -3.790   0.166  0.00  0.00    +0.002 C 
BRANCH  35  36
ATOM     36  C   UNL     1       2.386  -3.010   0.412  0.00  0.00    -0.000 C 
BRANCH  36  38
ATOM     37  C   UNL     1       4.867  -3.195   0.644  0.00  0.00    +0.004 C 
ATOM     38  C   UNL     1       3.573  -3.975   0.399  0.00  0.00    -0.003 C 
ENDBRANCH  36  38
ENDBRANCH  35  36
ENDBRANCH  34  35
ENDBRANCH   1  34
TORSDOF 16
