REMARK  Name = ZINC34979193
REMARK  13 active torsions:
REMARK  status: ('A' for Active; 'I' for Inactive)
REMARK    1  A    between atoms: C_1  and  C_2
REMARK    2  A    between atoms: C_2  and  C_3
REMARK    3  A    between atoms: C_3  and  C_5
REMARK    4  A    between atoms: C_3  and  C_6
REMARK    5  A    between atoms: C_6  and  C_8
REMARK    6  A    between atoms: C_6  and  N_27
REMARK    7  A    between atoms: C_14  and  C_17
REMARK    8  A    between atoms: C_18  and  C_20
REMARK    9  A    between atoms: C_20  and  C_21
REMARK   10  A    between atoms: C_21  and  C_22
REMARK   11  A    between atoms: C_28  and  C_30
REMARK   12  A    between atoms: C_30  and  C_31
REMARK   13  A    between atoms: C_30  and  C_37
REMARK                            x       y       z     vdW  Elec       q    Type
REMARK                         _______ _______ _______ _____ _____    ______ ____
ROOT
ATOM      1  C   UNL     1       0.310  -1.738   0.534  0.00  0.00    +0.162 C 
ENDROOT
BRANCH   1   2
ATOM      2  C   UNL     1       0.798  -2.324  -0.765  0.00  0.00    +0.236 C 
ATOM      3  O   UNL     1       0.257  -2.022  -1.808  0.00  0.00    -0.274 OA
ATOM      4  N   UNL     1       1.837  -3.183  -0.769  0.00  0.00    -0.297 N 
ATOM      5  C   UNL     1       2.602  -3.437   0.459  0.00  0.00    +0.127 C 
ATOM      6  C   UNL     1       4.084  -3.157   0.180  0.00  0.00    +0.127 C 
ATOM      7  N   UNL     1       4.470  -3.857  -1.052  0.00  0.00    -0.296 N 
ATOM      8  C   UNL     1       3.705  -3.603  -2.281  0.00  0.00    +0.090 C 
ATOM      9  C   UNL     1       2.220  -3.888  -2.001  0.00  0.00    +0.130 C 
ATOM     10  C   UNL     1       3.884  -2.144  -2.705  0.00  0.00    +0.029 C 
ATOM     11  C   UNL     1       5.508  -4.716  -1.056  0.00  0.00    +0.216 C 
ATOM     12  O   UNL     1       5.818  -5.288  -2.080  0.00  0.00    -0.276 OA
BRANCH  11  13
ATOM     13  C   UNL     1       6.284  -4.966   0.211  0.00  0.00    +0.096 C 
BRANCH  13  14
ATOM     14  C   UNL     1       7.401  -5.975  -0.065  0.00  0.00    +0.013 C 
BRANCH  14  15
ATOM     15  C   UNL     1       8.189  -6.229   1.221  0.00  0.00    -0.011 C 
ATOM     16  C   UNL     1       8.969  -4.960   1.623  0.00  0.00    +0.003 C 
ATOM     17  C   UNL     1      10.305  -5.500   2.191  0.00  0.00    +0.000 C 
ATOM     18  C   UNL     1      10.614  -6.697   1.258  0.00  0.00    +0.000 C 
ATOM     19  C   UNL     1       9.235  -7.333   0.990  0.00  0.00    +0.003 C 
ENDBRANCH  14  15
ENDBRANCH  13  14
ENDBRANCH  11  13
ENDBRANCH   1   2
BRANCH   1  20
ATOM     20  N   UNL     1      -1.153  -1.668   0.520  0.00  0.00    -0.303 N 
ATOM     21  C   UNL     1      -1.839  -1.670   1.680  0.00  0.00    +0.225 C 
ATOM     22  O   UNL     1      -1.245  -1.729   2.736  0.00  0.00    -0.275 OA
ATOM     23  H   UNL     1      -1.628  -1.621  -0.324  0.00  0.00    +0.149 HD
BRANCH  21  24
ATOM     24  C   UNL     1      -3.344  -1.599   1.665  0.00  0.00    +0.135 C 
BRANCH  24  25
ATOM     25  C   UNL     1      -3.896  -2.784   0.915  0.00  0.00    -0.031 A 
ATOM     26  C   UNL     1      -3.500  -4.063   1.255  0.00  0.00    +0.005 A 
ATOM     27  C   UNL     1      -4.006  -5.150   0.567  0.00  0.00    +0.000 A 
ATOM     28  C   UNL     1      -4.908  -4.957  -0.463  0.00  0.00    +0.000 A 
ATOM     29  C   UNL     1      -5.305  -3.677  -0.803  0.00  0.00    +0.000 A 
ATOM     30  C   UNL     1      -4.802  -2.591  -0.111  0.00  0.00    +0.005 A 
ENDBRANCH  24  25
BRANCH  24  31
ATOM     31  C   UNL     1      -3.862  -1.616   3.081  0.00  0.00    -0.031 A 
ATOM     32  C   UNL     1      -3.492  -2.634   3.940  0.00  0.00    +0.005 A 
ATOM     33  C   UNL     1      -3.966  -2.650   5.238  0.00  0.00    +0.000 A 
ATOM     34  C   UNL     1      -4.811  -1.647   5.677  0.00  0.00    +0.000 A 
ATOM     35  C   UNL     1      -5.180  -0.629   4.819  0.00  0.00    +0.000 A 
ATOM     36  C   UNL     1      -4.702  -0.611   3.522  0.00  0.00    +0.005 A 
ENDBRANCH  24  31
ENDBRANCH  21  24
ENDBRANCH   1  20
BRANCH   1  37
ATOM     37  C   UNL     1       0.886  -0.330   0.707  0.00  0.00    +0.015 C 
ATOM     38  C   UNL     1       2.407  -0.415   0.848  0.00  0.00    +0.010 C 
BRANCH  37  40
ATOM     39  C   UNL     1       1.000   1.958  -0.290  0.00  0.00    +0.004 C 
ATOM     40  C   UNL     1       0.533   0.518  -0.517  0.00  0.00    +0.002 C 
ENDBRANCH  37  40
ENDBRANCH   1  37
TORSDOF 10
