REMARK  Name = ZINC34979373
REMARK  17 active torsions:
REMARK  status: ('A' for Active; 'I' for Inactive)
REMARK    1  A    between atoms: C_1  and  C_2
REMARK    2  A    between atoms: C_2  and  C_3
REMARK    3  A    between atoms: C_3  and  C_4
REMARK    4  A    between atoms: C_4  and  C_5
REMARK    5  A    between atoms: C_5  and  C_7
REMARK    6  A    between atoms: C_5  and  C_9
REMARK    7  A    between atoms: C_7  and  C_8
REMARK    8  A    between atoms: C_16  and  C_18
REMARK    9  A    between atoms: C_19  and  C_21
REMARK   10  A    between atoms: C_21  and  C_23
REMARK   11  A    between atoms: C_21  and  N_28
REMARK   12  A    between atoms: C_23  and  C_25
REMARK   13  A    between atoms: C_23  and  C_26
REMARK   14  A    between atoms: C_26  and  C_27
REMARK   15  A    between atoms: C_29  and  C_31
REMARK   16  A    between atoms: C_31  and  O_32
REMARK   17  A    between atoms: O_32  and  C_33
REMARK                            x       y       z     vdW  Elec       q    Type
REMARK                         _______ _______ _______ _____ _____    ______ ____
ROOT
ATOM      1  C   UNL     1      -2.793  -4.229  -0.156  0.00  0.00    +0.219 C 
ATOM      2  O   UNL     1      -1.807  -4.853  -0.489  0.00  0.00    -0.275 OA
ATOM      3  N   UNL     1      -3.958  -4.873   0.055  0.00  0.00    -0.295 N 
ATOM      4  C   UNL     1      -5.184  -4.121   0.356  0.00  0.00    +0.127 C 
ATOM      5  C   UNL     1      -5.771  -4.646   1.672  0.00  0.00    +0.127 C 
ATOM      6  N   UNL     1      -5.838  -6.112   1.605  0.00  0.00    -0.297 N 
ATOM      7  C   UNL     1      -4.612  -6.864   1.304  0.00  0.00    +0.130 C 
ATOM      8  C   UNL     1      -4.027  -6.340  -0.018  0.00  0.00    +0.090 C 
ATOM      9  C   UNL     1      -2.621  -6.910  -0.222  0.00  0.00    +0.029 C 
ATOM     10  C   UNL     1      -7.003  -6.756   1.816  0.00  0.00    +0.236 C 
ATOM     11  O   UNL     1      -7.029  -7.968   1.848  0.00  0.00    -0.274 OA
ENDROOT
BRANCH   1  12
ATOM     12  C   UNL     1      -2.715  -2.735   0.022  0.00  0.00    +0.075 C 
BRANCH  12  13
ATOM     13  C   UNL     1      -2.954  -2.384   1.492  0.00  0.00    +0.009 C 
ATOM     14  C   UNL     1      -1.835  -2.981   2.348  0.00  0.00    +0.004 C 
ENDBRANCH  12  13
BRANCH  12  15
ATOM     15  C   UNL     1      -1.329  -2.243  -0.401  0.00  0.00    +0.013 C 
BRANCH  15  16
ATOM     16  C   UNL     1      -1.290  -0.715  -0.340  0.00  0.00    +0.000 C 
BRANCH  16  18
ATOM     17  C   UNL     1       0.164   1.301  -0.596  0.00  0.00    +0.004 C 
ATOM     18  C   UNL     1       0.125  -0.227  -0.657  0.00  0.00    -0.003 C 
ENDBRANCH  16  18
ENDBRANCH  15  16
ENDBRANCH  12  15
ENDBRANCH   1  12
BRANCH  10  19
ATOM     19  C   UNL     1      -8.274  -5.970   2.012  0.00  0.00    +0.162 C 
BRANCH  19  20
ATOM     20  N   UNL     1      -9.244  -6.785   2.746  0.00  0.00    -0.301 N 
ATOM     21  C   UNL     1     -10.214  -6.190   3.469  0.00  0.00    +0.251 C 
ATOM     22  O   UNL     1     -10.283  -4.980   3.511  0.00  0.00    -0.272 OA
ATOM     23  H   UNL     1      -9.189  -7.753   2.712  0.00  0.00    +0.150 HD
BRANCH  21  24
ATOM     24  C   UNL     1     -11.212  -7.029   4.224  0.00  0.00    +0.324 C 
BRANCH  24  25
ATOM     25  O   UNL     1     -12.132  -6.175   4.907  0.00  0.00    -0.483 OA
BRANCH  25  26
ATOM     26  C   UNL     1     -13.105  -6.777   5.642  0.00  0.00    +0.121 A 
ATOM     27  C   UNL     1     -13.169  -8.161   5.708  0.00  0.00    +0.047 A 
ATOM     28  C   UNL     1     -14.158  -8.771   6.455  0.00  0.00    +0.023 A 
ATOM     29  C   UNL     1     -15.085  -8.002   7.136  0.00  0.00    +0.041 A 
ATOM     30  C   UNL     1     -15.023  -6.621   7.071  0.00  0.00    +0.023 A 
ATOM     31  C   UNL     1     -14.031  -6.008   6.330  0.00  0.00    +0.047 A 
ATOM     32 CL   UNL     1     -16.328  -8.771   8.073  0.00  0.00    -0.084 Cl
ENDBRANCH  25  26
ENDBRANCH  24  25
ENDBRANCH  21  24
ENDBRANCH  19  20
BRANCH  19  33
ATOM     33  C   UNL     1      -8.854  -5.591   0.648  0.00  0.00    +0.015 C 
ATOM     34  C   UNL     1      -9.317  -6.855  -0.079  0.00  0.00    +0.010 C 
BRANCH  33  35
ATOM     35  C   UNL     1     -10.045  -4.651   0.844  0.00  0.00    +0.002 C 
ATOM     36  C   UNL     1      -9.558  -3.326   1.436  0.00  0.00    +0.004 C 
ENDBRANCH  33  35
ENDBRANCH  19  33
ENDBRANCH  10  19
TORSDOF 12
