REMARK  Name = ZINC22061070
REMARK  12 active torsions:
REMARK  status: ('A' for Active; 'I' for Inactive)
REMARK    1  A    between atoms: C_1  and  C_2
REMARK    2  A    between atoms: C_5  and  C_39
REMARK    3  A    between atoms: N_6  and  C_7
REMARK    4  A    between atoms: N_16  and  C_17
REMARK    5  A    between atoms: C_17  and  C_18
REMARK    6  A    between atoms: C_18  and  C_19
REMARK    7  A    between atoms: C_19  and  C_21
REMARK    8  A    between atoms: C_19  and  N_28
REMARK    9  A    between atoms: C_24  and  O_27
REMARK   10  A    between atoms: C_29  and  C_31
REMARK   11  A    between atoms: C_39  and  C_40
REMARK   12  A    between atoms: C_39  and  C_41
REMARK                            x       y       z     vdW  Elec       q    Type
REMARK                         _______ _______ _______ _____ _____    ______ ____
ROOT
ATOM      1  C   UNL     1      -1.111   6.385  -0.538  0.00  0.00    +0.101 C 
ENDROOT
BRANCH   1   2
ATOM      2  C   UNL     1      -2.241   7.293  -0.124  0.00  0.00    -0.027 A 
ATOM      3  C   UNL     1      -2.034   8.250   0.853  0.00  0.00    +0.009 A 
ATOM      4  C   UNL     1      -3.068   9.084   1.234  0.00  0.00    +0.046 A 
ATOM      5  C   UNL     1      -4.314   8.960   0.636  0.00  0.00    +0.117 A 
ATOM      6  C   UNL     1      -4.518   7.999  -0.343  0.00  0.00    +0.046 A 
ATOM      7  C   UNL     1      -3.480   7.172  -0.725  0.00  0.00    +0.009 A 
BRANCH   5   8
ATOM      8  O   UNL     1      -5.332   9.778   1.010  0.00  0.00    -0.507 OA
ATOM      9  H   UNL     1      -5.387  10.597   0.498  0.00  0.00    +0.292 HD
ENDBRANCH   5   8
ENDBRANCH   1   2
BRANCH   1  10
ATOM     10  N   UNL     1       0.136   7.151  -0.594  0.00  0.00    -0.308 N 
ATOM     11  C   UNL     1       0.454   7.840  -1.708  0.00  0.00    +0.217 C 
ATOM     12  O   UNL     1      -0.293   7.826  -2.664  0.00  0.00    -0.275 OA
ATOM     13  H   UNL     1       0.733   7.163   0.170  0.00  0.00    +0.149 HD
BRANCH  11  14
ATOM     14  C   UNL     1       1.737   8.629  -1.766  0.00  0.00    +0.075 C 
ATOM     15  C   UNL     1       1.734   9.689  -0.664  0.00  0.00    +0.018 C 
ATOM     16  C   UNL     1       3.037  10.490  -0.723  0.00  0.00    +0.076 C 
ATOM     17  C   UNL     1       3.154  11.172  -2.087  0.00  0.00    +0.249 C 
ATOM     18  C   UNL     1       3.157  10.112  -3.189  0.00  0.00    +0.076 C 
ATOM     19  C   UNL     1       1.854   9.312  -3.130  0.00  0.00    +0.018 C 
ATOM     20  F   UNL     1       2.068  12.035  -2.272  0.00  0.00    -0.206 F 
ATOM     21  F   UNL     1       4.346  11.904  -2.141  0.00  0.00    -0.206 F 
ENDBRANCH  11  14
ENDBRANCH   1  10
BRANCH   1  22
ATOM     22  C   UNL     1      -0.969   5.252   0.481  0.00  0.00    +0.008 C 
BRANCH  22  23
ATOM     23  C   UNL     1       0.093   4.263  -0.003  0.00  0.00    -0.076 C 
BRANCH  23  31
ATOM     24  C   UNL     1       0.356   0.468   2.021  0.00  0.00    +0.087 C 
ATOM     25  C   UNL     1       1.599   1.331   1.786  0.00  0.00    +0.010 C 
ATOM     26  C   UNL     1       1.339   2.262   0.590  0.00  0.00    -0.066 C 
ATOM     27  C   UNL     1       0.764   1.404  -0.560  0.00  0.00    -0.017 C 
ATOM     28  C   UNL     1      -0.762   1.412  -0.333  0.00  0.00    -0.017 C 
ATOM     29  C   UNL     1      -0.970   2.273   0.934  0.00  0.00    -0.066 C 
ATOM     30  C   UNL     1      -0.876   1.366   2.171  0.00  0.00    +0.010 C 
ATOM     31  N   UNL     1       0.230   3.175   0.975  0.00  0.00    +0.384 N 
ATOM     32  H   UNL     1       0.380   3.545   1.901  0.00  0.00    -0.081 HD
BRANCH  24  38
ATOM     33  C   UNL     1      -2.380  -0.626   0.967  0.00  0.00    +0.088 C 
ATOM     34  C   UNL     1      -1.010  -0.916   0.412  0.00  0.00    +0.131 A 
ATOM     35  N   UNL     1      -0.735  -1.676  -0.613  0.00  0.00    -0.135 NA
ATOM     36  N   UNL     1       0.536  -1.699  -0.807  0.00  0.00    -0.134 NA
ATOM     37  C   UNL     1       1.130  -0.955   0.085  0.00  0.00    +0.136 A 
ATOM     38  N   UNL     1       0.166  -0.433   0.882  0.00  0.00    -0.312 N 
BRANCH  37  39
ATOM     39  C   UNL     1       2.613  -0.716   0.205  0.00  0.00    +0.051 C 
ATOM     40  C   UNL     1       3.366  -2.006  -0.128  0.00  0.00    +0.015 C 
ATOM     41  C   UNL     1       3.033   0.386  -0.771  0.00  0.00    +0.015 C 
ENDBRANCH  37  39
ENDBRANCH  24  38
ENDBRANCH  23  31
ENDBRANCH  22  23
ENDBRANCH   1  22
TORSDOF 9
