REMARK  Name = ZINC24506941
REMARK  5 active torsions:
REMARK  status: ('A' for Active; 'I' for Inactive)
REMARK    1  A    between atoms: C_3  and  C_7
REMARK    2  A    between atoms: C_7  and  N_8
REMARK    3  A    between atoms: C_12  and  S_14
REMARK    4  A    between atoms: S_14  and  C_15
REMARK    5  A    between atoms: C_15  and  C_16
REMARK                            x       y       z     vdW  Elec       q    Type
REMARK                         _______ _______ _______ _____ _____    ______ ____
ROOT
ATOM      1  S   UNL     1      -4.781   4.972   7.922  0.00  0.00    -0.089 S 
ENDROOT
BRANCH   1   6
ATOM      2  N   UNL     1      -2.015   3.472   3.052  0.00  0.00    -0.320 N 
ATOM      3  C   UNL     1      -2.882   3.789   4.091  0.00  0.00    +0.182 A 
ATOM      4  N   UNL     1      -4.200   3.787   4.110  0.00  0.00    -0.125 NA
ATOM      5  N   UNL     1      -4.870   4.136   5.260  0.00  0.00    -0.133 NA
ATOM      6  C   UNL     1      -4.189   4.480   6.337  0.00  0.00    +0.160 A 
ATOM      7  S   UNL     1      -2.508   4.315   5.757  0.00  0.00    -0.025 S 
ATOM      8  H   UNL     1      -0.928   3.531   3.205  0.00  0.00    +0.148 HD
BRANCH   2   9
ATOM      9  C   UNL     1      -2.550   3.059   1.752  0.00  0.00    +0.135 C 
BRANCH   9  12
ATOM     10  C   UNL     1      -0.778   1.606  -1.224  0.00  0.00    +0.031 C 
ATOM     11  C   UNL     1      -1.928   2.453  -0.626  0.00  0.00    +0.035 C 
ATOM     12  C   UNL     1      -1.394   2.771   0.793  0.00  0.00    +0.135 C 
ATOM     13  O   UNL     1      -0.705   1.559   1.176  0.00  0.00    -0.375 OA
ATOM     14  C   UNL     1      -0.013   1.086   0.008  0.00  0.00    +0.160 C 
ENDBRANCH   9  12
ENDBRANCH   2   9
ENDBRANCH   1   6
BRANCH   1  15
ATOM     15  C   UNL     1      -6.586   4.903   7.757  0.00  0.00    +0.152 C 
BRANCH  15  16
ATOM     16  C   UNL     1      -7.225   5.306   9.061  0.00  0.00    +0.146 A 
ATOM     17  N   UNL     1      -7.499   4.388   9.972  0.00  0.00    -0.199 NA
ATOM     18  C   UNL     1      -8.059   4.741  11.127  0.00  0.00    +0.217 A 
ATOM     19  N   UNL     1      -8.352   6.016  11.359  0.00  0.00    -0.181 NA
ATOM     20  C   UNL     1      -8.080   6.935  10.439  0.00  0.00    +0.217 A 
ATOM     21  N   UNL     1      -7.515   6.575   9.288  0.00  0.00    -0.199 NA
ATOM     22  N   UNL     1      -8.382   8.260  10.675  0.00  0.00    -0.327 N 
ATOM     23  N   UNL     1      -8.340   3.783  12.080  0.00  0.00    -0.327 N 
ATOM     24  H   UNL     1      -8.157   9.020   9.913  0.00  0.00    +0.145 HD
ATOM     25  H   UNL     1      -8.849   8.557  11.626  0.00  0.00    +0.145 HD
ATOM     26  H   UNL     1      -8.803   4.075  13.034  0.00  0.00    +0.145 HD
ATOM     27  H   UNL     1      -8.100   2.727  11.885  0.00  0.00    +0.145 HD
ENDBRANCH  15  16
ENDBRANCH   1  15
TORSDOF 5
