REMARK  Name = ZINC62039286
REMARK  9 active torsions:
REMARK  status: ('A' for Active; 'I' for Inactive)
REMARK    1  A    between atoms: C_1  and  C_2
REMARK    2  A    between atoms: C_2  and  C_3
REMARK    3  A    between atoms: C_2  and  C_4
REMARK    4  A    between atoms: C_2  and  C_5
REMARK    5  A    between atoms: C_12  and  N_17
REMARK    6  A    between atoms: C_13  and  C_14
REMARK    7  A    between atoms: C_18  and  C_20
REMARK    8  A    between atoms: C_20  and  C_21
REMARK    9  A    between atoms: N_23  and  C_30
REMARK                            x       y       z     vdW  Elec       q    Type
REMARK                         _______ _______ _______ _____ _____    ______ ____
ROOT
ATOM      1  C   UNL     1       0.718  -0.497  -1.257  0.00  0.00    -0.000 C 
ATOM      2  C   UNL     1      -0.017   0.013  -2.499  0.00  0.00    +0.009 C 
ATOM      3  C   UNL     1       0.538  -0.670  -3.751  0.00  0.00    +0.037 C 
ATOM      4  C   UNL     1       2.052  -0.516  -3.760  0.00  0.00    -0.023 A 
ATOM      5  C   UNL     1       2.731  -0.199  -2.636  0.00  0.00    -0.004 A 
ATOM      6  S   UNL     1       4.426  -0.134  -3.141  0.00  0.00    -0.077 S 
ATOM      7  C   UNL     1       4.255  -0.510  -4.768  0.00  0.00    +0.084 A 
ATOM      8  C   UNL     1       2.890  -0.688  -4.933  0.00  0.00    +0.068 A 
ATOM      9  C   UNL     1       2.158   0.038  -1.273  0.00  0.00    +0.046 C 
ENDROOT
BRANCH   8  10
ATOM     10  C   UNL     1       2.317  -1.035  -6.237  0.00  0.00    +0.244 C 
ATOM     11  O   UNL     1       1.973  -0.155  -7.004  0.00  0.00    -0.270 OA
ATOM     12  N   UNL     1       2.171  -2.329  -6.586  0.00  0.00    -0.325 N 
ATOM     13  H   UNL     1       2.445  -3.030  -5.975  0.00  0.00    +0.145 HD
ATOM     14  H   UNL     1       1.792  -2.558  -7.449  0.00  0.00    +0.145 HD
ENDBRANCH   8  10
BRANCH   1  16
ATOM     15  C   UNL     1      -0.019   1.526   0.010  0.00  0.00    +0.011 C 
ATOM     16  C   UNL     1       0.002  -0.004   0.002  0.00  0.00    -0.035 C 
ATOM     17  C   UNL     1       0.742  -0.511   1.242  0.00  0.00    +0.011 C 
ATOM     18  C   UNL     1      -1.433  -0.534   0.013  0.00  0.00    +0.011 C 
ENDBRANCH   1  16
BRANCH   7  19
ATOM     19  N   UNL     1       5.250  -0.618  -5.727  0.00  0.00    -0.279 N 
ATOM     20  C   UNL     1       6.538  -0.410  -5.388  0.00  0.00    +0.222 C 
ATOM     21  O   UNL     1       6.826  -0.129  -4.244  0.00  0.00    -0.275 OA
ATOM     22  H   UNL     1       5.020  -0.844  -6.642  0.00  0.00    +0.155 HD
BRANCH  20  23
ATOM     23  C   UNL     1       7.620  -0.528  -6.431  0.00  0.00    +0.133 C 
BRANCH  23  24
ATOM     24  C   UNL     1       8.959  -0.250  -5.798  0.00  0.00    -0.013 A 
ATOM     25  C   UNL     1       9.600   0.930  -5.770  0.00  0.00    +0.090 A 
ATOM     26  N   UNL     1      10.790   0.799  -5.108  0.00  0.00    -0.349 N 
ATOM     27  C   UNL     1      10.949  -0.501  -4.683  0.00  0.00    +0.049 A 
ATOM     28  C   UNL     1       9.806  -1.214  -5.091  0.00  0.00    +0.003 A 
ATOM     29  C   UNL     1       9.687  -2.571  -4.788  0.00  0.00    +0.010 A 
ATOM     30  C   UNL     1      10.680  -3.201  -4.093  0.00  0.00    +0.001 A 
ATOM     31  C   UNL     1      11.808  -2.502  -3.686  0.00  0.00    +0.002 A 
ATOM     32  C   UNL     1      11.950  -1.164  -3.982  0.00  0.00    +0.026 A 
ATOM     33  C   UNL     1      11.753   1.880  -4.886  0.00  0.00    +0.149 C 
ENDBRANCH  23  24
ENDBRANCH  20  23
ENDBRANCH   7  19
TORSDOF 5
