REMARK  Name = ZINC54771195
REMARK  5 active torsions:
REMARK  status: ('A' for Active; 'I' for Inactive)
REMARK    1  A    between atoms: C_1  and  C_2
REMARK    2  A    between atoms: C_2  and  C_4
REMARK    3  A    between atoms: C_2  and  N_16
REMARK    4  A    between atoms: N_16  and  C_17
REMARK    5  A    between atoms: C_17  and  C_18
REMARK                            x       y       z     vdW  Elec       q    Type
REMARK                         _______ _______ _______ _____ _____    ______ ____
ROOT
ATOM      1  C   UNL     1       0.731  -0.503   1.223  0.00  0.00    -0.029 A 
ATOM      2  C   UNL     1       0.077  -0.557   2.442  0.00  0.00    +0.007 A 
ATOM      3  C   UNL     1       0.737  -1.013   3.566  0.00  0.00    +0.028 A 
ATOM      4  C   UNL     1       2.059  -1.419   3.474  0.00  0.00    +0.067 A 
ATOM      5  C   UNL     1       2.719  -1.364   2.244  0.00  0.00    +0.067 A 
ATOM      6  C   UNL     1       2.047  -0.910   1.120  0.00  0.00    +0.033 A 
ATOM      7  N   UNL     1       4.014  -1.829   2.461  0.00  0.00    -0.306 N 
ATOM      8  H   UNL     1       4.709  -1.906   1.789  0.00  0.00    +0.170 HD
ATOM      9  C   UNL     1       4.137  -2.151   3.763  0.00  0.00    +0.325 A 
ATOM     10  O   UNL     1       5.145  -2.589   4.284  0.00  0.00    -0.247 OA
ATOM     11  N   UNL     1       2.974  -1.915   4.400  0.00  0.00    -0.306 N 
ATOM     12  H   UNL     1       2.803  -2.064   5.343  0.00  0.00    +0.170 HD
ENDROOT
BRANCH   1  14
ATOM     13  C   UNL     1      -0.019   1.526   0.010  0.00  0.00    +0.029 C 
ATOM     14  C   UNL     1       0.002  -0.004   0.002  0.00  0.00    +0.081 C 
BRANCH  14  15
ATOM     15  N   UNL     1      -1.376  -0.512   0.012  0.00  0.00    -0.305 NA
ATOM     16  H   UNL     1      -1.426  -1.413   0.464  0.00  0.00    +0.123 HD
BRANCH  15  17
ATOM     17  C   UNL     1      -1.924  -0.575  -1.349  0.00  0.00    +0.125 C 
BRANCH  17  18
ATOM     18  C   UNL     1      -3.336  -1.100  -1.298  0.00  0.00    +0.023 A 
ATOM     19  C   UNL     1      -4.508  -0.426  -1.175  0.00  0.00    +0.123 A 
ATOM     20  N   UNL     1      -5.612  -1.145  -1.158  0.00  0.00    -0.255 NA
ATOM     21  C   UNL     1      -5.577  -2.451  -1.256  0.00  0.00    +0.156 A 
ATOM     22  S   UNL     1      -3.932  -2.781  -1.392  0.00  0.00    -0.079 S 
ENDBRANCH  17  18
ENDBRANCH  15  17
ENDBRANCH  14  15
ENDBRANCH   1  14
TORSDOF 4
