REMARK  Name = ZINC64497871
REMARK  8 active torsions:
REMARK  status: ('A' for Active; 'I' for Inactive)
REMARK    1  A    between atoms: C_1  and  C_2
REMARK    2  A    between atoms: C_2  and  C_3
REMARK    3  A    between atoms: C_2  and  C_4
REMARK    4  A    between atoms: C_6  and  C_23
REMARK    5  A    between atoms: C_7  and  N_9
REMARK    6  A    between atoms: N_9  and  N_10
REMARK    7  A    between atoms: C_11  and  C_13
REMARK    8  A    between atoms: C_15  and  C_16
REMARK                            x       y       z     vdW  Elec       q    Type
REMARK                         _______ _______ _______ _____ _____    ______ ____
ROOT
ATOM      1  N   UNL     1      -3.753  -2.936  -2.501  0.00  0.00    -0.234 N 
ATOM      2  C   UNL     1      -4.637  -3.685  -3.188  0.00  0.00    +0.233 C 
ATOM      3  O   UNL     1      -5.761  -3.843  -2.760  0.00  0.00    -0.274 OA
ATOM      4  H   UNL     1      -2.854  -2.810  -2.843  0.00  0.00    +0.173 HD
ENDROOT
BRANCH   2   5
ATOM      5  C   UNL     1      -4.229  -4.328  -4.489  0.00  0.00    +0.084 C 
ATOM      6  C   UNL     1      -4.107  -5.853  -4.515  0.00  0.00    +0.022 C 
ATOM      7  C   UNL     1      -5.278  -5.167  -5.222  0.00  0.00    +0.032 C 
BRANCH   7   8
ATOM      8  C   UNL     1      -6.640  -5.288  -4.588  0.00  0.00    -0.042 A 
ATOM      9  C   UNL     1      -6.769  -5.835  -3.325  0.00  0.00    +0.004 A 
ATOM     10  C   UNL     1      -8.017  -5.946  -2.742  0.00  0.00    +0.002 A 
ATOM     11  C   UNL     1      -9.138  -5.509  -3.423  0.00  0.00    +0.020 A 
ATOM     12  C   UNL     1      -9.011  -4.961  -4.686  0.00  0.00    +0.041 A 
ATOM     13  C   UNL     1      -7.759  -4.845  -5.266  0.00  0.00    +0.024 A 
ATOM     14 CL   UNL     1     -10.418  -4.412  -5.542  0.00  0.00    -0.084 Cl
ENDBRANCH   7   8
ENDBRANCH   2   5
BRANCH   1  15
ATOM     15  N   UNL     1      -4.132  -2.338  -1.292  0.00  0.00    -0.232 N 
ATOM     16  H   UNL     1      -5.031  -2.464  -0.950  0.00  0.00    +0.173 HD
BRANCH  15  20
ATOM     17  C   UNL     1      -1.412  -0.526   0.013  0.00  0.00    +0.202 A 
ATOM     18  N   UNL     1      -2.289  -0.286   0.939  0.00  0.00    -0.200 NA
ATOM     19  C   UNL     1      -3.451  -0.919   0.613  0.00  0.00    +0.202 A 
ATOM     20  C   UNL     1      -3.227  -1.570  -0.589  0.00  0.00    +0.241 A 
ATOM     21  O   UNL     1      -1.956  -1.303  -0.938  0.00  0.00    -0.423 OA
BRANCH  17  23
ATOM     22  C   UNL     1      -0.019   1.526   0.010  0.00  0.00    +0.017 C 
ATOM     23  C   UNL     1       0.002  -0.004   0.002  0.00  0.00    +0.069 C 
ATOM     24  C   UNL     1       0.742  -0.511   1.242  0.00  0.00    +0.017 C 
ENDBRANCH  17  23
BRANCH  19  25
ATOM     25  C   UNL     1      -4.668  -0.912   1.367  0.00  0.00    +0.124 C 
ATOM     26  N   UNL     1      -5.634  -0.907   1.965  0.00  0.00    -0.189 NA
ENDBRANCH  19  25
ENDBRANCH  15  20
ENDBRANCH   1  15
TORSDOF 6
