REMARK  Name = ZINC63588660
REMARK  11 active torsions:
REMARK  status: ('A' for Active; 'I' for Inactive)
REMARK    1  A    between atoms: C_1  and  C_2
REMARK    2  A    between atoms: C_6  and  C_8
REMARK    3  A    between atoms: C_8  and  N_10
REMARK    4  A    between atoms: N_12  and  C_13
REMARK    5  A    between atoms: C_16  and  O_21
REMARK    6  A    between atoms: C_17  and  O_19
REMARK    7  A    between atoms: O_19  and  C_20
REMARK    8  A    between atoms: O_21  and  C_22
REMARK    9  A    between atoms: N_23  and  C_24
REMARK   10  A    between atoms: C_24  and  C_25
REMARK   11  A    between atoms: C_25  and  C_26
REMARK                            x       y       z     vdW  Elec       q    Type
REMARK                         _______ _______ _______ _____ _____    ______ ____
ROOT
ATOM      1  N   UNL     1      -0.310  -4.216   2.519  0.00  0.00    -0.143 NA
ATOM      2  C   UNL     1      -0.585  -4.734   3.707  0.00  0.00    +0.194 C 
ATOM      3  N   UNL     1      -0.209  -4.075   4.841  0.00  0.00    -0.328 N 
ATOM      4  N   UNL     1      -1.244  -5.925   3.796  0.00  0.00    -0.357 N 
ATOM      5  H   UNL     1       0.176  -3.187   4.782  0.00  0.00    +0.169 HD
ATOM      6  H   UNL     1      -1.473  -6.289   4.665  0.00  0.00    +0.162 HD
ENDROOT
BRANCH   3   7
ATOM      7  C   UNL     1      -0.381  -4.682   6.092  0.00  0.00    +0.045 A 
ATOM      8  C   UNL     1      -0.272  -6.061   6.216  0.00  0.00    +0.029 A 
ATOM      9  C   UNL     1      -0.441  -6.661   7.449  0.00  0.00    +0.051 A 
ATOM     10  C   UNL     1      -0.719  -5.888   8.565  0.00  0.00    +0.162 A 
ATOM     11  C   UNL     1      -0.828  -4.506   8.444  0.00  0.00    +0.163 A 
ATOM     12  C   UNL     1      -0.653  -3.904   7.209  0.00  0.00    +0.075 A 
BRANCH  11  13
ATOM     13  O   UNL     1      -1.100  -3.747   9.539  0.00  0.00    -0.491 OA
ATOM     14  C   UNL     1      -1.198  -2.335   9.342  0.00  0.00    +0.277 C 
ENDBRANCH  11  13
BRANCH  10  15
ATOM     15  O   UNL     1      -0.885  -6.481   9.778  0.00  0.00    -0.491 OA
ATOM     16  C   UNL     1      -0.760  -7.903   9.828  0.00  0.00    +0.277 C 
ENDBRANCH  10  15
ENDBRANCH   3   7
BRANCH   1  17
ATOM     17  C   UNL     1       0.546  -3.191   2.417  0.00  0.00    +0.270 C 
ATOM     18  O   UNL     1       1.161  -2.811   3.398  0.00  0.00    -0.268 OA
BRANCH  17  24
ATOM     19  C   UNL     1       2.605   0.462  -0.290  0.00  0.00    +0.044 C 
ATOM     20  C   UNL     1       1.733  -0.762  -0.194  0.00  0.00    -0.050 A 
ATOM     21  C   UNL     1       1.114  -1.261  -1.327  0.00  0.00    +0.003 A 
ATOM     22  C   UNL     1       0.311  -2.385  -1.246  0.00  0.00    +0.001 A 
ATOM     23  C   UNL     1       0.123  -3.016  -0.033  0.00  0.00    +0.013 A 
ATOM     24  C   UNL     1       0.744  -2.518   1.113  0.00  0.00    +0.039 A 
ATOM     25  C   UNL     1       1.557  -1.388   1.024  0.00  0.00    +0.016 A 
ENDBRANCH  17  24
ENDBRANCH   1  17
BRANCH   4  26
ATOM     26  C   UNL     1      -1.606  -6.655   2.578  0.00  0.00    +0.120 C 
BRANCH  26  27
ATOM     27  C   UNL     1      -2.330  -7.949   2.955  0.00  0.00    +0.054 C 
BRANCH  27  28
ATOM     28  C   UNL     1      -2.703  -8.699   1.702  0.00  0.00    -0.040 C 
ATOM     29  C   UNL     1      -2.002  -9.695   1.112  0.00  0.00    -0.001 A 
ATOM     30  C   UNL     1      -0.733 -10.351   1.447  0.00  0.00    +0.010 A 
ATOM     31  C   UNL     1      -0.275 -11.340   0.646  0.00  0.00    +0.001 A 
ATOM     32  C   UNL     1      -0.980 -11.753  -0.492  0.00  0.00    +0.002 A 
ATOM     33  C   UNL     1      -2.153 -11.198  -0.865  0.00  0.00    +0.026 A 
ATOM     34  C   UNL     1      -2.728 -10.149  -0.095  0.00  0.00    +0.043 A 
ATOM     35  N   UNL     1      -3.834  -9.462  -0.246  0.00  0.00    -0.380 N 
ATOM     36  C   UNL     1      -3.938  -8.496   0.853  0.00  0.00    +0.144 C 
ATOM     37  H   UNL     1      -4.478  -9.575  -0.963  0.00  0.00    +0.160 HD
ENDBRANCH  27  28
ENDBRANCH  26  27
ENDBRANCH   4  26
TORSDOF 8
