REMARK  Name = ZINC08674002
REMARK  7 active torsions:
REMARK  status: ('A' for Active; 'I' for Inactive)
REMARK    1  A    between atoms: C_1  and  C_2
REMARK    2  A    between atoms: C_6  and  O_8
REMARK    3  A    between atoms: O_8  and  C_9
REMARK    4  A    between atoms: C_9  and  C_10
REMARK    5  A    between atoms: C_10  and  S_11
REMARK    6  A    between atoms: S_11  and  C_12
REMARK    7  A    between atoms: C_15  and  C_17
REMARK                            x       y       z     vdW  Elec       q    Type
REMARK                         _______ _______ _______ _____ _____    ______ ____
ROOT
ATOM      1  S   UNL     1       0.106  -6.607   3.576  0.00  0.00    -0.062 S 
ENDROOT
BRANCH   1   2
ATOM      2  C   UNL     1       0.121  -7.134   5.257  0.00  0.00    +0.278 A 
ATOM      3  N   UNL     1       0.110  -6.356   6.314  0.00  0.00    -0.101 NA
ATOM      4  N   UNL     1       0.126  -7.079   7.379  0.00  0.00    -0.106 NA
ATOM      5  C   UNL     1       0.149  -8.348   7.044  0.00  0.00    +0.256 A 
ATOM      6  O   UNL     1       0.140  -8.409   5.693  0.00  0.00    -0.410 OA
BRANCH   5   7
ATOM      7  C   UNL     1       0.173  -9.492   7.967  0.00  0.00    +0.076 A 
ATOM      8  C   UNL     1       0.171  -9.497   9.350  0.00  0.00    +0.021 A 
ATOM      9  C   UNL     1       0.196 -10.710  10.000  0.00  0.00    +0.008 A 
ATOM     10  C   UNL     1       0.223 -11.855   9.270  0.00  0.00    +0.046 A 
ATOM     11  S   UNL     1       0.204 -11.238   7.595  0.00  0.00    -0.092 S 
ENDBRANCH   5   7
ENDBRANCH   1   2
BRANCH   1  12
ATOM     12  C   UNL     1       0.083  -4.796   3.683  0.00  0.00    +0.120 C 
BRANCH  12  13
ATOM     13  C   UNL     1       0.069  -4.202   2.274  0.00  0.00    +0.240 C 
BRANCH  13  14
ATOM     14  O   UNL     1       0.050  -2.776   2.358  0.00  0.00    -0.491 OA
BRANCH  14  20
ATOM     15  C   UNL     1      -0.018   1.503   0.010  0.00  0.00    +0.044 C 
ATOM     16  C   UNL     1       0.002  -0.004   0.002  0.00  0.00    -0.047 A 
ATOM     17  C   UNL     1       0.006  -0.688  -1.200  0.00  0.00    +0.003 A 
ATOM     18  C   UNL     1       0.024  -2.071  -1.211  0.00  0.00    +0.004 A 
ATOM     19  C   UNL     1       0.039  -2.772  -0.020  0.00  0.00    +0.045 A 
ATOM     20  C   UNL     1       0.035  -2.088   1.186  0.00  0.00    +0.121 A 
ATOM     21  C   UNL     1       0.023  -0.700   1.195  0.00  0.00    +0.049 A 
ENDBRANCH  14  20
ENDBRANCH  13  14
ENDBRANCH  12  13
ENDBRANCH   1  12
TORSDOF 6
