REMARK  Name = ZINC16916656
REMARK  9 active torsions:
REMARK  status: ('A' for Active; 'I' for Inactive)
REMARK    1  A    between atoms: C_1  and  C_2
REMARK    2  A    between atoms: C_2  and  O_3
REMARK    3  A    between atoms: O_3  and  C_4
REMARK    4  A    between atoms: C_6  and  C_16
REMARK    5  A    between atoms: C_9  and  O_10
REMARK    6  A    between atoms: O_10  and  C_11
REMARK    7  A    between atoms: C_11  and  C_13
REMARK    8  A    between atoms: C_11  and  C_14
REMARK    9  A    between atoms: N_20  and  C_24
REMARK                            x       y       z     vdW  Elec       q    Type
REMARK                         _______ _______ _______ _____ _____    ______ ____
ROOT
ATOM      1  C   UNL     1      -0.393  -3.195   4.954  0.00  0.00    +0.028 C 
ATOM      2  C   UNL     1      -0.615  -2.410   6.039  0.00  0.00    +0.078 C 
ATOM      3  C   UNL     1      -1.465  -1.211   6.175  0.00  0.00    +0.263 C 
ATOM      4  O   UNL     1      -2.106  -0.772   5.239  0.00  0.00    -0.269 OA
ATOM      5  N   UNL     1      -1.494  -0.637   7.367  0.00  0.00    -0.224 N 
ATOM      6  C   UNL     1      -0.782  -1.127   8.402  0.00  0.00    +0.125 C 
ATOM      7  S   UNL     1      -0.689  -0.532  10.005  0.00  0.00    -0.027 S 
ATOM      8  S   UNL     1       0.035  -2.551   7.699  0.00  0.00    -0.061 S 
ENDROOT
BRANCH   5   9
ATOM      9  C   UNL     1      -2.283   0.505   7.558  0.00  0.00    +0.044 A 
ATOM     10  C   UNL     1      -3.578   0.383   8.043  0.00  0.00    +0.025 A 
ATOM     11  C   UNL     1      -4.352   1.510   8.236  0.00  0.00    +0.023 A 
ATOM     12  C   UNL     1      -3.842   2.761   7.935  0.00  0.00    +0.059 A 
ATOM     13  C   UNL     1      -2.553   2.886   7.446  0.00  0.00    +0.061 A 
ATOM     14  C   UNL     1      -1.772   1.761   7.257  0.00  0.00    +0.045 A 
ATOM     15 CL   UNL     1      -1.915   4.457   7.071  0.00  0.00    -0.082 Cl
ATOM     16 CL   UNL     1      -4.820   4.176   8.172  0.00  0.00    -0.082 Cl
ENDBRANCH   5   9
BRANCH   1  19
ATOM     17  C   UNL     1      -2.001  -3.376   1.570  0.00  0.00    +0.162 A 
ATOM     18  C   UNL     1      -1.507  -3.755   2.803  0.00  0.00    +0.057 A 
ATOM     19  C   UNL     1      -0.921  -2.799   3.642  0.00  0.00    -0.020 A 
ATOM     20  C   UNL     1      -0.838  -1.465   3.225  0.00  0.00    +0.012 A 
ATOM     21  C   UNL     1      -1.329  -1.098   1.991  0.00  0.00    +0.050 A 
ATOM     22  C   UNL     1      -1.915  -2.046   1.163  0.00  0.00    +0.163 A 
BRANCH  17  23
ATOM     23  O   UNL     1      -2.571  -4.302   0.753  0.00  0.00    -0.489 OA
BRANCH  23  25
ATOM     24  C   UNL     1      -3.295  -6.537   0.185  0.00  0.00    +0.048 C 
ATOM     25  C   UNL     1      -2.625  -5.646   1.234  0.00  0.00    +0.226 C 
ENDBRANCH  23  25
ENDBRANCH  17  23
BRANCH  22  26
ATOM     26  O   UNL     1      -2.402  -1.676  -0.051  0.00  0.00    -0.474 OA
BRANCH  26  27
ATOM     27  C   UNL     1      -2.384  -0.281  -0.359  0.00  0.00    +0.283 C 
ATOM     28  C   UNL     1      -1.028   0.090  -0.965  0.00  0.00    +0.064 C 
BRANCH  27  29
ATOM     29  C   UNL     1      -3.478   0.029  -1.349  0.00  0.00    +0.395 C 
ATOM     30  O   UNL     1      -4.199  -0.855  -1.748  0.00  0.00    -0.242 OA
ATOM     31  O   UNL     1      -3.651   1.286  -1.786  0.00  0.00    -0.242 OA
ENDBRANCH  27  29
ENDBRANCH  26  27
ENDBRANCH  22  26
ENDBRANCH   1  19
TORSDOF 7
