REMARK  Name = ZINC36155934
REMARK  11 active torsions:
REMARK  status: ('A' for Active; 'I' for Inactive)
REMARK    1  A    between atoms: C_1  and  C_2
REMARK    2  A    between atoms: C_2  and  C_3
REMARK    3  A    between atoms: C_2  and  C_34
REMARK    4  A    between atoms: C_2  and  O_36
REMARK    5  A    between atoms: C_3  and  N_4
REMARK    6  A    between atoms: N_4  and  C_5
REMARK    7  A    between atoms: N_4  and  C_11
REMARK    8  A    between atoms: C_5  and  C_6
REMARK    9  A    between atoms: C_11  and  C_12
REMARK   10  A    between atoms: N_24  and  C_27
REMARK   11  A    between atoms: C_27  and  C_28
REMARK                            x       y       z     vdW  Elec       q    Type
REMARK                         _______ _______ _______ _____ _____    ______ ____
ROOT
ATOM      1  C   UNL     1       2.649   1.359  -0.627  0.00  0.00    +0.094 A 
ATOM      2  N   UNL     1       3.276   2.261  -1.425  0.00  0.00    -0.312 N 
ATOM      3  H   UNL     1       4.106   2.665  -1.125  0.00  0.00    +0.170 HD
ATOM      4  C   UNL     1       2.771   2.607  -2.623  0.00  0.00    +0.260 A 
ATOM      5  O   UNL     1       3.347   3.418  -3.328  0.00  0.00    -0.267 OA
ATOM      6  C   UNL     1       1.544   2.005  -3.058  0.00  0.00    +0.075 A 
ATOM      7  C   UNL     1       0.815   2.224  -4.304  0.00  0.00    -0.020 A 
ATOM      8  C   UNL     1      -0.330   1.527  -4.477  0.00  0.00    +0.010 A 
ATOM      9  S   UNL     1      -0.498   0.551  -3.009  0.00  0.00    -0.072 S 
ATOM     10  C   UNL     1       0.970   1.085  -2.166  0.00  0.00    +0.116 A 
ATOM     11  N   UNL     1       1.534   0.790  -0.998  0.00  0.00    -0.229 NA
ATOM     12  C   UNL     1      -1.242   1.588  -5.663  0.00  0.00    +0.127 C 
ATOM     13  N   UNL     1      -0.890   2.782  -6.455  0.00  0.00    -0.293 NA
ATOM     14  C   UNL     1       0.560   2.839  -6.690  0.00  0.00    +0.090 C 
ATOM     15  C   UNL     1       1.290   3.186  -5.390  0.00  0.00    +0.052 C 
ENDROOT
BRANCH   1  16
ATOM     16  C   UNL     1       3.254   1.004   0.707  0.00  0.00    -0.002 C 
BRANCH  16  17
ATOM     17  N   UNL     1       2.331   0.134   1.447  0.00  0.00    +0.391 N 
ATOM     18  H   UNL     1       2.007  -0.606   0.842  0.00  0.00    -0.080 HD
BRANCH  17  19
ATOM     19  C   UNL     1       1.183   0.922   1.914  0.00  0.00    -0.038 C 
BRANCH  19  21
ATOM     20  C   UNL     1      -0.202  -1.132   1.586  0.00  0.00    +0.044 C 
ATOM     21  C   UNL     1       0.154  -0.008   2.561  0.00  0.00    +0.067 C 
BRANCH  21  22
ATOM     22  C   UNL     1      -1.087   0.775   2.901  0.00  0.00    -0.003 C 
ATOM     23  C   UNL     1      -1.494   0.850   4.144  0.00  0.00    +0.006 C 
ENDBRANCH  21  22
BRANCH  21  24
ATOM     24  O   UNL     1       0.705  -0.570   3.755  0.00  0.00    -0.387 OA
ATOM     25  H   UNL     1       0.904   0.082   4.440  0.00  0.00    +0.210 HD
ENDBRANCH  21  24
ENDBRANCH  19  21
ENDBRANCH  17  19
BRANCH  17  26
ATOM     26  C   UNL     1       3.027  -0.449   2.602  0.00  0.00    -0.002 C 
BRANCH  26  27
ATOM     27  C   UNL     1       2.970  -1.952   2.517  0.00  0.00    +0.089 A 
ATOM     28  C   UNL     1       3.830  -2.735   1.842  0.00  0.00    +0.042 A 
ATOM     29  C   UNL     1       3.405  -4.070   2.032  0.00  0.00    +0.041 A 
ATOM     30  C   UNL     1       2.311  -4.023   2.812  0.00  0.00    +0.195 A 
ATOM     31  O   UNL     1       2.055  -2.738   3.108  0.00  0.00    -0.470 OA
ENDBRANCH  26  27
ENDBRANCH  17  26
ENDBRANCH  16  17
ENDBRANCH   1  16
BRANCH  13  32
ATOM     32  C   UNL     1      -1.631   2.810  -7.723  0.00  0.00    +0.120 C 
BRANCH  32  33
ATOM     33  C   UNL     1      -3.101   2.986  -7.442  0.00  0.00    -0.033 A 
ATOM     34  C   UNL     1      -3.906   1.877  -7.257  0.00  0.00    +0.005 A 
ATOM     35  C   UNL     1      -5.255   2.039  -7.000  0.00  0.00    +0.000 A 
ATOM     36  C   UNL     1      -5.798   3.308  -6.927  0.00  0.00    +0.000 A 
ATOM     37  C   UNL     1      -4.992   4.416  -7.112  0.00  0.00    +0.000 A 
ATOM     38  C   UNL     1      -3.643   4.255  -7.365  0.00  0.00    +0.005 A 
ENDBRANCH  32  33
ENDBRANCH  13  32
TORSDOF 10
