REMARK  Name = ZINC23599411
REMARK  8 active torsions:
REMARK  status: ('A' for Active; 'I' for Inactive)
REMARK    1  A    between atoms: C_1  and  C_2
REMARK    2  A    between atoms: C_7  and  N_8
REMARK    3  A    between atoms: C_11  and  C_16
REMARK    4  A    between atoms: C_16  and  S_17
REMARK    5  A    between atoms: S_17  and  C_18
REMARK    6  A    between atoms: C_21  and  C_30
REMARK    7  A    between atoms: N_22  and  C_23
REMARK    8  A    between atoms: C_23  and  C_24
REMARK                            x       y       z     vdW  Elec       q    Type
REMARK                         _______ _______ _______ _____ _____    ______ ____
ROOT
ATOM      1  C   UNL     1      -1.701  -2.357   3.289  0.00  0.00    +0.153 C 
ENDROOT
BRANCH   1   5
ATOM      2  N   UNL     1      -2.364  -7.110   3.300  0.00  0.00    -0.283 N 
ATOM      3  C   UNL     1      -1.504  -6.032   3.213  0.00  0.00    +0.224 A 
ATOM      4  N   UNL     1      -1.979  -4.792   3.293  0.00  0.00    -0.198 NA
ATOM      5  C   UNL     1      -1.158  -3.761   3.204  0.00  0.00    +0.146 A 
ATOM      6  N   UNL     1       0.140  -3.957   3.045  0.00  0.00    -0.199 NA
ATOM      7  C   UNL     1       0.623  -5.194   2.969  0.00  0.00    +0.217 A 
ATOM      8  N   UNL     1      -0.201  -6.234   3.053  0.00  0.00    -0.181 NA
ATOM      9  N   UNL     1       1.978  -5.398   2.803  0.00  0.00    -0.327 N 
ATOM     10  H   UNL     1      -3.426  -6.948   3.540  0.00  0.00    +0.155 HD
ATOM     11  H   UNL     1       2.377  -6.421   2.741  0.00  0.00    +0.145 HD
ATOM     12  H   UNL     1       2.659  -4.537   2.734  0.00  0.00    +0.145 HD
BRANCH   2  19
ATOM     13  C   UNL     1      -3.887  -9.290   4.312  0.00  0.00    +0.045 C 
ATOM     14  C   UNL     1      -2.598  -9.499   3.560  0.00  0.00    -0.029 A 
ATOM     15  C   UNL     1      -2.123 -10.778   3.345  0.00  0.00    +0.005 A 
ATOM     16  C   UNL     1      -0.941 -10.970   2.654  0.00  0.00    +0.000 A 
ATOM     17  C   UNL     1      -0.230  -9.884   2.178  0.00  0.00    +0.002 A 
ATOM     18  C   UNL     1      -0.701  -8.603   2.386  0.00  0.00    +0.023 A 
ATOM     19  C   UNL     1      -1.886  -8.406   3.084  0.00  0.00    +0.036 A 
ENDBRANCH   2  19
ENDBRANCH   1   5
BRANCH   1  20
ATOM     20  S   UNL     1      -2.122  -1.771   1.630  0.00  0.00    -0.078 S 
BRANCH  20  21
ATOM     21  C   UNL     1      -2.713  -0.157   2.016  0.00  0.00    +0.193 A 
ATOM     22  N   UNL     1      -2.785   0.381   3.214  0.00  0.00    -0.122 NA
ATOM     23  N   UNL     1      -3.269   1.569   3.135  0.00  0.00    -0.128 NA
ATOM     24  C   UNL     1      -3.531   1.864   1.883  0.00  0.00    +0.165 A 
ATOM     25  N   UNL     1      -3.179   0.768   1.128  0.00  0.00    -0.298 N 
BRANCH  24  26
ATOM     26  C   UNL     1      -4.096   3.133   1.379  0.00  0.00    +0.022 A 
ATOM     27  C   UNL     1      -3.701   3.655   0.141  0.00  0.00    +0.031 A 
ATOM     28  C   UNL     1      -4.258   4.840  -0.292  0.00  0.00    +0.111 A 
ATOM     29  N   UNL     1      -5.142   5.484   0.446  0.00  0.00    -0.263 NA
ATOM     30  C   UNL     1      -5.538   5.030   1.620  0.00  0.00    +0.111 A 
ATOM     31  C   UNL     1      -5.037   3.850   2.129  0.00  0.00    +0.031 A 
ENDBRANCH  24  26
BRANCH  25  32
ATOM     32  C   UNL     1      -3.289   0.623  -0.326  0.00  0.00    +0.161 C 
BRANCH  32  33
ATOM     33  C   UNL     1      -4.705   0.254  -0.688  0.00  0.00    -0.028 A 
ATOM     34  C   UNL     1      -5.640   1.245  -0.919  0.00  0.00    +0.005 A 
ATOM     35  C   UNL     1      -6.937   0.906  -1.257  0.00  0.00    +0.000 A 
ATOM     36  C   UNL     1      -7.300  -0.424  -1.359  0.00  0.00    +0.000 A 
ATOM     37  C   UNL     1      -6.366  -1.415  -1.123  0.00  0.00    +0.000 A 
ATOM     38  C   UNL     1      -5.069  -1.076  -0.785  0.00  0.00    +0.005 A 
ENDBRANCH  32  33
ENDBRANCH  25  32
ENDBRANCH  20  21
ENDBRANCH   1  20
TORSDOF 7
