REMARK  Name = ZINC05007642
REMARK  7 active torsions:
REMARK  status: ('A' for Active; 'I' for Inactive)
REMARK    1  A    between atoms: C_1  and  O_2
REMARK    2  A    between atoms: O_2  and  C_3
REMARK    3  A    between atoms: C_3  and  C_5
REMARK    4  A    between atoms: C_5  and  O_6
REMARK    5  A    between atoms: O_6  and  C_7
REMARK    6  A    between atoms: C_10  and  C_13
REMARK    7  A    between atoms: N_19  and  C_20
REMARK                            x       y       z     vdW  Elec       q    Type
REMARK                         _______ _______ _______ _____ _____    ______ ____
ROOT
ATOM      1  C   UNL     1      -5.735   3.188   3.596  0.00  0.00    +0.028 C 
ATOM      2  C   UNL     1      -5.302   2.770   2.379  0.00  0.00    +0.078 C 
ATOM      3  C   UNL     1      -5.758   1.628   1.564  0.00  0.00    +0.256 C 
ATOM      4  O   UNL     1      -6.646   0.888   1.946  0.00  0.00    -0.269 OA
ATOM      5  N   UNL     1      -5.158   1.443   0.401  0.00  0.00    -0.260 N 
ATOM      6  C   UNL     1      -4.154   2.292  -0.014  0.00  0.00    +0.166 C 
ATOM      7  N   UNL     1      -3.460   2.252  -1.129  0.00  0.00    -0.226 NA
ATOM      8  S   UNL     1      -4.021   3.452   1.336  0.00  0.00    -0.049 S 
ATOM      9  H   UNL     1      -5.427   0.704  -0.167  0.00  0.00    +0.157 HD
ENDROOT
BRANCH   7  10
ATOM     10  C   UNL     1      -2.492   3.192  -1.366  0.00  0.00    +0.067 A 
ATOM     11  C   UNL     1      -1.245   2.804  -1.861  0.00  0.00    +0.030 A 
ATOM     12  C   UNL     1      -0.277   3.756  -2.104  0.00  0.00    +0.040 A 
ATOM     13  C   UNL     1      -0.537   5.093  -1.853  0.00  0.00    +0.124 A 
ATOM     14  C   UNL     1      -1.771   5.483  -1.357  0.00  0.00    +0.040 A 
ATOM     15  C   UNL     1      -2.747   4.541  -1.110  0.00  0.00    +0.030 A 
ATOM     16  F   UNL     1       0.415   6.021  -2.093  0.00  0.00    -0.205 F 
ENDBRANCH   7  10
BRANCH   1  20
ATOM     17  C   UNL     1      -3.673   6.282   5.634  0.00  0.00    +0.121 A 
ATOM     18  C   UNL     1      -4.965   5.942   6.017  0.00  0.00    +0.046 A 
ATOM     19  C   UNL     1      -5.640   4.939   5.358  0.00  0.00    +0.011 A 
ATOM     20  C   UNL     1      -5.021   4.259   4.301  0.00  0.00    -0.024 A 
ATOM     21  C   UNL     1      -3.717   4.602   3.924  0.00  0.00    +0.011 A 
ATOM     22  C   UNL     1      -3.054   5.611   4.585  0.00  0.00    +0.046 A 
BRANCH  17  23
ATOM     23  O   UNL     1      -3.013   7.272   6.287  0.00  0.00    -0.481 OA
BRANCH  23  24
ATOM     24  C   UNL     1      -1.687   7.571   5.843  0.00  0.00    +0.349 C 
BRANCH  24  25
ATOM     25  C   UNL     1      -1.117   8.688   6.678  0.00  0.00    +0.345 C 
ATOM     26  O   UNL     1      -1.778   9.178   7.563  0.00  0.00    -0.247 OA
BRANCH  25  28
ATOM     27  C   UNL     1       0.608  10.216   7.283  0.00  0.00    +0.280 C 
ATOM     28  O   UNL     1       0.124   9.138   6.439  0.00  0.00    -0.466 OA
ENDBRANCH  25  28
ENDBRANCH  24  25
ENDBRANCH  23  24
ENDBRANCH  17  23
ENDBRANCH   1  20
TORSDOF 6
