REMARK  Name = ZINC17281656
REMARK  7 active torsions:
REMARK  status: ('A' for Active; 'I' for Inactive)
REMARK    1  A    between atoms: C_1  and  C_2
REMARK    2  A    between atoms: C_2  and  C_4
REMARK    3  A    between atoms: C_2  and  N_14
REMARK    4  A    between atoms: N_14  and  C_15
REMARK    5  A    between atoms: C_18  and  N_30
REMARK    6  A    between atoms: C_20  and  S_21
REMARK    7  A    between atoms: S_21  and  N_24
REMARK                            x       y       z     vdW  Elec       q    Type
REMARK                         _______ _______ _______ _____ _____    ______ ____
ROOT
ATOM      1  C   UNL     1      -1.897  -0.835  -1.066  0.00  0.00    +0.054 A 
ATOM      2  C   UNL     1      -1.164  -0.598  -2.222  0.00  0.00    +0.027 A 
ATOM      3  C   UNL     1      -1.662  -0.995  -3.447  0.00  0.00    +0.034 A 
ATOM      4  C   UNL     1      -2.889  -1.628  -3.525  0.00  0.00    +0.128 A 
ATOM      5  C   UNL     1      -3.622  -1.865  -2.376  0.00  0.00    +0.063 A 
ATOM      6  C   UNL     1      -3.127  -1.476  -1.147  0.00  0.00    +0.128 A 
ENDROOT
BRANCH   6   7
ATOM      7  S   UNL     1      -4.058  -1.785   0.317  0.00  0.00    +0.063 S 
ATOM      8  O   UNL     1      -3.187  -2.457   1.217  0.00  0.00    -0.153 OA
ATOM      9  O   UNL     1      -4.706  -0.566   0.651  0.00  0.00    -0.153 OA
BRANCH   7  10
ATOM     10  N   UNL     1      -5.251  -2.862  -0.080  0.00  0.00    -0.172 NA
ATOM     11  C   UNL     1      -6.606  -2.400  -0.422  0.00  0.00    +0.137 C 
ATOM     12  C   UNL     1      -7.020  -3.054  -1.745  0.00  0.00    +0.177 C 
ATOM     13  O   UNL     1      -6.837  -4.468  -1.649  0.00  0.00    -0.377 OA
ATOM     14  C   UNL     1      -5.481  -4.870  -1.441  0.00  0.00    +0.177 C 
ATOM     15  C   UNL     1      -4.987  -4.309  -0.108  0.00  0.00    +0.137 C 
ENDBRANCH   7  10
ENDBRANCH   6   7
BRANCH   4  16
ATOM     16  N   UNL     1      -3.420  -2.052  -4.840  0.00  0.00    +0.056 N 
ATOM     17  O   UNL     1      -2.781  -1.845  -5.845  0.00  0.00    -0.126 OA
ATOM     18  O   UNL     1      -4.493  -2.605  -4.909  0.00  0.00    -0.126 OA
ENDBRANCH   4  16
BRANCH   1  19
ATOM     19  N   UNL     1      -1.396  -0.435   0.175  0.00  0.00    -0.336 N 
ATOM     20  H   UNL     1      -1.944  -0.524   0.970  0.00  0.00    +0.147 HD
BRANCH  19  22
ATOM     21  C   UNL     1      -0.082   1.617  -0.028  0.00  0.00    +0.033 C 
ATOM     22  C   UNL     1      -0.043   0.118   0.275  0.00  0.00    +0.098 C 
BRANCH  22  23
ATOM     23  C   UNL     1       0.487  -0.099   1.669  0.00  0.00    -0.027 A 
ATOM     24  C   UNL     1      -0.347   0.058   2.760  0.00  0.00    +0.006 A 
ATOM     25  C   UNL     1       0.146  -0.140   4.033  0.00  0.00    +0.004 A 
ATOM     26  C   UNL     1       1.474  -0.497   4.228  0.00  0.00    -0.044 A 
ATOM     27  C   UNL     1       2.303  -0.659   3.141  0.00  0.00    -0.044 A 
ATOM     28  C   UNL     1       1.804  -0.462   1.859  0.00  0.00    +0.009 A 
ATOM     29  C   UNL     1       3.748  -1.062   3.276  0.00  0.00    +0.035 C 
ATOM     30  C   UNL     1       4.240  -0.825   4.702  0.00  0.00    +0.005 C 
ATOM     31  C   UNL     1       3.252  -1.485   5.671  0.00  0.00    +0.005 C 
ATOM     32  C   UNL     1       1.948  -0.690   5.644  0.00  0.00    +0.035 C 
ENDBRANCH  22  23
ENDBRANCH  19  22
ENDBRANCH   1  19
TORSDOF 6
