REMARK  Name = ZINC20907936
REMARK  9 active torsions:
REMARK  status: ('A' for Active; 'I' for Inactive)
REMARK    1  A    between atoms: C_1  and  C_2
REMARK    2  A    between atoms: C_2  and  C_9
REMARK    3  A    between atoms: C_3  and  C_4
REMARK    4  A    between atoms: C_9  and  N_10
REMARK    5  A    between atoms: C_13  and  C_16
REMARK    6  A    between atoms: C_16  and  C_30
REMARK    7  A    between atoms: N_19  and  C_23
REMARK    8  A    between atoms: C_23  and  C_24
REMARK    9  A    between atoms: C_30  and  C_31
REMARK                            x       y       z     vdW  Elec       q    Type
REMARK                         _______ _______ _______ _____ _____    ______ ____
ROOT
ATOM      1  C   UNL     1       2.425  -2.506  -0.927  0.00  0.00    +0.119 C 
ATOM      2  C   UNL     1       3.664  -2.281  -1.771  0.00  0.00    +0.247 C 
ATOM      3  O   UNL     1       4.748  -2.806  -1.635  0.00  0.00    -0.273 OA
ATOM      4  N   UNL     1       3.309  -1.377  -2.705  0.00  0.00    -0.220 N 
ATOM      5  C   UNL     1       2.031  -1.003  -2.570  0.00  0.00    +0.310 C 
ATOM      6  O   UNL     1       1.482  -0.197  -3.296  0.00  0.00    -0.252 OA
ATOM      7  N   UNL     1       1.422  -1.620  -1.541  0.00  0.00    -0.284 N 
ATOM      8  H   UNL     1       0.403  -1.573  -1.129  0.00  0.00    +0.151 HD
ENDROOT
BRANCH   1  12
ATOM      9  N   UNL     1       2.486  -6.673  -1.879  0.00  0.00    +0.382 N 
ATOM     10  C   UNL     1       1.461  -5.862  -2.548  0.00  0.00    -0.078 C 
ATOM     11  C   UNL     1       1.849  -4.384  -2.475  0.00  0.00    -0.013 C 
ATOM     12  C   UNL     1       1.977  -3.967  -1.007  0.00  0.00    +0.018 C 
ATOM     13  C   UNL     1       3.015  -4.859  -0.319  0.00  0.00    -0.013 C 
ATOM     14  C   UNL     1       2.594  -6.324  -0.456  0.00  0.00    -0.078 C 
ATOM     15  H   UNL     1       3.453  -6.450  -2.353  0.00  0.00    -0.081 HD
BRANCH   9  16
ATOM     16  C   UNL     1       2.217  -8.107  -2.049  0.00  0.00    -0.048 C 
BRANCH  16  18
ATOM     17  C   UNL     1       4.524  -9.252  -1.622  0.00  0.00    +0.037 C 
ATOM     18  C   UNL     1       3.135  -8.900  -1.155  0.00  0.00    -0.086 C 
ATOM     19  C   UNL     1       2.720  -9.289   0.047  0.00  0.00    +0.043 C 
BRANCH  19  20
ATOM     20  C   UNL     1       3.659  -9.935   0.976  0.00  0.00    +0.128 A 
ATOM     21  C   UNL     1       3.341 -10.481   2.183  0.00  0.00    +0.049 A 
ATOM     22  C   UNL     1       4.538 -10.985   2.728  0.00  0.00    +0.042 A 
ATOM     23  C   UNL     1       5.519 -10.719   1.841  0.00  0.00    +0.195 A 
ATOM     24  O   UNL     1       4.984 -10.085   0.785  0.00  0.00    -0.464 OA
ENDBRANCH  19  20
ENDBRANCH  16  18
ENDBRANCH   9  16
ENDBRANCH   1  12
BRANCH   4  25
ATOM     25  C   UNL     1       4.210  -0.865  -3.740  0.00  0.00    +0.154 C 
BRANCH  25  26
ATOM     26  C   UNL     1       4.121  -1.742  -4.963  0.00  0.00    -0.011 A 
ATOM     27  C   UNL     1       4.964  -2.834  -5.107  0.00  0.00    +0.008 A 
ATOM     28  C   UNL     1       4.843  -3.615  -6.245  0.00  0.00    +0.020 A 
ATOM     29  C   UNL     1       3.900  -3.276  -7.198  0.00  0.00    +0.111 A 
ATOM     30  N   UNL     1       3.119  -2.228  -7.029  0.00  0.00    -0.263 NA
ATOM     31  C   UNL     1       3.202  -1.465  -5.957  0.00  0.00    +0.116 A 
ENDBRANCH  25  26
ENDBRANCH   4  25
BRANCH   1  32
ATOM     32  C   UNL     1       2.683  -2.103   0.526  0.00  0.00    +0.070 C 
BRANCH  32  33
ATOM     33  C   UNL     1       2.951  -0.621   0.596  0.00  0.00    -0.045 A 
ATOM     34  C   UNL     1       1.903   0.262   0.779  0.00  0.00    +0.004 A 
ATOM     35  C   UNL     1       2.149   1.621   0.844  0.00  0.00    +0.000 A 
ATOM     36  C   UNL     1       3.442   2.096   0.726  0.00  0.00    +0.000 A 
ATOM     37  C   UNL     1       4.489   1.212   0.541  0.00  0.00    +0.000 A 
ATOM     38  C   UNL     1       4.243  -0.146   0.477  0.00  0.00    +0.004 A 
ENDBRANCH  32  33
ENDBRANCH   1  32
TORSDOF 8
