REMARK  Name = ZINC04758797
REMARK  6 active torsions:
REMARK  status: ('A' for Active; 'I' for Inactive)
REMARK    1  A    between atoms: C_4  and  N_7
REMARK    2  A    between atoms: C_8  and  C_26
REMARK    3  A    between atoms: C_11  and  S_12
REMARK    4  A    between atoms: S_12  and  C_13
REMARK    5  A    between atoms: C_13  and  C_14
REMARK    6  A    between atoms: C_14  and  C_16
REMARK                            x       y       z     vdW  Elec       q    Type
REMARK                         _______ _______ _______ _____ _____    ______ ____
ROOT
ATOM      1  N   UNL     1       1.237  -2.082  -0.021  0.00  0.00    -0.268 N 
ATOM      2  C   UNL     1       1.704  -2.904  -1.025  0.00  0.00    +0.205 A 
ATOM      3  N   UNL     1       1.536  -4.143  -0.617  0.00  0.00    -0.125 NA
ATOM      4  N   UNL     1       1.004  -4.152   0.553  0.00  0.00    -0.122 NA
ATOM      5  C   UNL     1       0.804  -2.922   0.970  0.00  0.00    +0.197 A 
ENDROOT
BRANCH   1   9
ATOM      6  C   UNL     1       1.171   2.086   0.002  0.00  0.00    +0.000 A 
ATOM      7  C   UNL     1      -0.017   1.377   0.010  0.00  0.00    +0.002 A 
ATOM      8  C   UNL     1       0.002  -0.004   0.002  0.00  0.00    +0.026 A 
ATOM      9  C   UNL     1       1.214  -0.680  -0.013  0.00  0.00    +0.051 A 
ATOM     10  C   UNL     1       2.405   0.034  -0.021  0.00  0.00    +0.026 A 
ATOM     11  C   UNL     1       2.380   1.415  -0.013  0.00  0.00    +0.002 A 
ENDBRANCH   1   9
BRANCH   2  12
ATOM     12  C   UNL     1       2.283  -2.476  -2.308  0.00  0.00    +0.172 A 
ATOM     13  C   UNL     1       3.001  -3.258  -3.162  0.00  0.00    +0.053 A 
ATOM     14  C   UNL     1       3.352  -2.445  -4.258  0.00  0.00    +0.042 A 
ATOM     15  C   UNL     1       2.845  -1.219  -4.019  0.00  0.00    +0.196 A 
ATOM     16  O   UNL     1       2.200  -1.241  -2.841  0.00  0.00    -0.460 OA
ENDBRANCH   2  12
BRANCH   5  17
ATOM     17  S   UNL     1       0.106  -2.444   2.515  0.00  0.00    -0.078 S 
BRANCH  17  18
ATOM     18  C   UNL     1      -0.198  -4.074   3.241  0.00  0.00    +0.157 C 
BRANCH  18  19
ATOM     19  C   UNL     1      -0.812  -3.909   4.608  0.00  0.00    +0.175 C 
ATOM     20  O   UNL     1      -1.024  -2.797   5.048  0.00  0.00    -0.291 OA
BRANCH  19  21
ATOM     21  C   UNL     1      -1.142  -5.051   5.379  0.00  0.00    +0.043 A 
ATOM     22  C   UNL     1      -0.970  -6.371   5.020  0.00  0.00    +0.095 A 
ATOM     23  N   UNL     1      -1.399  -7.170   6.015  0.00  0.00    -0.360 N 
ATOM     24  H   UNL     1      -1.376  -8.140   5.992  0.00  0.00    +0.165 HD
ATOM     25  C   UNL     1      -1.881  -6.421   7.069  0.00  0.00    +0.047 A 
ATOM     26  C   UNL     1      -1.745  -5.067   6.726  0.00  0.00    +0.010 A 
ATOM     27  C   UNL     1      -2.155  -4.077   7.614  0.00  0.00    +0.011 A 
ATOM     28  C   UNL     1      -2.695  -4.432   8.831  0.00  0.00    +0.001 A 
ATOM     29  C   UNL     1      -2.831  -5.769   9.172  0.00  0.00    +0.002 A 
ATOM     30  C   UNL     1      -2.428  -6.760   8.302  0.00  0.00    +0.026 A 
ENDBRANCH  19  21
ENDBRANCH  18  19
ENDBRANCH  17  18
ENDBRANCH   5  17
TORSDOF 6
