REMARK  Name = ZINC21865872
REMARK  8 active torsions:
REMARK  status: ('A' for Active; 'I' for Inactive)
REMARK    1  A    between atoms: C_1  and  C_2
REMARK    2  A    between atoms: N_4  and  C_5
REMARK    3  A    between atoms: C_8  and  N_11
REMARK    4  A    between atoms: C_17  and  C_33
REMARK    5  A    between atoms: C_20  and  C_21
REMARK    6  A    between atoms: C_20  and  C_22
REMARK    7  A    between atoms: N_24  and  C_25
REMARK    8  A    between atoms: C_25  and  C_26
REMARK                            x       y       z     vdW  Elec       q    Type
REMARK                         _______ _______ _______ _____ _____    ______ ____
ROOT
ATOM      1  N   UNL     1      -1.886   1.423   1.147  0.00  0.00    -0.250 N 
ATOM      2  C   UNL     1      -2.271   2.237   0.136  0.00  0.00    +0.268 C 
ATOM      3  O   UNL     1      -3.257   2.946   0.223  0.00  0.00    -0.268 OA
ATOM      4  C   UNL     1      -1.438   2.218  -1.070  0.00  0.00    +0.106 A 
ATOM      5  C   UNL     1      -1.439   3.032  -2.169  0.00  0.00    +0.033 A 
ATOM      6  C   UNL     1      -0.423   2.587  -3.017  0.00  0.00    +0.032 A 
ATOM      7  C   UNL     1       0.184   1.496  -2.414  0.00  0.00    +0.085 A 
ATOM      8  N   UNL     1      -0.438   1.265  -1.232  0.00  0.00    -0.331 N 
ATOM      9  C   UNL     1      -0.196   0.226  -0.226  0.00  0.00    +0.158 C 
ATOM     10  C   UNL     1      -0.586   0.759   1.152  0.00  0.00    +0.133 C 
ATOM     11  C   UNL     1       0.478   1.757   1.615  0.00  0.00    +0.044 C 
ENDROOT
BRANCH   1  15
ATOM     12  C   UNL     1      -4.488   0.796   4.343  0.00  0.00    +0.033 A 
ATOM     13  C   UNL     1      -4.872   0.445   3.056  0.00  0.00    +0.025 A 
ATOM     14  C   UNL     1      -4.011   0.653   1.998  0.00  0.00    +0.025 A 
ATOM     15  C   UNL     1      -2.759   1.213   2.220  0.00  0.00    +0.038 A 
ATOM     16  C   UNL     1      -2.373   1.559   3.509  0.00  0.00    +0.025 A 
ATOM     17  C   UNL     1      -3.237   1.356   4.566  0.00  0.00    +0.025 A 
BRANCH  12  21
ATOM     18  C   UNL     1      -6.175   1.115   7.693  0.00  0.00    +0.109 C 
ATOM     19  C   UNL     1      -5.356   1.430   6.468  0.00  0.00    +0.214 C 
ATOM     20  O   UNL     1      -4.690   2.443   6.427  0.00  0.00    -0.276 OA
ATOM     21  N   UNL     1      -5.362   0.585   5.417  0.00  0.00    -0.286 N 
ATOM     22  H   UNL     1      -6.054  -0.270   5.404  0.00  0.00    +0.155 HD
ENDBRANCH  12  21
ENDBRANCH   1  15
BRANCH   7  23
ATOM     23  C   UNL     1       1.308   0.725  -2.961  0.00  0.00    +0.151 A 
ATOM     24  C   UNL     1       1.994   1.010  -4.106  0.00  0.00    +0.051 A 
ATOM     25  C   UNL     1       2.981   0.017  -4.244  0.00  0.00    +0.042 A 
ATOM     26  C   UNL     1       2.849  -0.822  -3.196  0.00  0.00    +0.196 A 
ATOM     27  O   UNL     1       1.839  -0.392  -2.424  0.00  0.00    -0.461 OA
ENDBRANCH   7  23
BRANCH  10  28
ATOM     28  C   UNL     1      -0.628  -0.391   2.125  0.00  0.00    +0.239 C 
ATOM     29  O   UNL     1       0.286  -0.559   2.905  0.00  0.00    -0.273 OA
ATOM     30  N   UNL     1      -1.681  -1.232   2.129  0.00  0.00    -0.309 N 
ATOM     31  H   UNL     1      -2.468  -1.131   1.369  0.00  0.00    +0.149 HD
BRANCH  30  32
ATOM     32  C   UNL     1      -1.776  -2.281   3.147  0.00  0.00    +0.139 C 
BRANCH  32  33
ATOM     33  C   UNL     1      -2.955  -3.169   2.845  0.00  0.00    -0.030 A 
ATOM     34  C   UNL     1      -4.209  -2.839   3.322  0.00  0.00    +0.006 A 
ATOM     35  C   UNL     1      -5.293  -3.650   3.041  0.00  0.00    +0.020 A 
ATOM     36  C   UNL     1      -5.119  -4.799   2.289  0.00  0.00    +0.041 A 
ATOM     37  C   UNL     1      -3.862  -5.132   1.816  0.00  0.00    +0.020 A 
ATOM     38  C   UNL     1      -2.781  -4.317   2.094  0.00  0.00    +0.006 A 
ATOM     39 CL   UNL     1      -6.478  -5.822   1.941  0.00  0.00    -0.084 Cl
ENDBRANCH  32  33
ENDBRANCH  30  32
ENDBRANCH  10  28
TORSDOF 6
