REMARK  Name = ZINC16256142
REMARK  5 active torsions:
REMARK  status: ('A' for Active; 'I' for Inactive)
REMARK    1  A    between atoms: C_1  and  C_2
REMARK    2  A    between atoms: C_15  and  C_17
REMARK    3  A    between atoms: C_17  and  N_18
REMARK    4  A    between atoms: C_21  and  C_25
REMARK    5  A    between atoms: C_21  and  C_26
REMARK                            x       y       z     vdW  Elec       q    Type
REMARK                         _______ _______ _______ _____ _____    ______ ____
ROOT
ATOM      1  C   UNL     1      -1.330   1.944   0.019  0.00  0.00    +0.214 C 
ENDROOT
BRANCH   1  15
ATOM      2  C   UNL     1       3.013   1.227  -1.422  0.00  0.00    +0.029 C 
ATOM      3  C   UNL     1       2.429   1.198  -0.009  0.00  0.00    +0.087 C 
ATOM      4  C   UNL     1       3.402   1.876   0.952  0.00  0.00    +0.118 C 
ATOM      5  C   UNL     1       2.703   2.206   2.244  0.00  0.00    +0.219 C 
ATOM      6  O   UNL     1       2.908   1.529   3.229  0.00  0.00    -0.275 OA
ATOM      7  N   UNL     1       1.849   3.250   2.312  0.00  0.00    -0.284 N 
ATOM      8  C   UNL     1       1.529   3.982   1.163  0.00  0.00    +0.055 A 
ATOM      9  C   UNL     1       1.563   5.366   1.169  0.00  0.00    +0.025 A 
ATOM     10  C   UNL     1       1.190   6.069   0.038  0.00  0.00    +0.002 A 
ATOM     11  C   UNL     1       0.784   5.394  -1.099  0.00  0.00    +0.002 A 
ATOM     12  C   UNL     1       0.759   4.011  -1.117  0.00  0.00    +0.025 A 
ATOM     13  C   UNL     1       1.140   3.300   0.009  0.00  0.00    +0.058 A 
ATOM     14  N   UNL     1       1.143   1.898   0.001  0.00  0.00    -0.265 N 
ATOM     15  C   UNL     1      -0.014   1.209   0.009  0.00  0.00    +0.238 C 
ATOM     16  O   UNL     1       0.002  -0.004   0.002  0.00  0.00    -0.273 OA
ATOM     17  H   UNL     1       1.456   3.495   3.164  0.00  0.00    +0.155 HD
ENDBRANCH   1  15
BRANCH   1  18
ATOM     18  N   UNL     1      -2.430   0.977   0.019  0.00  0.00    -0.215 N 
ATOM     19  C   UNL     1      -2.994   0.472   1.134  0.00  0.00    +0.251 C 
ATOM     20  O   UNL     1      -2.696   0.721   2.282  0.00  0.00    -0.272 OA
ATOM     21  C   UNL     1      -4.076  -0.474   0.653  0.00  0.00    +0.135 C 
ATOM     22  N   UNL     1      -3.989  -0.383  -0.815  0.00  0.00    -0.281 N 
ATOM     23  C   UNL     1      -3.004   0.492  -1.088  0.00  0.00    +0.310 C 
ATOM     24  O   UNL     1      -2.670   0.803  -2.214  0.00  0.00    -0.252 OA
ATOM     25  C   UNL     1      -3.791  -1.902   1.121  0.00  0.00    +0.047 C 
ATOM     26  H   UNL     1      -4.538  -0.857  -1.459  0.00  0.00    +0.152 HD
BRANCH  21  27
ATOM     27  C   UNL     1      -5.430  -0.018   1.133  0.00  0.00    -0.014 A 
ATOM     28  C   UNL     1      -5.544   0.667   2.328  0.00  0.00    +0.008 A 
ATOM     29  C   UNL     1      -6.785   1.091   2.767  0.00  0.00    +0.022 A 
ATOM     30  C   UNL     1      -7.914   0.820   2.015  0.00  0.00    +0.059 A 
ATOM     31  C   UNL     1      -7.800   0.128   0.821  0.00  0.00    +0.060 A 
ATOM     32  C   UNL     1      -6.557  -0.290   0.381  0.00  0.00    +0.027 A 
ATOM     33 CL   UNL     1      -9.216  -0.213  -0.123  0.00  0.00    -0.082 Cl
ATOM     34 CL   UNL     1      -9.473   1.346   2.569  0.00  0.00    -0.082 Cl
ENDBRANCH  21  27
ENDBRANCH   1  18
TORSDOF 3
