REMARK  Name = ZINC08970339
REMARK  8 active torsions:
REMARK  status: ('A' for Active; 'I' for Inactive)
REMARK    1  A    between atoms: N_9  and  C_12
REMARK    2  A    between atoms: C_12  and  C_13
REMARK    3  A    between atoms: C_13  and  C_14
REMARK    4  A    between atoms: N_16  and  C_17
REMARK    5  A    between atoms: C_17  and  C_18
REMARK    6  A    between atoms: C_18  and  C_20
REMARK    7  A    between atoms: C_18  and  S_27
REMARK    8  A    between atoms: S_27  and  C_30
REMARK                            x       y       z     vdW  Elec       q    Type
REMARK                         _______ _______ _______ _____ _____    ______ ____
ROOT
ATOM      1  C   UNL     1      -2.997   4.533   2.301  0.00  0.00    +0.215 C 
ATOM      2  O   UNL     1      -2.207   4.690   3.208  0.00  0.00    -0.276 OA
ATOM      3  N   UNL     1      -2.698   3.700   1.284  0.00  0.00    -0.313 N 
ATOM      4  H   UNL     1      -3.330   3.574   0.559  0.00  0.00    +0.149 HD
ENDROOT
BRANCH   1   5
ATOM      5  C   UNL     1      -4.312   5.268   2.311  0.00  0.00    +0.115 C 
BRANCH   5   6
ATOM      6  C   UNL     1      -4.399   6.140   3.566  0.00  0.00    +0.126 C 
BRANCH   6  15
ATOM      7  C   UNL     1      -9.965   8.566   3.953  0.00  0.00    +0.001 A 
ATOM      8  C   UNL     1      -9.384   9.615   3.265  0.00  0.00    +0.001 A 
ATOM      9  C   UNL     1      -8.046   9.565   2.907  0.00  0.00    +0.014 A 
ATOM     10  C   UNL     1      -7.287   8.455   3.241  0.00  0.00    +0.049 A 
ATOM     11  C   UNL     1      -7.879   7.386   3.942  0.00  0.00    +0.049 A 
ATOM     12  C   UNL     1      -9.218   7.450   4.294  0.00  0.00    +0.014 A 
ATOM     13  C   UNL     1      -6.808   6.385   4.133  0.00  0.00    +0.254 C 
ATOM     14  O   UNL     1      -6.929   5.317   4.699  0.00  0.00    -0.270 OA
ATOM     15  N   UNL     1      -5.678   6.855   3.576  0.00  0.00    -0.234 N 
ATOM     16  C   UNL     1      -5.875   8.070   3.034  0.00  0.00    +0.254 C 
ATOM     17  O   UNL     1      -5.034   8.738   2.467  0.00  0.00    -0.270 OA
ENDBRANCH   6  15
ENDBRANCH   5   6
ENDBRANCH   1   5
BRANCH   3  18
ATOM     18  C   UNL     1      -1.419   2.985   1.274  0.00  0.00    +0.135 C 
BRANCH  18  19
ATOM     19  C   UNL     1      -1.332   2.114   0.020  0.00  0.00    +0.183 C 
BRANCH  19  20
ATOM     20  C   UNL     1      -0.017   1.378   0.010  0.00  0.00    -0.021 A 
ATOM     21  C   UNL     1       1.171   2.086   0.002  0.00  0.00    +0.007 A 
ATOM     22  C   UNL     1       2.377   1.412  -0.013  0.00  0.00    +0.020 A 
ATOM     23  C   UNL     1       2.397   0.029  -0.021  0.00  0.00    +0.041 A 
ATOM     24  C   UNL     1       1.208  -0.679  -0.013  0.00  0.00    +0.020 A 
ATOM     25  C   UNL     1       0.002  -0.004   0.002  0.00  0.00    +0.007 A 
ATOM     26 CL   UNL     1       3.912  -0.818  -0.039  0.00  0.00    -0.084 Cl
ENDBRANCH  19  20
BRANCH  19  27
ATOM     27  S   UNL     1      -1.450   3.163  -1.455  0.00  0.00    +0.011 S 
ATOM     28  O   UNL     1      -1.192   2.396  -2.623  0.00  0.00    -0.168 OA
ATOM     29  O   UNL     1      -2.598   3.995  -1.373  0.00  0.00    -0.168 OA
BRANCH  27  30
ATOM     30  C   UNL     1      -0.083   4.269  -1.334  0.00  0.00    +0.126 A 
ATOM     31  C   UNL     1       1.178   4.123  -1.808  0.00  0.00    +0.035 A 
ATOM     32  C   UNL     1       2.096   5.134  -1.593  0.00  0.00    +0.009 A 
ATOM     33  C   UNL     1       1.708   6.241  -0.914  0.00  0.00    +0.047 A 
ATOM     34  S   UNL     1      -0.004   5.877  -0.561  0.00  0.00    -0.078 S 
ENDBRANCH  27  30
ENDBRANCH  19  27
ENDBRANCH  18  19
ENDBRANCH   3  18
TORSDOF 8
