REMARK  Name = ZINC21879888
REMARK  9 active torsions:
REMARK  status: ('A' for Active; 'I' for Inactive)
REMARK    1  A    between atoms: C_1  and  C_2
REMARK    2  A    between atoms: C_4  and  C_27
REMARK    3  A    between atoms: C_5  and  N_9
REMARK    4  A    between atoms: C_10  and  C_12
REMARK    5  A    between atoms: C_12  and  C_14
REMARK    6  A    between atoms: C_12  and  S_15
REMARK    7  A    between atoms: S_15  and  C_16
REMARK    8  A    between atoms: C_19  and  C_22
REMARK    9  A    between atoms: N_20  and  N_21
REMARK                            x       y       z     vdW  Elec       q    Type
REMARK                         _______ _______ _______ _____ _____    ______ ____
ROOT
ATOM      1  C   UNL     1       0.436   0.197  -4.835  0.00  0.00    +0.137 C 
ATOM      2  C   UNL     1       1.791   0.904  -4.917  0.00  0.00    +0.029 C 
ENDROOT
BRANCH   1   4
ATOM      3  N   UNL     1      -0.033   0.012  -2.413  0.00  0.00    -0.283 N 
ATOM      4  C   UNL     1       0.358  -0.592  -3.553  0.00  0.00    +0.230 C 
ATOM      5  O   UNL     1       0.647  -1.770  -3.548  0.00  0.00    -0.274 OA
ATOM      6  H   UNL     1      -0.374   1.057  -2.433  0.00  0.00    +0.155 HD
BRANCH   3  11
ATOM      7  C   UNL     1       0.082  -2.853   2.483  0.00  0.00    +0.044 C 
ATOM      8  C   UNL     1       0.051  -2.090   1.185  0.00  0.00    -0.049 A 
ATOM      9  C   UNL     1      -1.108  -2.057   0.431  0.00  0.00    +0.008 A 
ATOM     10  C   UNL     1      -1.140  -1.358  -0.760  0.00  0.00    -0.028 A 
ATOM     11  C   UNL     1      -0.005  -0.692  -1.204  0.00  0.00    +0.055 A 
ATOM     12  C   UNL     1       1.156  -0.721  -0.441  0.00  0.00    +0.063 A 
ATOM     13  C   UNL     1       1.181  -1.423   0.749  0.00  0.00    +0.025 A 
ATOM     14 CL   UNL     1       2.575   0.117  -0.987  0.00  0.00    -0.082 Cl
ATOM     15  C   UNL     1      -2.404  -1.324  -1.580  0.00  0.00    +0.046 C 
ENDBRANCH   3  11
ENDBRANCH   1   4
BRANCH   1  16
ATOM     16  S   UNL     1       0.254  -0.923  -6.245  0.00  0.00    -0.072 S 
BRANCH  16  17
ATOM     17  C   UNL     1       0.230   0.246  -7.563  0.00  0.00    +0.209 A 
ATOM     18  N   UNL     1       0.320   1.552  -7.448  0.00  0.00    -0.120 NA
ATOM     19  N   UNL     1       0.272   2.103  -8.608  0.00  0.00    -0.123 NA
ATOM     20  C   UNL     1       0.140   1.182  -9.537  0.00  0.00    +0.217 A 
ATOM     21  N   UNL     1       0.109  -0.037  -8.895  0.00  0.00    -0.221 N 
BRANCH  20  22
ATOM     22  C   UNL     1       0.043   1.409 -10.987  0.00  0.00    +0.173 A 
ATOM     23  C   UNL     1      -0.217   2.601 -11.595  0.00  0.00    +0.053 A 
ATOM     24  C   UNL     1      -0.214   2.357 -12.982  0.00  0.00    +0.042 A 
ATOM     25  C   UNL     1       0.037   1.044 -13.153  0.00  0.00    +0.196 A 
ATOM     26  O   UNL     1       0.191   0.474 -11.947  0.00  0.00    -0.460 OA
ENDBRANCH  20  22
BRANCH  21  27
ATOM     27  N   UNL     1      -0.016  -1.270  -9.469  0.00  0.00    -0.294 N 
ATOM     28  H   UNL     1      -0.106  -1.361 -10.562  0.00  0.00    +0.163 HD
ATOM     29  H   UNL     1      -0.027  -2.171  -8.839  0.00  0.00    +0.163 HD
ENDBRANCH  21  27
ENDBRANCH  16  17
ENDBRANCH   1  16
TORSDOF 6
