REMARK  Name = ZINC15230009
REMARK  9 active torsions:
REMARK  status: ('A' for Active; 'I' for Inactive)
REMARK    1  A    between atoms: C_3  and  C_6
REMARK    2  A    between atoms: C_9  and  S_18
REMARK    3  A    between atoms: N_10  and  C_11
REMARK    4  A    between atoms: C_11  and  C_12
REMARK    5  A    between atoms: S_18  and  C_19
REMARK    6  A    between atoms: C_19  and  C_20
REMARK    7  A    between atoms: N_22  and  C_23
REMARK    8  A    between atoms: C_26  and  S_29
REMARK    9  A    between atoms: S_29  and  N_32
REMARK                            x       y       z     vdW  Elec       q    Type
REMARK                         _______ _______ _______ _____ _____    ______ ____
ROOT
ATOM      1  S   UNL     1      -2.930   6.201   7.273  0.00  0.00    -0.077 S 
ENDROOT
BRANCH   1   5
ATOM      2  C   UNL     1      -4.757   7.115  10.606  0.00  0.00    +0.172 A 
ATOM      3  N   UNL     1      -5.258   5.934  10.315  0.00  0.00    -0.128 NA
ATOM      4  N   UNL     1      -4.742   5.497   9.222  0.00  0.00    -0.122 NA
ATOM      5  C   UNL     1      -3.881   6.368   8.747  0.00  0.00    +0.192 A 
ATOM      6  N   UNL     1      -3.855   7.426   9.613  0.00  0.00    -0.299 N 
BRANCH   2   9
ATOM      7  C   UNL     1      -5.951   8.548  13.894  0.00  0.00    +0.008 A 
ATOM      8  C   UNL     1      -5.754   7.591  12.924  0.00  0.00    +0.019 A 
ATOM      9  C   UNL     1      -5.093   7.944  11.775  0.00  0.00    +0.056 A 
ATOM     10  S   UNL     1      -4.753   9.673  12.063  0.00  0.00    -0.094 S 
ATOM     11  C   UNL     1      -5.498   9.810  13.680  0.00  0.00    +0.046 A 
ENDBRANCH   2   9
BRANCH   6  12
ATOM     12  C   UNL     1      -3.040   8.639   9.505  0.00  0.00    +0.157 C 
BRANCH  12  13
ATOM     13  C   UNL     1      -3.809   9.701   8.717  0.00  0.00    +0.138 C 
ATOM     14  C   UNL     1      -2.913  10.938   8.494  0.00  0.00    +0.035 C 
ATOM     15  C   UNL     1      -3.917  12.110   8.685  0.00  0.00    +0.031 C 
ATOM     16  C   UNL     1      -4.851  11.523   9.773  0.00  0.00    +0.160 C 
ATOM     17  O   UNL     1      -4.956  10.124   9.463  0.00  0.00    -0.375 OA
ENDBRANCH  12  13
ENDBRANCH   6  12
ENDBRANCH   1   5
BRANCH   1  18
ATOM     18  C   UNL     1      -3.504   4.578   6.712  0.00  0.00    +0.173 C 
BRANCH  18  19
ATOM     19  C   UNL     1      -2.806   4.216   5.426  0.00  0.00    +0.227 C 
ATOM     20  O   UNL     1      -2.000   4.979   4.938  0.00  0.00    -0.275 OA
ATOM     21  N   UNL     1      -3.077   3.043   4.819  0.00  0.00    -0.285 N 
ATOM     22  H   UNL     1      -3.776   2.468   5.167  0.00  0.00    +0.155 HD
BRANCH  21  23
ATOM     23  C   UNL     1      -2.351   2.656   3.688  0.00  0.00    +0.034 A 
ATOM     24  C   UNL     1      -1.014   3.011   3.565  0.00  0.00    +0.025 A 
ATOM     25  C   UNL     1      -0.299   2.627   2.447  0.00  0.00    +0.030 A 
ATOM     26  C   UNL     1      -0.914   1.891   1.451  0.00  0.00    +0.105 A 
ATOM     27  C   UNL     1      -2.247   1.541   1.568  0.00  0.00    +0.030 A 
ATOM     28  C   UNL     1      -2.965   1.917   2.686  0.00  0.00    +0.025 A 
BRANCH  26  29
ATOM     29  S   UNL     1       0.001   1.403   0.026  0.00  0.00    +0.056 S 
ATOM     30  O   UNL     1       1.076   2.324  -0.101  0.00  0.00    -0.153 OA
ATOM     31  O   UNL     1      -0.946   1.190  -1.011  0.00  0.00    -0.153 OA
BRANCH  29  32
ATOM     32  N   UNL     1       0.678  -0.071   0.360  0.00  0.00    -0.204 NA
ATOM     33  H   UNL     1       0.526  -0.491   1.221  0.00  0.00    +0.144 HD
ATOM     34  H   UNL     1       1.226  -0.515  -0.306  0.00  0.00    +0.144 HD
ENDBRANCH  29  32
ENDBRANCH  26  29
ENDBRANCH  21  23
ENDBRANCH  18  19
ENDBRANCH   1  18
TORSDOF 9
