REMARK  Name = ZINC60332771
REMARK  5 active torsions:
REMARK  status: ('A' for Active; 'I' for Inactive)
REMARK    1  A    between atoms: C_1  and  C_2
REMARK    2  A    between atoms: C_2  and  C_4
REMARK    3  A    between atoms: C_2  and  N_12
REMARK    4  A    between atoms: N_12  and  C_13
REMARK    5  A    between atoms: C_13  and  C_14
REMARK                            x       y       z     vdW  Elec       q    Type
REMARK                         _______ _______ _______ _____ _____    ______ ____
ROOT
ATOM      1  N   UNL     1      -1.376  -0.512   0.012  0.00  0.00    +0.388 N 
ATOM      2  H   UNL     1      -1.363  -1.518   0.090  0.00  0.00    -0.084 HD
ATOM      3  H   UNL     1      -1.873  -0.121   0.799  0.00  0.00    -0.084 HD
ENDROOT
BRANCH   1   5
ATOM      4  C   UNL     1      -0.019   1.526   0.010  0.00  0.00    -0.006 C 
ATOM      5  C   UNL     1       0.002  -0.004   0.002  0.00  0.00    -0.005 C 
BRANCH   5   6
ATOM      6  C   UNL     1       0.731  -0.503   1.223  0.00  0.00    +0.119 A 
ATOM      7  N   UNL     1       0.272  -0.523   2.444  0.00  0.00    -0.136 NA
ATOM      8  N   UNL     1       1.161  -1.013   3.233  0.00  0.00    -0.134 NA
ATOM      9  C   UNL     1       2.229  -1.327   2.549  0.00  0.00    +0.133 A 
ATOM     10  N   UNL     1       1.984  -1.021   1.256  0.00  0.00    -0.316 N 
ATOM     11  C   UNL     1       3.133  -1.355   0.405  0.00  0.00    +0.125 C 
ATOM     12  C   UNL     1       4.327  -1.525   1.370  0.00  0.00    +0.029 C 
ATOM     13  C   UNL     1       3.621  -1.906   2.688  0.00  0.00    +0.078 C 
ENDBRANCH   5   6
ENDBRANCH   1   5
BRANCH   1  14
ATOM     14  C   UNL     1      -2.050  -0.126  -1.234  0.00  0.00    -0.047 C 
BRANCH  14  15
ATOM     15  C   UNL     1      -3.464  -0.648  -1.224  0.00  0.00    -0.049 C 
ATOM     16  C   UNL     1      -4.457   0.139  -0.821  0.00  0.00    +0.012 C 
ATOM     17  C   UNL     1      -5.825  -0.420  -0.789  0.00  0.00    +0.020 A 
ATOM     18  C   UNL     1      -6.941   0.401  -0.659  0.00  0.00    +0.031 A 
ATOM     19  C   UNL     1      -8.204  -0.161  -0.648  0.00  0.00    +0.043 A 
ATOM     20  C   UNL     1      -8.359  -1.532  -0.767  0.00  0.00    +0.043 A 
ATOM     21  C   UNL     1      -7.254  -2.356  -0.891  0.00  0.00    +0.084 A 
ATOM     22  C   UNL     1      -5.984  -1.807  -0.897  0.00  0.00    +0.146 A 
ATOM     23  O   UNL     1      -4.878  -2.591  -0.981  0.00  0.00    -0.486 OA
ATOM     24  C   UNL     1      -3.747  -2.056  -1.675  0.00  0.00    +0.258 C 
ATOM     25 CL   UNL     1      -7.461  -4.073  -1.039  0.00  0.00    -0.080 Cl
ATOM     26 CL   UNL     1      -9.601   0.856  -0.484  0.00  0.00    -0.083 Cl
ENDBRANCH  14  15
ENDBRANCH   1  14
TORSDOF 4
