REMARK  Name = ZINC22607515
REMARK  11 active torsions:
REMARK  status: ('A' for Active; 'I' for Inactive)
REMARK    1  A    between atoms: C_1  and  C_2
REMARK    2  A    between atoms: C_2  and  C_3
REMARK    3  A    between atoms: C_4  and  C_22
REMARK    4  A    between atoms: C_8  and  C_17
REMARK    5  A    between atoms: C_9  and  C_12
REMARK    6  A    between atoms: C_13  and  N_14
REMARK    7  A    between atoms: N_14  and  C_15
REMARK    8  A    between atoms: N_14  and  C_16
REMARK    9  A    between atoms: C_17  and  O_19
REMARK   10  A    between atoms: O_19  and  C_20
REMARK   11  A    between atoms: C_20  and  C_21
REMARK                            x       y       z     vdW  Elec       q    Type
REMARK                         _______ _______ _______ _____ _____    ______ ____
ROOT
ATOM      1  C   UNL     1       0.431  -0.474   1.443  0.00  0.00    +0.073 A 
ATOM      2  C   UNL     1       1.816  -0.678   1.373  0.00  0.00    +0.051 A 
ATOM      3  C   UNL     1       2.227  -1.158   2.619  0.00  0.00    +0.186 A 
ATOM      4  N   UNL     1       3.419  -1.516   3.112  0.00  0.00    -0.128 NA
ATOM      5  N   UNL     1       3.556  -1.937   4.319  0.00  0.00    -0.138 NA
ATOM      6  C   UNL     1       2.509  -2.041   5.151  0.00  0.00    +0.195 A 
ATOM      7  C   UNL     1       1.227  -1.681   4.699  0.00  0.00    +0.103 A 
ATOM      8  N   UNL     1       1.102  -1.232   3.403  0.00  0.00    -0.210 N 
ATOM      9  N   UNL     1       0.015  -0.796   2.643  0.00  0.00    -0.169 NA
ENDROOT
BRANCH   2  10
ATOM     10  C   UNL     1       2.683  -0.432   0.197  0.00  0.00    -0.012 A 
ATOM     11  C   UNL     1       2.513  -1.182  -0.966  0.00  0.00    +0.011 A 
ATOM     12  C   UNL     1       3.323  -0.949  -2.058  0.00  0.00    +0.039 A 
ATOM     13  C   UNL     1       4.303   0.029  -2.001  0.00  0.00    +0.123 A 
ATOM     14  C   UNL     1       4.475   0.777  -0.848  0.00  0.00    +0.039 A 
ATOM     15  C   UNL     1       3.666   0.555   0.248  0.00  0.00    +0.011 A 
ATOM     16  F   UNL     1       5.093   0.254  -3.074  0.00  0.00    -0.205 F 
ENDBRANCH   2  10
BRANCH   1  18
ATOM     17  C   UNL     1      -0.502   1.567   0.387  0.00  0.00    +0.010 C 
ATOM     18  C   UNL     1      -0.436   0.040   0.322  0.00  0.00    +0.054 C 
ENDBRANCH   1  18
BRANCH   7  19
ATOM     19  C   UNL     1       0.103  -1.778   5.548  0.00  0.00    +0.045 C 
ATOM     20  C   UNL     1      -1.134  -1.539   5.060  0.00  0.00    +0.072 C 
BRANCH  20  21
ATOM     21  N   UNL     1      -2.224  -1.632   5.883  0.00  0.00    -0.342 N 
ATOM     22  C   UNL     1      -2.049  -1.991   7.292  0.00  0.00    +0.128 C 
ATOM     23  C   UNL     1      -3.565  -1.373   5.354  0.00  0.00    +0.128 C 
ENDBRANCH  20  21
ENDBRANCH   7  19
BRANCH   6  24
ATOM     24  C   UNL     1       2.701  -2.526   6.523  0.00  0.00    +0.362 C 
ATOM     25  O   UNL     1       1.769  -2.523   7.305  0.00  0.00    -0.243 OA
BRANCH  24  26
ATOM     26  O   UNL     1       3.910  -2.974   6.917  0.00  0.00    -0.460 OA
BRANCH  26  27
ATOM     27  C   UNL     1       4.025  -3.431   8.266  0.00  0.00    +0.229 C 
ATOM     28  C   UNL     1       5.459  -3.897   8.527  0.00  0.00    +0.048 C 
ENDBRANCH  26  27
ENDBRANCH  24  26
ENDBRANCH   6  24
TORSDOF 7
