REMARK  Name = ZINC35486369
REMARK  14 active torsions:
REMARK  status: ('A' for Active; 'I' for Inactive)
REMARK    1  A    between atoms: C_1  and  C_2
REMARK    2  A    between atoms: C_2  and  N_3
REMARK    3  A    between atoms: N_3  and  C_4
REMARK    4  A    between atoms: N_3  and  C_6
REMARK    5  A    between atoms: C_4  and  C_5
REMARK    6  A    between atoms: C_6  and  C_7
REMARK    7  A    between atoms: C_7  and  N_8
REMARK    8  A    between atoms: C_9  and  C_25
REMARK    9  A    between atoms: C_27  and  O_35
REMARK   10  A    between atoms: C_28  and  O_33
REMARK   11  A    between atoms: C_29  and  O_31
REMARK   12  A    between atoms: O_31  and  C_32
REMARK   13  A    between atoms: O_33  and  C_34
REMARK   14  A    between atoms: O_35  and  C_36
REMARK                            x       y       z     vdW  Elec       q    Type
REMARK                         _______ _______ _______ _____ _____    ______ ____
ROOT
ATOM      1  N   UNL     1      -3.386  -3.453  -0.261  0.00  0.00    -0.285 N 
ATOM      2  C   UNL     1      -3.320  -4.344  -1.430  0.00  0.00    +0.145 C 
ATOM      3  C   UNL     1      -3.553  -5.723  -0.906  0.00  0.00    +0.072 A 
ATOM      4  C   UNL     1      -3.613  -7.019  -1.589  0.00  0.00    +0.199 A 
ATOM      5  O   UNL     1      -3.293  -7.175  -2.754  0.00  0.00    -0.287 OA
ATOM      6  C   UNL     1      -4.099  -8.124  -0.725  0.00  0.00    +0.067 A 
ATOM      7  C   UNL     1      -4.401  -9.370  -1.275  0.00  0.00    +0.053 A 
ATOM      8  C   UNL     1      -4.857 -10.383  -0.459  0.00  0.00    +0.124 A 
ATOM      9  C   UNL     1      -5.014 -10.161   0.904  0.00  0.00    +0.042 A 
ATOM     10  C   UNL     1      -4.718  -8.936   1.457  0.00  0.00    +0.050 A 
ATOM     11  C   UNL     1      -4.252  -7.896   0.653  0.00  0.00    +0.140 A 
ATOM     12  O   UNL     1      -3.959  -6.706   1.224  0.00  0.00    -0.450 OA
ATOM     13  C   UNL     1      -3.732  -5.630   0.445  0.00  0.00    +0.199 A 
ATOM     14  C   UNL     1      -3.621  -4.212   0.829  0.00  0.00    +0.283 C 
ATOM     15  O   UNL     1      -3.730  -3.787   1.963  0.00  0.00    -0.267 OA
ATOM     16  F   UNL     1      -5.152 -11.593  -0.984  0.00  0.00    -0.205 F 
ENDROOT
BRANCH   2  17
ATOM     17  C   UNL     1      -1.961  -4.255  -2.075  0.00  0.00    -0.015 A 
ATOM     18  C   UNL     1      -0.827  -4.180  -1.288  0.00  0.00    +0.055 A 
ATOM     19  C   UNL     1       0.425  -4.097  -1.877  0.00  0.00    +0.165 A 
ATOM     20  C   UNL     1       0.540  -4.090  -3.262  0.00  0.00    +0.204 A 
ATOM     21  C   UNL     1      -0.602  -4.166  -4.051  0.00  0.00    +0.165 A 
ATOM     22  C   UNL     1      -1.850  -4.254  -3.453  0.00  0.00    +0.055 A 
BRANCH  21  23
ATOM     23  O   UNL     1      -0.495  -4.160  -5.407  0.00  0.00    -0.491 OA
ATOM     24  C   UNL     1      -1.710  -4.241  -6.154  0.00  0.00    +0.277 C 
ENDBRANCH  21  23
BRANCH  20  25
ATOM     25  O   UNL     1       1.767  -4.009  -3.845  0.00  0.00    -0.488 OA
ATOM     26  C   UNL     1       2.437  -5.240  -4.122  0.00  0.00    +0.277 C 
ENDBRANCH  20  25
BRANCH  19  27
ATOM     27  O   UNL     1       1.539  -4.023  -1.101  0.00  0.00    -0.491 OA
ATOM     28  C   UNL     1       1.346  -4.035   0.315  0.00  0.00    +0.277 C 
ENDBRANCH  19  27
ENDBRANCH   2  17
BRANCH   1  29
ATOM     29  C   UNL     1      -3.219  -1.998  -0.277  0.00  0.00    +0.090 C 
BRANCH  29  30
ATOM     30  C   UNL     1      -1.741  -1.651  -0.087  0.00  0.00    -0.060 C 
BRANCH  30  31
ATOM     31  N   UNL     1      -1.591  -0.195   0.033  0.00  0.00    +0.380 N 
ATOM     32  H   UNL     1      -2.024   0.254  -0.760  0.00  0.00    -0.082 HD
BRANCH  31  34
ATOM     33  C   UNL     1      -2.191   1.792   1.332  0.00  0.00    -0.017 C 
ATOM     34  C   UNL     1      -2.238   0.264   1.269  0.00  0.00    -0.082 C 
ENDBRANCH  31  34
BRANCH  31  35
ATOM     35  C   UNL     1      -0.163   0.148   0.071  0.00  0.00    -0.082 C 
ATOM     36  C   UNL     1       0.480  -0.195  -1.274  0.00  0.00    -0.017 C 
ENDBRANCH  31  35
ENDBRANCH  30  31
ENDBRANCH  29  30
ENDBRANCH   1  29
TORSDOF 9
