REMARK  Name = ZINC08741844
REMARK  5 active torsions:
REMARK  status: ('A' for Active; 'I' for Inactive)
REMARK    1  A    between atoms: C_1  and  C_2
REMARK    2  A    between atoms: C_7  and  C_8
REMARK    3  A    between atoms: C_12  and  C_15
REMARK    4  A    between atoms: C_15  and  C_16
REMARK    5  A    between atoms: N_18  and  C_19
REMARK                            x       y       z     vdW  Elec       q    Type
REMARK                         _______ _______ _______ _____ _____    ______ ____
ROOT
ATOM      1  C   UNL     1       0.100  -2.701   6.782  0.00  0.00    +0.044 C 
ATOM      2  C   UNL     1      -0.418  -3.315   5.507  0.00  0.00    -0.046 A 
ATOM      3  C   UNL     1      -1.142  -2.544   4.614  0.00  0.00    +0.028 A 
ATOM      4  C   UNL     1      -1.613  -3.111   3.443  0.00  0.00    +0.049 A 
ATOM      5  C   UNL     1      -1.348  -4.451   3.155  0.00  0.00    +0.055 A 
ATOM      6  C   UNL     1      -0.634  -5.218   4.061  0.00  0.00    +0.028 A 
ATOM      7  C   UNL     1      -0.169  -4.647   5.232  0.00  0.00    -0.046 A 
ATOM      8  C   UNL     1       0.614  -5.481   6.214  0.00  0.00    +0.044 C 
ATOM      9  N   UNL     1      -1.822  -5.011   1.963  0.00  0.00    -0.282 N 
ATOM     10  C   UNL     1      -2.350  -4.236   0.998  0.00  0.00    +0.238 C 
ATOM     11  O   UNL     1      -2.860  -4.752   0.026  0.00  0.00    -0.273 OA
ATOM     12  C   UNL     1      -2.316  -2.733   1.113  0.00  0.00    +0.166 C 
ATOM     13  N   UNL     1      -2.372  -2.357   2.533  0.00  0.00    -0.331 N 
ATOM     14  H   UNL     1      -1.765  -6.098   1.805  0.00  0.00    +0.155 HD
ATOM     15  H   UNL     1      -2.995  -1.510   2.853  0.00  0.00    +0.147 HD
ENDROOT
BRANCH  12  16
ATOM     16  C   UNL     1      -1.021  -2.202   0.493  0.00  0.00    +0.127 C 
BRANCH  16  17
ATOM     17  C   UNL     1      -1.042  -0.695   0.502  0.00  0.00    +0.215 C 
ATOM     18  O   UNL     1      -1.998  -0.104   0.958  0.00  0.00    -0.276 OA
ATOM     19  N   UNL     1       0.002  -0.004   0.002  0.00  0.00    -0.312 N 
ATOM     20  H   UNL     1       0.869  -0.540  -0.412  0.00  0.00    +0.149 HD
BRANCH  19  21
ATOM     21  C   UNL     1      -0.018   1.461   0.010  0.00  0.00    +0.073 C 
ATOM     22  C   UNL     1      -0.758   1.968  -1.230  0.00  0.00    +0.022 C 
ATOM     23  C   UNL     1      -0.778   3.497  -1.221  0.00  0.00    +0.002 C 
ATOM     24  C   UNL     1       0.657   4.027  -1.232  0.00  0.00    +0.000 C 
ATOM     25  C   UNL     1       1.397   3.520   0.008  0.00  0.00    +0.002 C 
ATOM     26  C   UNL     1       1.418   1.990  -0.001  0.00  0.00    +0.022 C 
ENDBRANCH  19  21
ENDBRANCH  16  17
ENDBRANCH  12  16
TORSDOF 3
