REMARK  Name = ZINC15013855
REMARK  3 active torsions:
REMARK  status: ('A' for Active; 'I' for Inactive)
REMARK    1  A    between atoms: C_5  and  N_7
REMARK    2  A    between atoms: C_11  and  C_12
REMARK    3  A    between atoms: N_16  and  C_20
REMARK                            x       y       z     vdW  Elec       q    Type
REMARK                         _______ _______ _______ _____ _____    ______ ____
ROOT
ATOM      1  C   UNL     1      -1.379  -3.084   0.290  0.00  0.00    +0.054 C 
ATOM      2  C   UNL     1      -0.708  -1.911   0.468  0.00  0.00    +0.100 C 
ATOM      3  C   UNL     1      -1.272  -0.636   0.744  0.00  0.00    +0.273 C 
ATOM      4  O   UNL     1      -2.457  -0.380   0.868  0.00  0.00    -0.268 OA
ATOM      5  N   UNL     1      -0.250   0.236   0.840  0.00  0.00    -0.189 N 
ATOM      6  C   UNL     1       0.913  -0.410   0.651  0.00  0.00    +0.318 C 
ATOM      7  O   UNL     1       2.013   0.108   0.681  0.00  0.00    -0.251 OA
ATOM      8  N   UNL     1       0.679  -1.716   0.421  0.00  0.00    -0.264 N 
ATOM      9  H   UNL     1       1.349  -2.398   0.255  0.00  0.00    +0.157 HD
ENDROOT
BRANCH   5  10
ATOM     10  C   UNL     1      -0.379   1.607   1.103  0.00  0.00    +0.047 A 
ATOM     11  C   UNL     1       0.753   2.386   1.301  0.00  0.00    +0.024 A 
ATOM     12  C   UNL     1       0.624   3.737   1.560  0.00  0.00    +0.003 A 
ATOM     13  C   UNL     1      -0.631   4.313   1.623  0.00  0.00    +0.020 A 
ATOM     14  C   UNL     1      -1.762   3.539   1.426  0.00  0.00    +0.043 A 
ATOM     15  C   UNL     1      -1.637   2.188   1.161  0.00  0.00    +0.044 A 
ATOM     16 CL   UNL     1      -3.336   4.267   1.505  0.00  0.00    -0.083 Cl
ENDBRANCH   5  10
BRANCH   1  21
ATOM     17  N   UNL     1      -3.573  -2.365  -0.646  0.00  0.00    -0.314 N 
ATOM     18  C   UNL     1      -4.881  -2.642  -0.390  0.00  0.00    +0.092 A 
ATOM     19  C   UNL     1      -4.949  -3.522   0.639  0.00  0.00    +0.020 A 
ATOM     20  C   UNL     1      -3.644  -3.816   1.043  0.00  0.00    +0.027 A 
ATOM     21  C   UNL     1      -2.792  -3.089   0.230  0.00  0.00    +0.049 A 
BRANCH  17  26
ATOM     22  C   UNL     1      -2.895   0.725  -2.524  0.00  0.00    +0.002 A 
ATOM     23  C   UNL     1      -2.166   0.231  -3.590  0.00  0.00    +0.003 A 
ATOM     24  C   UNL     1      -1.902  -1.124  -3.683  0.00  0.00    +0.040 A 
ATOM     25  C   UNL     1      -2.363  -1.987  -2.706  0.00  0.00    +0.147 A 
ATOM     26  C   UNL     1      -3.100  -1.493  -1.636  0.00  0.00    +0.082 A 
ATOM     27  C   UNL     1      -3.362  -0.133  -1.547  0.00  0.00    +0.029 A 
ATOM     28  F   UNL     1      -2.101  -3.310  -2.793  0.00  0.00    -0.203 F 
ENDBRANCH  17  26
ENDBRANCH   1  21
TORSDOF 3
