REMARK  Name = ZINC06443501
REMARK  13 active torsions:
REMARK  status: ('A' for Active; 'I' for Inactive)
REMARK    1  A    between atoms: C_1  and  C_2
REMARK    2  A    between atoms: C_6  and  C_38
REMARK    3  A    between atoms: C_7  and  N_8
REMARK    4  A    between atoms: C_9  and  C_37
REMARK    5  A    between atoms: C_11  and  C_14
REMARK    6  A    between atoms: C_12  and  C_13
REMARK    7  A    between atoms: N_15  and  N_16
REMARK    8  A    between atoms: C_17  and  C_19
REMARK    9  A    between atoms: C_24  and  N_25
REMARK   10  A    between atoms: N_25  and  C_26
REMARK   11  A    between atoms: N_25  and  S_33
REMARK   12  A    between atoms: C_26  and  C_27
REMARK   13  A    between atoms: S_33  and  C_36
REMARK                            x       y       z     vdW  Elec       q    Type
REMARK                         _______ _______ _______ _____ _____    ______ ____
ROOT
ATOM      1  N   UNL     1       6.499  -4.362  -1.150  0.00  0.00    -0.203 N 
ATOM      2  C   UNL     1       5.786  -3.226  -1.281  0.00  0.00    +0.265 C 
ATOM      3  O   UNL     1       6.176  -2.198  -0.760  0.00  0.00    -0.268 OA
ATOM      4  H   UNL     1       6.187  -5.181  -1.565  0.00  0.00    +0.178 HD
ENDROOT
BRANCH   2   5
ATOM      5  C   UNL     1       4.532  -3.228  -2.057  0.00  0.00    +0.061 A 
ATOM      6  C   UNL     1       4.012  -4.428  -2.549  0.00  0.00    +0.015 A 
ATOM      7  C   UNL     1       2.840  -4.423  -3.273  0.00  0.00    +0.001 A 
ATOM      8  C   UNL     1       2.173  -3.233  -3.518  0.00  0.00    +0.002 A 
ATOM      9  C   UNL     1       2.671  -2.041  -3.035  0.00  0.00    +0.025 A 
ATOM     10  C   UNL     1       3.854  -2.025  -2.307  0.00  0.00    +0.063 A 
BRANCH  10  11
ATOM     11  N   UNL     1       4.360  -0.825  -1.824  0.00  0.00    -0.203 N 
BRANCH  11  12
ATOM     12  S   UNL     1       4.047  -0.362  -0.265  0.00  0.00    +0.043 S 
ATOM     13  O   UNL     1       3.694  -1.563   0.406  0.00  0.00    -0.155 OA
ATOM     14  O   UNL     1       5.194   0.379   0.131  0.00  0.00    -0.155 OA
ATOM     15  C   UNL     1       2.606   0.734  -0.384  0.00  0.00    +0.218 C 
ENDBRANCH  11  12
BRANCH  11  16
ATOM     16  C   UNL     1       5.171   0.031  -2.693  0.00  0.00    +0.166 C 
BRANCH  16  17
ATOM     17  C   UNL     1       6.607  -0.425  -2.650  0.00  0.00    -0.028 A 
ATOM     18  C   UNL     1       7.058  -1.373  -3.550  0.00  0.00    +0.005 A 
ATOM     19  C   UNL     1       8.375  -1.791  -3.510  0.00  0.00    +0.000 A 
ATOM     20  C   UNL     1       9.240  -1.262  -2.571  0.00  0.00    +0.000 A 
ATOM     21  C   UNL     1       8.789  -0.315  -1.672  0.00  0.00    +0.000 A 
ATOM     22  C   UNL     1       7.472   0.104  -1.711  0.00  0.00    +0.005 A 
ENDBRANCH  16  17
ENDBRANCH  11  16
ENDBRANCH  10  11
ENDBRANCH   2   5
BRANCH   1  24
ATOM     23  C   UNL     1       8.377  -5.454  -0.286  0.00  0.00    +0.140 C 
ATOM     24  N   UNL     1       7.690  -4.360  -0.412  0.00  0.00    -0.187 NA
BRANCH  23  28
ATOM     25  N   UNL     1      11.345  -4.807   1.725  0.00  0.00    -0.317 N 
ATOM     26  C   UNL     1      11.537  -6.137   1.481  0.00  0.00    +0.022 A 
ATOM     27  C   UNL     1      10.519  -6.593   0.728  0.00  0.00    +0.032 A 
ATOM     28  C   UNL     1       9.630  -5.452   0.490  0.00  0.00    +0.016 A 
ATOM     29  C   UNL     1      10.199  -4.385   1.125  0.00  0.00    +0.030 A 
ATOM     30  C   UNL     1       9.649  -2.982   1.159  0.00  0.00    +0.064 C 
ATOM     31  C   UNL     1      12.699  -6.960   1.975  0.00  0.00    +0.064 C 
BRANCH  25  38
ATOM     32  C   UNL     1      10.880  -4.583   4.524  0.00  0.00    +0.046 C 
ATOM     33  C   UNL     1      12.014  -3.858   3.845  0.00  0.00    -0.026 A 
ATOM     34  C   UNL     1      12.866  -3.061   4.584  0.00  0.00    +0.005 A 
ATOM     35  C   UNL     1      13.903  -2.392   3.960  0.00  0.00    +0.001 A 
ATOM     36  C   UNL     1      14.093  -2.522   2.597  0.00  0.00    +0.005 A 
ATOM     37  C   UNL     1      13.247  -3.321   1.853  0.00  0.00    -0.026 A 
ATOM     38  C   UNL     1      12.205  -3.995   2.476  0.00  0.00    +0.052 A 
ATOM     39  C   UNL     1      13.455  -3.462   0.367  0.00  0.00    +0.046 C 
ENDBRANCH  25  38
ENDBRANCH  23  28
ENDBRANCH   1  24
TORSDOF 8
