REMARK  Name = ZINC39944019
REMARK  14 active torsions:
REMARK  status: ('A' for Active; 'I' for Inactive)
REMARK    1  A    between atoms: C_1  and  C_2
REMARK    2  A    between atoms: C_2  and  C_3
REMARK    3  A    between atoms: C_3  and  C_4
REMARK    4  A    between atoms: C_4  and  N_5
REMARK    5  A    between atoms: C_6  and  N_32
REMARK    6  A    between atoms: C_8  and  N_15
REMARK    7  A    between atoms: N_15  and  C_16
REMARK    8  A    between atoms: C_16  and  C_17
REMARK    9  A    between atoms: C_17  and  C_18
REMARK   10  A    between atoms: C_18  and  C_19
REMARK   11  A    between atoms: C_18  and  C_20
REMARK   12  A    between atoms: C_21  and  C_23
REMARK   13  A    between atoms: C_23  and  S_24
REMARK   14  A    between atoms: S_24  and  C_25
REMARK                            x       y       z     vdW  Elec       q    Type
REMARK                         _______ _______ _______ _____ _____    ______ ____
ROOT
ATOM      1  N   UNL     1      -5.103  -1.017   1.124  0.00  0.00    -0.289 N 
ATOM      2  C   UNL     1      -4.427  -0.285   0.217  0.00  0.00    +0.226 C 
ATOM      3  O   UNL     1      -3.759  -0.837  -0.632  0.00  0.00    -0.275 OA
ENDROOT
BRANCH   1   6
ATOM      4  N   UNL     1      -6.990  -3.022  -0.070  0.00  0.00    -0.296 N 
ATOM      5  C   UNL     1      -5.527  -3.074  -0.131  0.00  0.00    +0.047 C 
ATOM      6  C   UNL     1      -4.948  -2.474   1.152  0.00  0.00    +0.167 C 
ATOM      7  C   UNL     1      -5.684  -3.036   2.341  0.00  0.00    +0.261 C 
ATOM      8  O   UNL     1      -5.033  -3.223   3.500  0.00  0.00    -0.272 OA
ATOM      9  N   UNL     1      -6.947  -3.342   2.252  0.00  0.00    -0.126 NA
ATOM     10  C   UNL     1      -7.626  -3.199   1.101  0.00  0.00    +0.327 C 
ATOM     11  O   UNL     1      -8.843  -3.236   1.119  0.00  0.00    -0.250 OA
BRANCH   5  12
ATOM     12  N   UNL     1      -5.091  -4.471  -0.262  0.00  0.00    +0.392 N 
ATOM     13  H   UNL     1      -5.477  -4.866  -1.106  0.00  0.00    -0.087 HD
ATOM     14  H   UNL     1      -4.083  -4.506  -0.304  0.00  0.00    -0.087 HD
ATOM     15  H   UNL     1      -5.412  -4.999   0.535  0.00  0.00    -0.087 HD
ENDBRANCH   5  12
BRANCH   4  16
ATOM     16  C   UNL     1      -7.763  -2.769  -1.288  0.00  0.00    +0.107 C 
BRANCH  16  17
ATOM     17  C   UNL     1      -7.965  -1.262  -1.461  0.00  0.00    +0.019 C 
BRANCH  17  19
ATOM     18  C   UNL     1      -8.974   0.509  -2.906  0.00  0.00    +0.004 C 
ATOM     19  C   UNL     1      -8.772  -0.998  -2.733  0.00  0.00    -0.002 C 
ENDBRANCH  17  19
ENDBRANCH  16  17
ENDBRANCH   4  16
ENDBRANCH   1   6
BRANCH   1  20
ATOM     20  C   UNL     1      -5.993  -0.357   2.082  0.00  0.00    +0.109 C 
BRANCH  20  21
ATOM     21  C   UNL     1      -5.205   0.008   3.342  0.00  0.00    +0.022 C 
BRANCH  21  22
ATOM     22  C   UNL     1      -6.134   0.698   4.343  0.00  0.00    -0.016 C 
ATOM     23  C   UNL     1      -7.206  -0.290   4.808  0.00  0.00    +0.007 C 
ATOM     24  C   UNL     1      -5.322   1.173   5.549  0.00  0.00    +0.007 C 
ENDBRANCH  21  22
ENDBRANCH  20  21
ENDBRANCH   1  20
BRANCH   2  25
ATOM     25  C   UNL     1      -4.500   1.220   0.257  0.00  0.00    +0.173 C 
BRANCH  25  26
ATOM     26  S   UNL     1      -3.491   1.911  -1.083  0.00  0.00    -0.075 S 
BRANCH  26  27
ATOM     27  C   UNL     1      -3.679   3.654  -0.902  0.00  0.00    +0.210 A 
ATOM     28  N   UNL     1      -4.396   4.252   0.019  0.00  0.00    -0.144 NA
ATOM     29  H   UNL     1      -4.684   6.342   0.320  0.00  0.00    +0.192 HD
ATOM     30  N   UNL     1      -4.270   5.633  -0.198  0.00  0.00    -0.246 N 
ATOM     31  C   UNL     1      -3.462   5.781  -1.268  0.00  0.00    +0.209 A 
ATOM     32  N   UNL     1      -3.109   4.582  -1.679  0.00  0.00    -0.188 NA
ATOM     33  N   UNL     1      -3.068   6.981  -1.830  0.00  0.00    -0.328 N 
ATOM     34  H   UNL     1      -3.379   7.819  -1.452  0.00  0.00    +0.145 HD
ATOM     35  H   UNL     1      -2.482   6.986  -2.603  0.00  0.00    +0.145 HD
ENDBRANCH  26  27
ENDBRANCH  25  26
ENDBRANCH   2  25
TORSDOF 11
