REMARK  Name = ZINC12377192
REMARK  3 active torsions:
REMARK  status: ('A' for Active; 'I' for Inactive)
REMARK    1  A    between atoms: N_8  and  C_9
REMARK    2  A    between atoms: C_12  and  S_15
REMARK    3  A    between atoms: S_15  and  N_18
REMARK                            x       y       z     vdW  Elec       q    Type
REMARK                         _______ _______ _______ _____ _____    ______ ____
ROOT
ATOM      1  C   UNL     1       1.275  -4.404  -0.034  0.00  0.00    +0.065 A 
ATOM      2  C   UNL     1       2.327  -4.735  -0.898  0.00  0.00    +0.029 A 
ATOM      3  C   UNL     1       2.832  -6.017  -0.903  0.00  0.00    +0.030 A 
ATOM      4  C   UNL     1       2.303  -6.977  -0.057  0.00  0.00    +0.106 A 
ATOM      5  C   UNL     1       1.263  -6.659   0.800  0.00  0.00    +0.030 A 
ATOM      6  C   UNL     1       0.750  -5.380   0.822  0.00  0.00    +0.029 A 
ENDROOT
BRANCH   1  14
ATOM      7  C   UNL     1      -0.017   1.376   0.010  0.00  0.00    +0.001 A 
ATOM      8  C   UNL     1       1.172   2.086   0.002  0.00  0.00    +0.002 A 
ATOM      9  C   UNL     1       2.386   1.427  -0.013  0.00  0.00    +0.024 A 
ATOM     10  C   UNL     1       2.426   0.038  -0.021  0.00  0.00    +0.043 A 
ATOM     11  C   UNL     1       1.220  -0.678  -0.013  0.00  0.00    +0.027 A 
ATOM     12  C   UNL     1       0.002  -0.004   0.002  0.00  0.00    +0.012 A 
ATOM     13  C   UNL     1       1.583  -2.111  -0.024  0.00  0.00    +0.135 C 
ATOM     14  N   UNL     1       0.771  -3.141  -0.022  0.00  0.00    -0.242 NA
ATOM     15  C   UNL     1       3.068  -2.129  -0.039  0.00  0.00    +0.267 C 
ATOM     16  O   UNL     1       3.772  -3.120  -0.052  0.00  0.00    -0.268 OA
ATOM     17  N   UNL     1       3.493  -0.854  -0.037  0.00  0.00    -0.280 N 
ATOM     18  H   UNL     1       4.426  -0.590  -0.045  0.00  0.00    +0.155 HD
ENDBRANCH   1  14
BRANCH   4  19
ATOM     19  S   UNL     1       2.957  -8.613  -0.072  0.00  0.00    +0.061 S 
ATOM     20  O   UNL     1       1.930  -9.465   0.419  0.00  0.00    -0.153 OA
ATOM     21  O   UNL     1       3.557  -8.800  -1.346  0.00  0.00    -0.153 OA
BRANCH  19  22
ATOM     22  N   UNL     1       4.183  -8.661   1.040  0.00  0.00    -0.177 NA
ATOM     23  C   UNL     1       5.523  -8.336   0.608  0.00  0.00    +0.109 C 
ATOM     24  C   UNL     1       6.235  -9.620   0.115  0.00  0.00    +0.017 C 
ATOM     25  C   UNL     1       6.550 -10.499   1.252  0.00  0.00    +0.001 C 
ATOM     26  C   UNL     1       5.327 -11.011   2.006  0.00  0.00    +0.001 C 
ATOM     27  C   UNL     1       4.908  -9.989   3.034  0.00  0.00    +0.017 C 
ATOM     28  C   UNL     1       3.861  -9.027   2.433  0.00  0.00    +0.109 C 
ENDBRANCH  19  22
ENDBRANCH   4  19
TORSDOF 3
