REMARK  Name = ZINC04959512
REMARK  3 active torsions:
REMARK  status: ('A' for Active; 'I' for Inactive)
REMARK    1  A    between atoms: C_1  and  C_2
REMARK    2  A    between atoms: C_15  and  C_18
REMARK    3  A    between atoms: C_20  and  N_25
REMARK                            x       y       z     vdW  Elec       q    Type
REMARK                         _______ _______ _______ _____ _____    ______ ____
ROOT
ATOM      1  C   UNL     1       5.303   2.187  -1.256  0.00  0.00    +0.044 C 
ATOM      2  C   UNL     1       4.109   2.520  -0.399  0.00  0.00    -0.050 A 
ATOM      3  C   UNL     1       4.202   3.519   0.553  0.00  0.00    +0.005 A 
ATOM      4  C   UNL     1       3.106   3.822   1.336  0.00  0.00    +0.023 A 
ATOM      5  C   UNL     1       1.917   3.124   1.167  0.00  0.00    +0.031 A 
ATOM      6  C   UNL     1       1.819   2.121   0.215  0.00  0.00    -0.019 A 
ATOM      7  C   UNL     1       2.928   1.826  -0.567  0.00  0.00    +0.009 A 
ATOM      8  C   UNL     1       0.560   1.343  -0.002  0.00  0.00    +0.049 C 
ATOM      9  C   UNL     1      -0.145   1.777  -1.265  0.00  0.00    -0.023 C 
ATOM     10  C   UNL     1      -1.430   1.757  -1.114  0.00  0.00    -0.030 C 
ATOM     11  C   UNL     1      -1.786   1.294   0.285  0.00  0.00    +0.033 C 
ATOM     12  C   UNL     1      -0.490   1.579   1.100  0.00  0.00    +0.029 C 
ATOM     13  C   UNL     1      -0.520   3.043   1.505  0.00  0.00    +0.106 C 
ATOM     14  N   UNL     1       0.814   3.445   1.965  0.00  0.00    -0.336 N 
ATOM     15  H   UNL     1       0.928   3.922   2.802  0.00  0.00    +0.147 HD
ENDROOT
BRANCH  13  16
ATOM     16  C   UNL     1      -0.914   3.875   0.312  0.00  0.00    -0.007 A 
ATOM     17  C   UNL     1       0.046   4.281  -0.596  0.00  0.00    +0.039 A 
ATOM     18  C   UNL     1      -0.316   5.039  -1.693  0.00  0.00    +0.127 A 
ATOM     19  C   UNL     1      -1.637   5.402  -1.878  0.00  0.00    +0.034 A 
ATOM     20  C   UNL     1      -2.598   5.001  -0.968  0.00  0.00    +0.022 A 
ATOM     21  C   UNL     1      -2.236   4.237   0.128  0.00  0.00    +0.046 A 
ATOM     22 CL   UNL     1      -3.442   3.734   1.271  0.00  0.00    -0.083 Cl
BRANCH  18  23
ATOM     23  N   UNL     1       0.712   5.469  -2.667  0.00  0.00    +0.056 N 
ATOM     24  O   UNL     1       0.394   6.141  -3.631  0.00  0.00    -0.126 OA
ATOM     25  O   UNL     1       1.876   5.150  -2.505  0.00  0.00    -0.126 OA
ENDBRANCH  18  23
ENDBRANCH  13  16
TORSDOF 2
