REMARK  Name = ZINC08712812
REMARK  8 active torsions:
REMARK  status: ('A' for Active; 'I' for Inactive)
REMARK    1  A    between atoms: C_4  and  C_7
REMARK    2  A    between atoms: C_7  and  N_8
REMARK    3  A    between atoms: N_8  and  C_9
REMARK    4  A    between atoms: C_9  and  C_11
REMARK    5  A    between atoms: C_9  and  C_18
REMARK    6  A    between atoms: N_20  and  C_21
REMARK    7  A    between atoms: C_30  and  C_32
REMARK    8  A    between atoms: C_32  and  N_33
REMARK                            x       y       z     vdW  Elec       q    Type
REMARK                         _______ _______ _______ _____ _____    ______ ____
ROOT
ATOM      1  N   UNL     1       4.034  -1.270  -2.312  0.00  0.00    -0.284 N 
ATOM      2  C   UNL     1       3.576  -1.834  -3.447  0.00  0.00    +0.234 C 
ATOM      3  O   UNL     1       3.806  -1.312  -4.518  0.00  0.00    -0.274 OA
ENDROOT
BRANCH   1   4
ATOM      4  C   UNL     1       3.670  -1.841  -1.013  0.00  0.00    +0.143 C 
BRANCH   4   8
ATOM      5  C   UNL     1       0.252   0.201   0.535  0.00  0.00    +0.000 A 
ATOM      6  C   UNL     1       1.519   0.551   0.963  0.00  0.00    +0.000 A 
ATOM      7  C   UNL     1       2.625  -0.110   0.462  0.00  0.00    +0.005 A 
ATOM      8  C   UNL     1       2.464  -1.121  -0.467  0.00  0.00    -0.030 A 
ATOM      9  C   UNL     1       1.197  -1.470  -0.895  0.00  0.00    +0.005 A 
ATOM     10  C   UNL     1       0.091  -0.810  -0.394  0.00  0.00    +0.000 A 
ENDBRANCH   4   8
ENDBRANCH   1   4
BRANCH   1  11
ATOM     11  C   UNL     1       4.895  -0.087  -2.376  0.00  0.00    +0.166 C 
BRANCH  11  12
ATOM     12  C   UNL     1       4.165   1.109  -1.761  0.00  0.00    +0.023 C 
ATOM     13  C   UNL     1       2.844   1.344  -2.504  0.00  0.00    +0.010 C 
ATOM     14  C   UNL     1       2.056   2.425  -1.760  0.00  0.00    +0.027 C 
ATOM     15  C   UNL     1       2.935   3.611  -1.489  0.00  0.00    -0.031 C 
ATOM     16  C   UNL     1       4.228   3.584  -1.546  0.00  0.00    -0.031 C 
ATOM     17  C   UNL     1       5.028   2.365  -1.899  0.00  0.00    +0.032 C 
ENDBRANCH  11  12
BRANCH  11  18
ATOM     18  C   UNL     1       6.166  -0.348  -1.610  0.00  0.00    +0.238 C 
ATOM     19  O   UNL     1       6.250  -1.319  -0.888  0.00  0.00    -0.273 OA
ATOM     20  N   UNL     1       7.209   0.498  -1.726  0.00  0.00    -0.284 N 
ATOM     21  H   UNL     1       7.115   1.316  -2.239  0.00  0.00    +0.155 HD
BRANCH  20  22
ATOM     22  C   UNL     1       8.428   0.195  -1.107  0.00  0.00    +0.037 A 
ATOM     23  C   UNL     1       9.624   0.549  -1.718  0.00  0.00    +0.027 A 
ATOM     24  C   UNL     1      10.828   0.255  -1.106  0.00  0.00    +0.051 A 
ATOM     25  C   UNL     1      10.845  -0.401   0.114  0.00  0.00    +0.166 A 
ATOM     26  C   UNL     1       9.648  -0.763   0.727  0.00  0.00    +0.168 A 
ATOM     27  C   UNL     1       8.442  -0.463   0.115  0.00  0.00    +0.072 A 
ATOM     28  O   UNL     1       9.932  -1.390   1.905  0.00  0.00    -0.453 OA
ATOM     29  C   UNL     1      11.317  -1.773   1.812  0.00  0.00    +0.466 C 
ATOM     30  O   UNL     1      11.881  -0.803   0.909  0.00  0.00    -0.453 OA
ENDBRANCH  20  22
ENDBRANCH  11  18
ENDBRANCH   1  11
BRANCH   2  31
ATOM     31  C   UNL     1       2.780  -3.111  -3.387  0.00  0.00    +0.210 C 
BRANCH  31  32
ATOM     32  N   UNL     1       2.515  -3.587  -4.747  0.00  0.00    -0.255 N 
ATOM     33  C   UNL     1       1.393  -3.237  -5.496  0.00  0.00    +0.048 A 
ATOM     34  C   UNL     1       0.317  -2.409  -5.205  0.00  0.00    +0.024 A 
ATOM     35  C   UNL     1      -0.685  -2.216  -6.138  0.00  0.00    +0.002 A 
ATOM     36  C   UNL     1      -0.627  -2.837  -7.375  0.00  0.00    +0.001 A 
ATOM     37  C   UNL     1       0.436  -3.659  -7.687  0.00  0.00    +0.014 A 
ATOM     38  C   UNL     1       1.452  -3.861  -6.753  0.00  0.00    +0.048 A 
ATOM     39  C   UNL     1       2.693  -4.656  -6.771  0.00  0.00    +0.250 C 
ATOM     40  O   UNL     1       3.115  -5.350  -7.673  0.00  0.00    -0.282 OA
ATOM     41  C   UNL     1       3.320  -4.419  -5.429  0.00  0.00    +0.292 C 
ATOM     42  O   UNL     1       4.364  -4.893  -5.031  0.00  0.00    -0.266 OA
ENDBRANCH  31  32
ENDBRANCH   2  31
TORSDOF 8
