REMARK  Name = ZINC21810823
REMARK  7 active torsions:
REMARK  status: ('A' for Active; 'I' for Inactive)
REMARK    1  A    between atoms: C_1  and  C_2
REMARK    2  A    between atoms: C_7  and  C_8
REMARK    3  A    between atoms: C_8  and  N_9
REMARK    4  A    between atoms: C_18  and  C_19
REMARK    5  A    between atoms: C_18  and  C_20
REMARK    6  A    between atoms: N_22  and  C_23
REMARK    7  A    between atoms: C_30  and  C_32
REMARK                            x       y       z     vdW  Elec       q    Type
REMARK                         _______ _______ _______ _____ _____    ______ ____
ROOT
ATOM      1  N   UNL     1       3.288   3.021  -0.610  0.00  0.00    -0.276 N 
ATOM      2  C   UNL     1       2.352   2.124  -1.002  0.00  0.00    +0.264 C 
ATOM      3  O   UNL     1       2.651   0.998  -1.354  0.00  0.00    -0.268 OA
ATOM      4  C   UNL     1       0.958   2.583  -0.978  0.00  0.00    +0.109 A 
ATOM      5  C   UNL     1      -0.208   1.893  -1.128  0.00  0.00    +0.079 A 
ATOM      6  C   UNL     1      -1.260   2.816  -1.030  0.00  0.00    +0.154 A 
ATOM      7  C   UNL     1      -0.698   4.074  -0.813  0.00  0.00    +0.088 A 
ATOM      8  N   UNL     1       0.656   3.930  -0.794  0.00  0.00    -0.331 N 
ATOM      9  C   UNL     1       1.708   4.938  -0.630  0.00  0.00    +0.157 C 
ATOM     10  C   UNL     1       2.929   4.286   0.020  0.00  0.00    +0.129 C 
ATOM     11  C   UNL     1       2.626   4.032   1.498  0.00  0.00    +0.043 C 
ATOM     12  C   UNL     1      -1.785   4.976  -0.707  0.00  0.00    +0.071 A 
ATOM     13  C   UNL     1      -2.913   4.260  -0.856  0.00  0.00    +0.105 A 
ATOM     14  O   UNL     1      -2.601   2.967  -1.048  0.00  0.00    -0.458 OA
ATOM     15  C   UNL     1      -4.311   4.822  -0.816  0.00  0.00    +0.086 C 
ENDROOT
BRANCH  10  16
ATOM     16  C   UNL     1       4.098   5.231  -0.082  0.00  0.00    +0.238 C 
ATOM     17  O   UNL     1       4.459   5.856   0.893  0.00  0.00    -0.273 OA
ATOM     18  N   UNL     1       4.744   5.380  -1.255  0.00  0.00    -0.311 N 
ATOM     19  H   UNL     1       4.365   4.880  -2.159  0.00  0.00    +0.149 HD
BRANCH  18  20
ATOM     20  C   UNL     1       5.949   6.210  -1.328  0.00  0.00    +0.073 C 
ATOM     21  C   UNL     1       5.551   7.673  -1.528  0.00  0.00    +0.022 C 
ATOM     22  C   UNL     1       6.810   8.539  -1.604  0.00  0.00    +0.002 C 
ATOM     23  C   UNL     1       7.674   8.080  -2.780  0.00  0.00    +0.000 C 
ATOM     24  C   UNL     1       8.073   6.617  -2.579  0.00  0.00    +0.002 C 
ATOM     25  C   UNL     1       6.814   5.751  -2.504  0.00  0.00    +0.022 C 
ENDBRANCH  18  20
ENDBRANCH  10  16
BRANCH   1  26
ATOM     26  C   UNL     1       4.704   2.711  -0.826  0.00  0.00    +0.144 C 
BRANCH  26  33
ATOM     27  C   UNL     1       4.350   0.401   0.873  0.00  0.00    +0.044 C 
ATOM     28  C   UNL     1       5.242   1.533   1.315  0.00  0.00    -0.046 A 
ATOM     29  C   UNL     1       5.894   1.464   2.533  0.00  0.00    +0.003 A 
ATOM     30  C   UNL     1       6.707   2.504   2.941  0.00  0.00    +0.000 A 
ATOM     31  C   UNL     1       6.872   3.612   2.130  0.00  0.00    +0.000 A 
ATOM     32  C   UNL     1       6.224   3.679   0.911  0.00  0.00    +0.005 A 
ATOM     33  C   UNL     1       5.411   2.638   0.503  0.00  0.00    -0.027 A 
ENDBRANCH  26  33
ENDBRANCH   1  26
TORSDOF 4
