REMARK  Name = ZINC08791476
REMARK  8 active torsions:
REMARK  status: ('A' for Active; 'I' for Inactive)
REMARK    1  A    between atoms: C_1  and  C_2
REMARK    2  A    between atoms: C_4  and  C_38
REMARK    3  A    between atoms: C_13  and  C_15
REMARK    4  A    between atoms: C_15  and  C_16
REMARK    5  A    between atoms: N_28  and  C_31
REMARK    6  A    between atoms: C_31  and  C_32
REMARK    7  A    between atoms: C_32  and  O_33
REMARK    8  A    between atoms: O_33  and  C_34
REMARK                            x       y       z     vdW  Elec       q    Type
REMARK                         _______ _______ _______ _____ _____    ______ ____
ROOT
ATOM      1  C   UNL     1       6.224   1.166   2.271  0.00  0.00    +0.044 C 
ATOM      2  C   UNL     1       5.822   1.539   0.867  0.00  0.00    -0.050 A 
ATOM      3  C   UNL     1       6.755   1.504  -0.153  0.00  0.00    +0.008 A 
ATOM      4  C   UNL     1       6.392   1.845  -1.440  0.00  0.00    -0.029 A 
ATOM      5  C   UNL     1       5.082   2.226  -1.721  0.00  0.00    +0.039 A 
ATOM      6  C   UNL     1       4.152   2.256  -0.686  0.00  0.00    -0.027 A 
ATOM      7  C   UNL     1       4.519   1.916   0.597  0.00  0.00    +0.008 A 
ATOM      8  C   UNL     1       2.858   2.700  -1.309  0.00  0.00    +0.050 C 
ATOM      9  C   UNL     1       2.332   3.987  -0.665  0.00  0.00    +0.088 C 
ATOM     10  C   UNL     1       1.254   3.508   0.347  0.00  0.00    +0.073 C 
ATOM     11  C   UNL     1       1.259   1.969   0.230  0.00  0.00    -0.053 C 
ATOM     12  C   UNL     1       1.833   3.905   1.686  0.00  0.00    +0.224 C 
ATOM     13  O   UNL     1       1.303   3.719   2.761  0.00  0.00    -0.275 OA
ATOM     14  N   UNL     1       3.019   4.494   1.501  0.00  0.00    -0.240 N 
ATOM     15  C   UNL     1       3.398   4.591   0.221  0.00  0.00    +0.225 C 
ATOM     16  O   UNL     1       4.434   5.085  -0.168  0.00  0.00    -0.275 OA
ATOM     17  C   UNL     1       3.176   2.905  -2.766  0.00  0.00    +0.211 C 
ATOM     18  O   UNL     1       2.407   3.265  -3.631  0.00  0.00    -0.277 OA
ATOM     19  N   UNL     1       4.481   2.610  -2.922  0.00  0.00    -0.286 N 
ATOM     20  C   UNL     1       7.416   1.804  -2.545  0.00  0.00    +0.045 C 
ATOM     21  H   UNL     1       4.949   2.659  -3.770  0.00  0.00    +0.155 HD
ATOM     22  N   UNL     1       1.808   1.718  -1.105  0.00  0.00    +0.394 N 
ATOM     23  H   UNL     1       2.195   0.768  -1.156  0.00  0.00    -0.083 HD
ATOM     24  H   UNL     1       1.076   1.828  -1.816  0.00  0.00    -0.083 HD
ENDROOT
BRANCH  11  25
ATOM     25  C   UNL     1      -0.164   1.420   0.360  0.00  0.00    +0.022 C 
BRANCH  25  26
ATOM     26  C   UNL     1      -0.122  -0.086   0.367  0.00  0.00    -0.024 A 
ATOM     27  C   UNL     1      -0.290  -0.894  -0.693  0.00  0.00    +0.087 A 
ATOM     28  N   UNL     1      -0.185  -2.201  -0.303  0.00  0.00    -0.360 N 
ATOM     29  H   UNL     1      -0.270  -2.967  -0.893  0.00  0.00    +0.165 HD
ATOM     30  C   UNL     1       0.058  -2.269   1.050  0.00  0.00    +0.047 A 
ATOM     31  C   UNL     1       0.114  -0.947   1.528  0.00  0.00    +0.003 A 
ATOM     32  C   UNL     1       0.344  -0.705   2.884  0.00  0.00    +0.010 A 
ATOM     33  C   UNL     1       0.525  -1.756   3.739  0.00  0.00    +0.001 A 
ATOM     34  C   UNL     1       0.477  -3.062   3.271  0.00  0.00    +0.002 A 
ATOM     35  C   UNL     1       0.245  -3.323   1.938  0.00  0.00    +0.026 A 
ENDBRANCH  25  26
ENDBRANCH  11  25
BRANCH  14  36
ATOM     36  C   UNL     1       3.837   4.994   2.608  0.00  0.00    +0.144 C 
BRANCH  36  37
ATOM     37  C   UNL     1       3.564   6.485   2.812  0.00  0.00    +0.179 C 
BRANCH  37  38
ATOM     38  O   UNL     1       2.213   6.668   3.240  0.00  0.00    -0.381 OA
ATOM     39  C   UNL     1       1.885   8.020   3.567  0.00  0.00    +0.194 C 
ENDBRANCH  37  38
ENDBRANCH  36  37
ENDBRANCH  14  36
TORSDOF 5
