REMARK  Name = ZINC01822324
REMARK  7 active torsions:
REMARK  status: ('A' for Active; 'I' for Inactive)
REMARK    1  A    between atoms: C_1  and  C_2
REMARK    2  A    between atoms: C_5  and  C_8
REMARK    3  A    between atoms: C_9  and  C_19
REMARK    4  A    between atoms: N_11  and  C_13
REMARK    5  A    between atoms: C_22  and  C_33
REMARK    6  A    between atoms: C_25  and  C_27
REMARK    7  A    between atoms: C_36  and  C_39
REMARK                            x       y       z     vdW  Elec       q    Type
REMARK                         _______ _______ _______ _____ _____    ______ ____
ROOT
ATOM      1  C   UNL     1       1.719  -4.607   1.948  0.00  0.00    +0.155 C 
ATOM      2  C   UNL     1       3.038  -4.143   1.373  0.00  0.00    +0.027 C 
ATOM      3  C   UNL     1       3.990  -4.917   1.887  0.00  0.00    +0.050 C 
ATOM      4  N   UNL     1       3.463  -5.863   2.756  0.00  0.00    -0.260 N 
ATOM      5  N   UNL     1       2.068  -5.725   2.839  0.00  0.00    -0.204 N 
ATOM      6  C   UNL     1       1.221  -6.465   3.581  0.00  0.00    +0.299 C 
ATOM      7  O   UNL     1       0.026  -6.233   3.555  0.00  0.00    -0.265 OA
ATOM      8  H   UNL     1       3.983  -6.525   3.236  0.00  0.00    +0.170 HD
ENDROOT
BRANCH   3   9
ATOM      9  C   UNL     1       5.432  -4.785   1.574  0.00  0.00    -0.003 A 
ATOM     10  C   UNL     1       5.869  -3.798   0.691  0.00  0.00    +0.010 A 
ATOM     11  C   UNL     1       7.213  -3.680   0.403  0.00  0.00    +0.004 A 
ATOM     12  C   UNL     1       8.126  -4.539   0.987  0.00  0.00    -0.050 A 
ATOM     13  C   UNL     1       7.699  -5.521   1.863  0.00  0.00    +0.004 A 
ATOM     14  C   UNL     1       6.358  -5.644   2.164  0.00  0.00    +0.010 A 
ATOM     15  C   UNL     1       9.593  -4.406   0.667  0.00  0.00    +0.044 C 
ENDBRANCH   3   9
BRANCH   6  16
ATOM     16  C   UNL     1       1.738  -7.550   4.420  0.00  0.00    +0.192 A 
ATOM     17  C   UNL     1       0.993  -8.376   5.213  0.00  0.00    +0.056 A 
ATOM     18  C   UNL     1       1.890  -9.260   5.831  0.00  0.00    +0.058 A 
ATOM     19  C   UNL     1       3.130  -8.939   5.394  0.00  0.00    +0.171 A 
ATOM     20  O   UNL     1       3.033  -7.912   4.540  0.00  0.00    -0.444 OA
ATOM     21 BR   UNL     1       4.734  -9.803   5.900  0.00  0.00    -0.008 Br
ENDBRANCH   6  16
BRANCH   1  23
ATOM     22  C   UNL     1      -0.121  -4.284   0.141  0.00  0.00    +0.098 A 
ATOM     23  C   UNL     1       0.803  -5.078   0.848  0.00  0.00    +0.024 A 
ATOM     24  C   UNL     1       0.724  -6.337   0.364  0.00  0.00    +0.121 A 
ATOM     25  N   UNL     1      -0.216  -6.349  -0.616  0.00  0.00    -0.239 N 
ATOM     26  N   UNL     1      -0.736  -5.053  -0.734  0.00  0.00    -0.166 NA
BRANCH  22  31
ATOM     27  C   UNL     1      -1.068   1.339   0.954  0.00  0.00    +0.044 C 
ATOM     28  C   UNL     1      -0.820  -0.133   0.741  0.00  0.00    -0.050 A 
ATOM     29  C   UNL     1      -0.734  -0.638  -0.544  0.00  0.00    +0.004 A 
ATOM     30  C   UNL     1      -0.507  -1.985  -0.744  0.00  0.00    +0.010 A 
ATOM     31  C   UNL     1      -0.365  -2.835   0.350  0.00  0.00    +0.002 A 
ATOM     32  C   UNL     1      -0.452  -2.321   1.642  0.00  0.00    +0.010 A 
ATOM     33  C   UNL     1      -0.674  -0.971   1.831  0.00  0.00    +0.004 A 
ENDBRANCH  22  31
BRANCH  25  34
ATOM     34  C   UNL     1      -0.603  -7.462  -1.373  0.00  0.00    +0.065 A 
ATOM     35  C   UNL     1      -0.012  -8.698  -1.145  0.00  0.00    +0.028 A 
ATOM     36  C   UNL     1      -0.396  -9.794  -1.893  0.00  0.00    +0.002 A 
ATOM     37  C   UNL     1      -1.367  -9.662  -2.868  0.00  0.00    +0.000 A 
ATOM     38  C   UNL     1      -1.957  -8.432  -3.098  0.00  0.00    +0.002 A 
ATOM     39  C   UNL     1      -1.583  -7.334  -2.349  0.00  0.00    +0.028 A 
ENDBRANCH  25  34
ENDBRANCH   1  23
TORSDOF 5
