REMARK  Name = ZINC12637845
REMARK  7 active torsions:
REMARK  status: ('A' for Active; 'I' for Inactive)
REMARK    1  A    between atoms: C_3  and  N_8
REMARK    2  A    between atoms: N_8  and  C_9
REMARK    3  A    between atoms: C_9  and  C_11
REMARK    4  A    between atoms: C_9  and  C_18
REMARK    5  A    between atoms: C_14  and  O_17
REMARK    6  A    between atoms: N_20  and  C_21
REMARK    7  A    between atoms: C_26  and  C_28
REMARK                            x       y       z     vdW  Elec       q    Type
REMARK                         _______ _______ _______ _____ _____    ______ ____
ROOT
ATOM      1  N   UNL     1       4.025  -1.781   0.138  0.00  0.00    -0.251 N 
ATOM      2  C   UNL     1       3.777  -0.767  -0.715  0.00  0.00    +0.252 C 
ATOM      3  O   UNL     1       3.290   0.268  -0.303  0.00  0.00    -0.270 OA
ENDROOT
BRANCH   2   4
ATOM      4  C   UNL     1       4.098  -0.914  -2.148  0.00  0.00    +0.041 A 
ATOM      5  C   UNL     1       5.083  -1.816  -2.557  0.00  0.00    +0.017 A 
ATOM      6  C   UNL     1       5.380  -1.949  -3.895  0.00  0.00    +0.050 A 
ATOM      7  C   UNL     1       4.705  -1.188  -4.843  0.00  0.00    +0.162 A 
ATOM      8  C   UNL     1       3.720  -0.289  -4.441  0.00  0.00    +0.163 A 
ATOM      9  C   UNL     1       3.417  -0.150  -3.099  0.00  0.00    +0.062 A 
ATOM     10  O   UNL     1       3.043   0.457  -5.357  0.00  0.00    -0.485 OA
ATOM     11  C   UNL     1       3.629   0.564  -6.659  0.00  0.00    +0.270 C 
ATOM     12  C   UNL     1       4.068  -0.837  -7.106  0.00  0.00    +0.270 C 
ATOM     13  O   UNL     1       5.021  -1.331  -6.157  0.00  0.00    -0.485 OA
ENDBRANCH   2   4
BRANCH   1  16
ATOM     14  C   UNL     1       3.773  -1.482   3.794  0.00  0.00    +0.005 A 
ATOM     15  C   UNL     1       4.307  -1.506   2.520  0.00  0.00    +0.024 A 
ATOM     16  C   UNL     1       3.486  -1.757   1.428  0.00  0.00    +0.040 A 
ATOM     17  C   UNL     1       2.129  -1.978   1.620  0.00  0.00    +0.062 A 
ATOM     18  C   UNL     1       1.600  -1.958   2.898  0.00  0.00    +0.125 A 
ATOM     19  C   UNL     1       2.423  -1.708   3.984  0.00  0.00    +0.038 A 
ATOM     20  F   UNL     1       0.281  -2.177   3.086  0.00  0.00    -0.205 F 
ENDBRANCH   1  16
BRANCH   1  21
ATOM     21  C   UNL     1       4.858  -2.909  -0.287  0.00  0.00    +0.197 C 
BRANCH  21  22
ATOM     22  C   UNL     1       4.934  -3.925   0.824  0.00  0.00    -0.018 A 
ATOM     23  C   UNL     1       3.806  -4.639   1.183  0.00  0.00    +0.009 A 
ATOM     24  C   UNL     1       3.873  -5.574   2.197  0.00  0.00    +0.046 A 
ATOM     25  C   UNL     1       5.072  -5.789   2.863  0.00  0.00    +0.117 A 
ATOM     26  C   UNL     1       6.200  -5.066   2.505  0.00  0.00    +0.046 A 
ATOM     27  C   UNL     1       6.129  -4.136   1.486  0.00  0.00    +0.009 A 
BRANCH  25  28
ATOM     28  O   UNL     1       5.139  -6.704   3.866  0.00  0.00    -0.507 OA
ATOM     29  H   UNL     1       4.945  -6.343   4.742  0.00  0.00    +0.292 HD
ENDBRANCH  25  28
ENDBRANCH  21  22
BRANCH  21  30
ATOM     30  C   UNL     1       4.254  -3.547  -1.511  0.00  0.00    +0.239 C 
ATOM     31  O   UNL     1       3.228  -3.104  -1.982  0.00  0.00    -0.273 OA
ATOM     32  N   UNL     1       4.853  -4.611  -2.082  0.00  0.00    -0.311 N 
ATOM     33  H   UNL     1       5.673  -4.965  -1.705  0.00  0.00    +0.149 HD
BRANCH  32  34
ATOM     34  C   UNL     1       4.265  -5.231  -3.272  0.00  0.00    +0.073 C 
ATOM     35  C   UNL     1       3.241  -6.307  -2.856  0.00  0.00    +0.022 C 
ATOM     36  C   UNL     1       3.424  -7.431  -3.905  0.00  0.00    +0.002 C 
ATOM     37  C   UNL     1       4.956  -7.442  -4.132  0.00  0.00    +0.002 C 
ATOM     38  C   UNL     1       5.356  -5.953  -4.083  0.00  0.00    +0.022 C 
ENDBRANCH  32  34
ENDBRANCH  21  30
ENDBRANCH   1  21
TORSDOF 7
