REMARK  Name = ZINC38638241
REMARK  7 active torsions:
REMARK  status: ('A' for Active; 'I' for Inactive)
REMARK    1  A    between atoms: C_4  and  N_7
REMARK    2  A    between atoms: C_9  and  C_14
REMARK    3  A    between atoms: N_16  and  C_17
REMARK    4  A    between atoms: C_17  and  C_18
REMARK    5  A    between atoms: C_18  and  C_20
REMARK    6  A    between atoms: C_18  and  N_29
REMARK    7  A    between atoms: N_32  and  C_35
REMARK                            x       y       z     vdW  Elec       q    Type
REMARK                         _______ _______ _______ _____ _____    ______ ____
ROOT
ATOM      1  C   UNL     1       7.806  -3.614  -4.412  0.00  0.00    +0.104 C 
ENDROOT
BRANCH   1   2
ATOM      2  C   UNL     1       7.678  -3.734  -5.909  0.00  0.00    -0.025 A 
ATOM      3  C   UNL     1       8.514  -4.587  -6.606  0.00  0.00    +0.009 A 
ATOM      4  C   UNL     1       8.401  -4.700  -7.979  0.00  0.00    +0.050 A 
ATOM      5  C   UNL     1       7.449  -3.959  -8.660  0.00  0.00    +0.166 A 
ATOM      6  C   UNL     1       6.608  -3.099  -7.958  0.00  0.00    +0.167 A 
ATOM      7  C   UNL     1       6.723  -2.995  -6.581  0.00  0.00    +0.054 A 
ATOM      8  O   UNL     1       5.768  -2.490  -8.845  0.00  0.00    -0.453 OA
ATOM      9  C   UNL     1       6.374  -2.675 -10.138  0.00  0.00    +0.466 C 
ATOM     10  O   UNL     1       7.137  -3.887  -9.987  0.00  0.00    -0.453 OA
ENDBRANCH   1   2
BRANCH   1  11
ATOM     11  N   UNL     1       8.339  -2.288  -4.071  0.00  0.00    -0.291 NA
ATOM     12  C   UNL     1       7.507  -1.222  -4.645  0.00  0.00    +0.104 C 
ATOM     13  C   UNL     1       7.988   0.135  -4.119  0.00  0.00    +0.120 C 
ATOM     14  N   UNL     1       9.428   0.257  -4.389  0.00  0.00    -0.325 N 
ATOM     15  C   UNL     1      10.311  -0.840  -3.964  0.00  0.00    +0.120 C 
ATOM     16  C   UNL     1       9.739  -2.159  -4.496  0.00  0.00    +0.104 C 
BRANCH  14  17
ATOM     17  C   UNL     1       9.945   1.386  -5.032  0.00  0.00    +0.065 A 
ATOM     18  C   UNL     1      10.361   2.481  -4.287  0.00  0.00    +0.026 A 
ATOM     19  C   UNL     1      10.872   3.595  -4.924  0.00  0.00    +0.002 A 
ATOM     20  C   UNL     1      10.969   3.622  -6.303  0.00  0.00    +0.003 A 
ATOM     21  C   UNL     1      10.555   2.534  -7.050  0.00  0.00    +0.040 A 
ATOM     22  C   UNL     1      10.049   1.413  -6.418  0.00  0.00    +0.144 A 
ATOM     23  F   UNL     1       9.650   0.347  -7.147  0.00  0.00    -0.204 F 
ENDBRANCH  14  17
ENDBRANCH   1  11
BRANCH   1  24
ATOM     24  C   UNL     1       6.430  -3.791  -3.768  0.00  0.00    +0.127 C 
BRANCH  24  27
ATOM     25  C   UNL     1       5.437  -3.659  -1.546  0.00  0.00    +0.218 C 
ATOM     26  O   UNL     1       4.367  -3.945  -2.040  0.00  0.00    -0.275 OA
ATOM     27  N   UNL     1       6.532  -3.557  -2.325  0.00  0.00    -0.313 N 
ATOM     28  H   UNL     1       7.388  -3.328  -1.931  0.00  0.00    +0.149 HD
BRANCH  25  31
ATOM     29  N   UNL     1       3.577  -2.246   0.655  0.00  0.00    -0.271 N 
ATOM     30  C   UNL     1       4.169  -3.588   0.624  0.00  0.00    +0.127 C 
ATOM     31  C   UNL     1       5.543  -3.418  -0.062  0.00  0.00    +0.101 C 
ATOM     32  C   UNL     1       5.862  -1.935   0.237  0.00  0.00    +0.110 C 
ATOM     33  C   UNL     1       4.505  -1.298   0.440  0.00  0.00    +0.221 C 
ATOM     34  O   UNL     1       4.287  -0.105   0.415  0.00  0.00    -0.275 OA
BRANCH  29  38
ATOM     35  C   UNL     1      -0.465  -1.474   1.305  0.00  0.00    +0.000 A 
ATOM     36  C   UNL     1       0.435  -0.426   1.231  0.00  0.00    +0.002 A 
ATOM     37  C   UNL     1       1.775  -0.678   1.016  0.00  0.00    +0.023 A 
ATOM     38  C   UNL     1       2.220  -1.986   0.874  0.00  0.00    +0.036 A 
ATOM     39  C   UNL     1       1.314  -3.037   0.948  0.00  0.00    +0.023 A 
ATOM     40  C   UNL     1      -0.026  -2.777   1.163  0.00  0.00    +0.002 A 
ENDBRANCH  29  38
ENDBRANCH  25  31
ENDBRANCH  24  27
ENDBRANCH   1  24
TORSDOF 7
