REMARK  Name = ZINC08789996
REMARK  3 active torsions:
REMARK  status: ('A' for Active; 'I' for Inactive)
REMARK    1  A    between atoms: C_4  and  N_7
REMARK    2  A    between atoms: C_12  and  C_29
REMARK    3  A    between atoms: C_29  and  C_30
REMARK                            x       y       z     vdW  Elec       q    Type
REMARK                         _______ _______ _______ _____ _____    ______ ____
ROOT
ATOM      1  N   UNL     1       6.250   3.684   1.310  0.00  0.00    -0.210 N 
ATOM      2  C   UNL     1       6.763   2.481   1.026  0.00  0.00    +0.228 C 
ATOM      3  O   UNL     1       7.945   2.227   0.936  0.00  0.00    -0.275 OA
ATOM      4  C   UNL     1       5.630   1.474   0.839  0.00  0.00    +0.074 C 
ATOM      5  C   UNL     1       5.570   1.039  -0.641  0.00  0.00    -0.053 C 
ATOM      6  C   UNL     1       3.670   2.358  -0.319  0.00  0.00    +0.050 C 
ATOM      7  C   UNL     1       4.362   2.347   1.050  0.00  0.00    +0.088 C 
ATOM      8  C   UNL     1       4.913   3.722   1.351  0.00  0.00    +0.229 C 
ATOM      9  O   UNL     1       4.248   4.706   1.593  0.00  0.00    -0.275 OA
ATOM     10  C   UNL     1       2.559   1.348  -0.383  0.00  0.00    -0.026 A 
ATOM     11  C   UNL     1       2.512  -0.019  -0.226  0.00  0.00    +0.024 A 
ATOM     12  C   UNL     1       1.306  -0.688  -0.343  0.00  0.00    +0.041 A 
ATOM     13  C   UNL     1       0.149   0.021  -0.618  0.00  0.00    +0.022 A 
ATOM     14  C   UNL     1       0.194   1.391  -0.777  0.00  0.00    +0.025 A 
ATOM     15  C   UNL     1       1.403   2.071  -0.662  0.00  0.00    +0.036 A 
ATOM     16  N   UNL     1       1.701   3.431  -0.781  0.00  0.00    -0.286 N 
ATOM     17  C   UNL     1       3.011   3.683  -0.593  0.00  0.00    +0.211 C 
ATOM     18  O   UNL     1       3.554   4.766  -0.635  0.00  0.00    -0.277 OA
ATOM     19 CL   UNL     1       1.244  -2.412  -0.146  0.00  0.00    -0.084 Cl
ATOM     20  H   UNL     1       1.041   4.114  -0.976  0.00  0.00    +0.155 HD
ATOM     21  N   UNL     1       4.720   2.050  -1.273  0.00  0.00    +0.394 N 
ATOM     22  H   UNL     1       4.315   1.681  -2.141  0.00  0.00    -0.083 HD
ATOM     23  H   UNL     1       5.268   2.893  -1.483  0.00  0.00    -0.083 HD
ENDROOT
BRANCH   1  27
ATOM     24  C   UNL     1       8.624   7.038   2.011  0.00  0.00    +0.000 A 
ATOM     25  C   UNL     1       8.585   6.472   0.750  0.00  0.00    +0.002 A 
ATOM     26  C   UNL     1       7.799   5.361   0.515  0.00  0.00    +0.024 A 
ATOM     27  C   UNL     1       7.049   4.812   1.546  0.00  0.00    +0.044 A 
ATOM     28  C   UNL     1       7.086   5.386   2.809  0.00  0.00    +0.024 A 
ATOM     29  C   UNL     1       7.878   6.493   3.040  0.00  0.00    +0.002 A 
ENDBRANCH   1  27
BRANCH   5  30
ATOM     30  C   UNL     1       6.974   1.029  -1.250  0.00  0.00    +0.022 C 
BRANCH  30  31
ATOM     31  C   UNL     1       6.908   0.485  -2.654  0.00  0.00    -0.024 A 
ATOM     32  C   UNL     1       7.122  -0.786  -3.029  0.00  0.00    +0.087 A 
ATOM     33  N   UNL     1       6.975  -0.904  -4.384  0.00  0.00    -0.360 N 
ATOM     34  H   UNL     1       7.080  -1.727  -4.886  0.00  0.00    +0.165 HD
ATOM     35  C   UNL     1       6.654   0.319  -4.928  0.00  0.00    +0.047 A 
ATOM     36  C   UNL     1       6.592   1.242  -3.868  0.00  0.00    +0.003 A 
ATOM     37  C   UNL     1       6.277   2.577  -4.124  0.00  0.00    +0.010 A 
ATOM     38  C   UNL     1       6.027   2.982  -5.405  0.00  0.00    +0.001 A 
ATOM     39  C   UNL     1       6.083   2.075  -6.454  0.00  0.00    +0.002 A 
ATOM     40  C   UNL     1       6.399   0.753  -6.225  0.00  0.00    +0.026 A 
ENDBRANCH  30  31
ENDBRANCH   5  30
TORSDOF 3
