REMARK  Name = ZINC05910300
REMARK  4 active torsions:
REMARK  status: ('A' for Active; 'I' for Inactive)
REMARK    1  A    between atoms: C_1  and  C_2
REMARK    2  A    between atoms: C_2  and  C_18
REMARK    3  A    between atoms: N_3  and  N_4
REMARK    4  A    between atoms: C_8  and  C_11
REMARK                            x       y       z     vdW  Elec       q    Type
REMARK                         _______ _______ _______ _____ _____    ______ ____
ROOT
ATOM      1  N   UNL     1       0.024  -0.026   2.253  0.00  0.00    -0.124 NA
ATOM      2  C   UNL     1       0.044  -0.694   3.395  0.00  0.00    +0.192 A 
ATOM      3  N   UNL     1       0.070  -2.052   3.607  0.00  0.00    -0.332 N 
ATOM      4  H   UNL     1       0.076  -2.670   2.859  0.00  0.00    +0.168 HD
ATOM      5  C   UNL     1       0.087  -2.515   4.893  0.00  0.00    +0.055 A 
ATOM      6  C   UNL     1       0.078  -1.638   5.919  0.00  0.00    +0.075 A 
ATOM      7  S   UNL     1       0.051  -0.068   5.068  0.00  0.00    -0.056 S 
ENDROOT
BRANCH   5   8
ATOM      8  C   UNL     1       0.115  -3.970   5.160  0.00  0.00    -0.001 A 
ATOM      9  C   UNL     1       0.129  -4.876   4.098  0.00  0.00    +0.011 A 
ATOM     10  C   UNL     1       0.155  -6.231   4.353  0.00  0.00    +0.016 A 
ATOM     11  C   UNL     1       0.166  -6.693   5.658  0.00  0.00    +0.018 A 
ATOM     12  C   UNL     1       0.151  -5.799   6.715  0.00  0.00    +0.016 A 
ATOM     13  C   UNL     1       0.132  -4.441   6.473  0.00  0.00    +0.011 A 
ATOM     14 BR   UNL     1       0.201  -8.553   5.998  0.00  0.00    -0.050 Br
ENDBRANCH   5   8
BRANCH   1  17
ATOM     15  C   UNL     1      -0.018   1.503   0.010  0.00  0.00    +0.069 C 
ATOM     16  C   UNL     1       0.002  -0.004   0.002  0.00  0.00    +0.074 C 
ATOM     17  N   UNL     1       0.022  -0.665   1.132  0.00  0.00    -0.151 NA
BRANCH  16  18
ATOM     18  C   UNL     1      -0.000  -0.729  -1.269  0.00  0.00    +0.035 A 
ATOM     19  C   UNL     1       0.011  -2.096  -1.496  0.00  0.00    +0.017 A 
ATOM     20  C   UNL     1       0.006  -2.542  -2.798  0.00  0.00    +0.008 A 
ATOM     21  C   UNL     1      -0.009  -1.637  -3.810  0.00  0.00    +0.046 A 
ATOM     22  S   UNL     1      -0.025  -0.083  -2.933  0.00  0.00    -0.095 S 
ENDBRANCH  16  18
ENDBRANCH   1  17
TORSDOF 3
