REMARK  Name = ZINC19641082
REMARK  4 active torsions:
REMARK  status: ('A' for Active; 'I' for Inactive)
REMARK    1  A    between atoms: C_1  and  C_2
REMARK    2  A    between atoms: C_14  and  S_16
REMARK    3  A    between atoms: S_16  and  C_17
REMARK    4  A    between atoms: C_17  and  C_18
REMARK                            x       y       z     vdW  Elec       q    Type
REMARK                         _______ _______ _______ _____ _____    ______ ____
ROOT
ATOM      1  C   UNL     1      -1.332   2.121   0.020  0.00  0.00    +0.046 C 
ATOM      2  C   UNL     1      -0.017   1.386   0.010  0.00  0.00    -0.026 A 
ATOM      3  C   UNL     1       1.167   2.093   0.002  0.00  0.00    +0.005 A 
ATOM      4  C   UNL     1       2.384   1.430  -0.012  0.00  0.00    +0.001 A 
ATOM      5  C   UNL     1       2.423   0.052  -0.020  0.00  0.00    +0.012 A 
ATOM      6  C   UNL     1       1.235  -0.675  -0.013  0.00  0.00    +0.029 A 
ATOM      7  C   UNL     1       0.002  -0.004   0.002  0.00  0.00    +0.053 A 
ATOM      8  N   UNL     1      -1.010  -0.950   0.007  0.00  0.00    -0.337 N 
ATOM      9  H   UNL     1      -2.063  -0.629   0.018  0.00  0.00    +0.167 HD
ATOM     10  C   UNL     1      -0.482  -2.217  -0.005  0.00  0.00    +0.162 A 
ATOM     11  C   UNL     1       0.924  -2.115  -0.018  0.00  0.00    +0.137 A 
ATOM     12  N   UNL     1       1.657  -3.218  -0.030  0.00  0.00    -0.143 NA
ATOM     13  N   UNL     1       1.086  -4.374  -0.030  0.00  0.00    -0.122 NA
ATOM     14  C   UNL     1      -0.237  -4.496  -0.018  0.00  0.00    +0.212 A 
ATOM     15  N   UNL     1      -1.027  -3.429  -0.006  0.00  0.00    -0.201 NA
ENDROOT
BRANCH  14  16
ATOM     16  S   UNL     1      -0.957  -6.104  -0.019  0.00  0.00    -0.073 S 
BRANCH  16  17
ATOM     17  C   UNL     1       0.541  -7.119  -0.038  0.00  0.00    +0.202 C 
BRANCH  17  18
ATOM     18  C   UNL     1       0.161  -8.577  -0.041  0.00  0.00    +0.366 C 
ATOM     19  O   UNL     1      -1.004  -8.897  -0.031  0.00  0.00    -0.245 OA
ATOM     20  O   UNL     1       1.116  -9.520  -0.055  0.00  0.00    -0.245 OA
ENDBRANCH  17  18
ENDBRANCH  16  17
ENDBRANCH  14  16
TORSDOF 3
