REMARK  Name = ZINC21895078
REMARK  6 active torsions:
REMARK  status: ('A' for Active; 'I' for Inactive)
REMARK    1  A    between atoms: C_1  and  C_2
REMARK    2  A    between atoms: C_6  and  C_19
REMARK    3  A    between atoms: N_8  and  C_9
REMARK    4  A    between atoms: C_14  and  C_15
REMARK    5  A    between atoms: N_21  and  N_22
REMARK    6  A    between atoms: C_23  and  C_25
REMARK                            x       y       z     vdW  Elec       q    Type
REMARK                         _______ _______ _______ _____ _____    ______ ____
ROOT
ATOM      1  C   UNL     1       3.486   1.697   0.206  0.00  0.00    +0.066 C 
ATOM      2  C   UNL     1       3.518   3.199   0.096  0.00  0.00    +0.044 A 
ATOM      3  C   UNL     1       4.683   3.860   0.300  0.00  0.00    +0.076 A 
ATOM      4  C   UNL     1       4.670   5.275   0.193  0.00  0.00    +0.213 A 
ATOM      5  O   UNL     1       5.682   5.935   0.368  0.00  0.00    -0.285 OA
ATOM      6  C   UNL     1       3.386   5.912  -0.140  0.00  0.00    +0.194 A 
ATOM      7  N   UNL     1       2.328   5.149  -0.318  0.00  0.00    -0.158 NA
ATOM      8  N   UNL     1       2.382   3.873  -0.212  0.00  0.00    -0.236 N 
ENDROOT
BRANCH   8   9
ATOM      9  C   UNL     1       1.210   3.138  -0.418  0.00  0.00    +0.077 A 
ATOM     10  C   UNL     1       0.962   2.556  -1.655  0.00  0.00    +0.028 A 
ATOM     11  C   UNL     1      -0.197   1.831  -1.854  0.00  0.00    +0.002 A 
ATOM     12  C   UNL     1      -1.112   1.689  -0.827  0.00  0.00    +0.001 A 
ATOM     13  C   UNL     1      -0.865   2.263   0.407  0.00  0.00    +0.014 A 
ATOM     14  C   UNL     1       0.291   2.990   0.613  0.00  0.00    +0.080 A 
BRANCH  14  15
ATOM     15  C   UNL     1       0.557   3.619   1.957  0.00  0.00    +0.419 C 
ATOM     16  F   UNL     1      -0.503   3.332   2.824  0.00  0.00    -0.166 F 
ATOM     17  F   UNL     1       1.745   3.105   2.486  0.00  0.00    -0.166 F 
ATOM     18  F   UNL     1       0.674   5.005   1.807  0.00  0.00    -0.166 F 
ENDBRANCH  14  15
ENDBRANCH   8   9
BRANCH   6  19
ATOM     19  C   UNL     1       3.286   7.379  -0.271  0.00  0.00    +0.284 C 
ATOM     20  O   UNL     1       4.271   8.073  -0.103  0.00  0.00    -0.267 OA
ATOM     21  N   UNL     1       2.104   7.950  -0.576  0.00  0.00    -0.229 N 
ATOM     22  H   UNL     1       1.213   7.322  -0.727  0.00  0.00    +0.173 HD
BRANCH  21  23
ATOM     23  N   UNL     1       2.009   9.342  -0.700  0.00  0.00    -0.234 N 
ATOM     24  C   UNL     1       0.827   9.912  -1.006  0.00  0.00    +0.235 C 
ATOM     25  O   UNL     1      -0.155   9.220  -1.173  0.00  0.00    -0.274 OA
ATOM     26  H   UNL     1       2.900   9.970  -0.549  0.00  0.00    +0.173 HD
BRANCH  24  27
ATOM     27  C   UNL     1       0.725  11.410  -1.139  0.00  0.00    +0.049 C 
ATOM     28  C   UNL     1       1.123  12.068   0.183  0.00  0.00    +0.019 C 
ATOM     29  C   UNL     1       1.019  13.589   0.047  0.00  0.00    -0.009 C 
ATOM     30  C   UNL     1      -0.420  13.973  -0.301  0.00  0.00    +0.007 C 
ATOM     31  C   UNL     1      -0.818  13.315  -1.624  0.00  0.00    -0.009 C 
ATOM     32  C   UNL     1      -0.714  11.794  -1.488  0.00  0.00    +0.019 C 
ATOM     33  C   UNL     1       0.121  13.792  -2.734  0.00  0.00    +0.007 C 
ATOM     34  C   UNL     1       1.560  13.408  -2.385  0.00  0.00    -0.009 C 
ATOM     35  C   UNL     1       1.958  14.067  -1.063  0.00  0.00    +0.007 C 
ATOM     36  C   UNL     1       1.663  11.888  -2.249  0.00  0.00    +0.019 C 
ENDBRANCH  24  27
ENDBRANCH  21  23
ENDBRANCH   6  19
TORSDOF 5
