REMARK  Name = ZINC00888010
REMARK  12 active torsions:
REMARK  status: ('A' for Active; 'I' for Inactive)
REMARK    1  A    between atoms: C_1  and  C_2
REMARK    2  A    between atoms: C_2  and  C_3
REMARK    3  A    between atoms: C_2  and  C_4
REMARK    4  A    between atoms: C_4  and  C_5
REMARK    5  A    between atoms: C_5  and  C_7
REMARK    6  A    between atoms: C_5  and  N_18
REMARK    7  A    between atoms: N_9  and  C_10
REMARK    8  A    between atoms: C_10  and  C_11
REMARK    9  A    between atoms: N_18  and  C_19
REMARK   10  A    between atoms: C_24  and  C_26
REMARK   11  A    between atoms: C_26  and  N_27
REMARK   12  A    between atoms: C_29  and  C_32
REMARK                            x       y       z     vdW  Elec       q    Type
REMARK                         _______ _______ _______ _____ _____    ______ ____
ROOT
ATOM      1  N   UNL     1      -2.934   3.260   1.624  0.00  0.00    -0.285 N 
ATOM      2  C   UNL     1      -1.872   2.498   1.297  0.00  0.00    +0.240 C 
ATOM      3  O   UNL     1      -1.173   2.026   2.169  0.00  0.00    -0.273 OA
ENDROOT
BRANCH   1   4
ATOM      4  C   UNL     1      -3.845   3.734   0.578  0.00  0.00    +0.077 C 
ATOM      5  C   UNL     1      -4.964   4.593   1.202  0.00  0.00    +0.022 C 
ATOM      6  C   UNL     1      -6.224   4.231   0.376  0.00  0.00    +0.002 C 
ATOM      7  C   UNL     1      -6.049   2.712   0.131  0.00  0.00    +0.002 C 
ATOM      8  C   UNL     1      -4.534   2.539  -0.103  0.00  0.00    +0.022 C 
ENDBRANCH   1   4
BRANCH   1   9
ATOM      9  C   UNL     1      -3.179   3.615   3.024  0.00  0.00    +0.162 C 
BRANCH   9  10
ATOM     10  C   UNL     1      -4.497   3.034   3.466  0.00  0.00    +0.234 C 
ATOM     11  O   UNL     1      -5.167   2.388   2.688  0.00  0.00    -0.274 OA
ATOM     12  N   UNL     1      -4.933   3.233   4.726  0.00  0.00    -0.310 N 
ATOM     13  H   UNL     1      -4.397   3.750   5.348  0.00  0.00    +0.149 HD
BRANCH  12  14
ATOM     14  C   UNL     1      -6.214   2.669   5.156  0.00  0.00    +0.139 C 
BRANCH  14  15
ATOM     15  C   UNL     1      -6.466   3.034   6.597  0.00  0.00    -0.030 A 
ATOM     16  C   UNL     1      -6.028   2.198   7.607  0.00  0.00    +0.008 A 
ATOM     17  C   UNL     1      -6.254   2.534   8.929  0.00  0.00    +0.038 A 
ATOM     18  C   UNL     1      -6.928   3.703   9.240  0.00  0.00    +0.123 A 
ATOM     19  C   UNL     1      -7.370   4.536   8.227  0.00  0.00    +0.038 A 
ATOM     20  C   UNL     1      -7.139   4.201   6.906  0.00  0.00    +0.008 A 
ATOM     21  F   UNL     1      -7.153   4.030  10.531  0.00  0.00    -0.205 F 
ENDBRANCH  14  15
ENDBRANCH  12  14
ENDBRANCH   9  10
BRANCH   9  22
ATOM     22  C   UNL     1      -3.219   5.138   3.165  0.00  0.00    +0.035 C 
BRANCH  22  24
ATOM     23  C   UNL     1      -1.491   5.568   1.413  0.00  0.00    +0.007 C 
ATOM     24  C   UNL     1      -1.826   5.712   2.899  0.00  0.00    -0.015 C 
ATOM     25  C   UNL     1      -1.801   7.191   3.287  0.00  0.00    +0.007 C 
ENDBRANCH  22  24
ENDBRANCH   9  22
ENDBRANCH   1   9
BRANCH   2  26
ATOM     26  C   UNL     1      -1.552   2.232  -0.151  0.00  0.00    +0.264 C 
BRANCH  26  27
ATOM     27  N   UNL     1      -0.292   1.491  -0.245  0.00  0.00    -0.154 N 
ATOM     28  N   UNL     1      -0.180   0.207  -0.243  0.00  0.00    -0.130 NA
ATOM     29  C   UNL     1       1.101  -0.086  -0.348  0.00  0.00    +0.207 A 
ATOM     30  N   UNL     1       1.758   1.080  -0.413  0.00  0.00    -0.108 NA
ATOM     31  N   UNL     1       0.877   2.020  -0.348  0.00  0.00    -0.045 NA
BRANCH  29  32
ATOM     32  C   UNL     1       1.699  -1.444  -0.386  0.00  0.00    +0.058 A 
ATOM     33  C   UNL     1       0.884  -2.570  -0.302  0.00  0.00    +0.014 A 
ATOM     34  C   UNL     1       1.445  -3.831  -0.344  0.00  0.00    +0.001 A 
ATOM     35  C   UNL     1       2.816  -3.978  -0.457  0.00  0.00    +0.003 A 
ATOM     36  C   UNL     1       3.632  -2.865  -0.536  0.00  0.00    +0.039 A 
ATOM     37  C   UNL     1       3.081  -1.597  -0.501  0.00  0.00    +0.134 A 
ATOM     38  F   UNL     1       3.879  -0.510  -0.577  0.00  0.00    -0.205 F 
ENDBRANCH  29  32
ENDBRANCH  26  27
ENDBRANCH   2  26
TORSDOF 10
