REMARK  Name = ZINC67259181
REMARK  9 active torsions:
REMARK  status: ('A' for Active; 'I' for Inactive)
REMARK    1  A    between atoms: C_1  and  C_2
REMARK    2  A    between atoms: C_2  and  O_3
REMARK    3  A    between atoms: O_3  and  C_4
REMARK    4  A    between atoms: C_4  and  C_5
REMARK    5  A    between atoms: C_5  and  C_6
REMARK    6  A    between atoms: C_6  and  N_7
REMARK    7  A    between atoms: C_17  and  S_18
REMARK    8  A    between atoms: S_18  and  C_19
REMARK    9  A    between atoms: C_19  and  C_20
REMARK                            x       y       z     vdW  Elec       q    Type
REMARK                         _______ _______ _______ _____ _____    ______ ____
ROOT
ATOM      1  N   UNL     1       2.259  -4.151  -3.917  0.00  0.00    -0.287 N 
ATOM      2  C   UNL     1       1.558  -4.322  -5.062  0.00  0.00    +0.262 A 
ATOM      3  O   UNL     1       0.350  -4.181  -5.090  0.00  0.00    -0.267 OA
ATOM      4  C   UNL     1       2.312  -4.683  -6.271  0.00  0.00    +0.065 A 
ATOM      5  C   UNL     1       1.683  -4.881  -7.499  0.00  0.00    +0.015 A 
ATOM      6  C   UNL     1       2.432  -5.216  -8.593  0.00  0.00    +0.001 A 
ATOM      7  C   UNL     1       3.810  -5.361  -8.493  0.00  0.00    +0.002 A 
ATOM      8  C   UNL     1       4.452  -5.173  -7.302  0.00  0.00    +0.028 A 
ATOM      9  C   UNL     1       3.714  -4.830  -6.165  0.00  0.00    +0.079 A 
ATOM     10  N   UNL     1       4.307  -4.634  -4.970  0.00  0.00    -0.223 NA
ATOM     11  C   UNL     1       3.616  -4.307  -3.906  0.00  0.00    +0.172 A 
ENDROOT
BRANCH   1  12
ATOM     12  C   UNL     1       1.558  -3.789  -2.683  0.00  0.00    +0.129 C 
BRANCH  12  13
ATOM     13  C   UNL     1       1.478  -2.265  -2.569  0.00  0.00    +0.050 C 
BRANCH  13  14
ATOM     14  C   UNL     1       0.746  -1.888  -1.280  0.00  0.00    +0.161 C 
BRANCH  14  15
ATOM     15  O   UNL     1       0.671  -0.465  -1.174  0.00  0.00    -0.380 OA
BRANCH  15  17
ATOM     16  C   UNL     1      -0.019   1.526   0.010  0.00  0.00    +0.034 C 
ATOM     17  C   UNL     1       0.002  -0.004   0.002  0.00  0.00    +0.156 C 
ENDBRANCH  15  17
ENDBRANCH  14  15
ENDBRANCH  13  14
ENDBRANCH  12  13
ENDBRANCH   1  12
BRANCH  11  18
ATOM     18  S   UNL     1       4.476  -4.065  -2.387  0.00  0.00    -0.083 S 
BRANCH  18  19
ATOM     19  C   UNL     1       6.213  -4.366  -2.815  0.00  0.00    +0.115 C 
BRANCH  19  20
ATOM     20  C   UNL     1       7.070  -4.189  -1.588  0.00  0.00    +0.001 A 
ATOM     21  C   UNL     1       7.595  -2.947  -1.284  0.00  0.00    +0.045 A 
ATOM     22  C   UNL     1       8.381  -2.785  -0.157  0.00  0.00    +0.124 A 
ATOM     23  C   UNL     1       8.643  -3.867   0.667  0.00  0.00    +0.041 A 
ATOM     24  C   UNL     1       8.119  -5.109   0.363  0.00  0.00    +0.041 A 
ATOM     25  C   UNL     1       7.328  -5.270  -0.762  0.00  0.00    +0.128 A 
ATOM     26  F   UNL     1       6.811  -6.483  -1.056  0.00  0.00    -0.205 F 
ATOM     27  F   UNL     1       8.894  -1.571   0.140  0.00  0.00    -0.205 F 
ENDBRANCH  19  20
ENDBRANCH  18  19
ENDBRANCH  11  18
TORSDOF 8
