REMARK  Name = ZINC37933873
REMARK  4 active torsions:
REMARK  status: ('A' for Active; 'I' for Inactive)
REMARK    1  A    between atoms: C_1  and  S_2
REMARK    2  A    between atoms: S_2  and  C_5
REMARK    3  A    between atoms: C_8  and  C_11
REMARK    4  A    between atoms: C_13  and  C_16
REMARK                            x       y       z     vdW  Elec       q    Type
REMARK                         _______ _______ _______ _____ _____    ______ ____
ROOT
ATOM      1  C   UNL     1       0.845  -0.437  -1.483  0.00  0.00    +0.088 A 
ATOM      2  C   UNL     1       0.131  -0.612  -2.655  0.00  0.00    +0.027 A 
ATOM      3  C   UNL     1       0.785  -0.952  -3.821  0.00  0.00    +0.015 A 
ATOM      4  C   UNL     1       2.171  -1.119  -3.817  0.00  0.00    +0.037 A 
ATOM      5  C   UNL     1       2.886  -0.941  -2.632  0.00  0.00    +0.015 A 
ATOM      6  C   UNL     1       2.220  -0.596  -1.474  0.00  0.00    +0.027 A 
ENDROOT
BRANCH   4   7
ATOM      7  C   UNL     1       2.878  -1.483  -5.063  0.00  0.00    +0.227 A 
ATOM      8  N   UNL     1       4.171  -1.672  -5.183  0.00  0.00    -0.213 NA
ATOM      9  C   UNL     1       4.442  -1.988  -6.458  0.00  0.00    +0.094 A 
ATOM     10  C   UNL     1       3.281  -1.993  -7.137  0.00  0.00    +0.222 A 
ATOM     11  O   UNL     1       2.304  -1.682  -6.262  0.00  0.00    -0.443 OA
BRANCH   9  12
ATOM     12  C   UNL     1       5.805  -2.285  -7.028  0.00  0.00    +0.167 C 
ATOM     13 CL   UNL     1       6.142  -4.051  -6.892  0.00  0.00    -0.119 Cl
ENDBRANCH   9  12
ENDBRANCH   4   7
BRANCH   1  15
ATOM     14  C   UNL     1      -0.022   1.810   0.012  0.00  0.00    +0.200 C 
ATOM     15  S   UNL     1       0.002  -0.004   0.002  0.00  0.00    -0.006 S 
ATOM     16  O   UNL     1       0.835  -0.488   1.046  0.00  0.00    -0.170 OA
ATOM     17  O   UNL     1      -1.315  -0.510  -0.168  0.00  0.00    -0.170 OA
ENDBRANCH   1  15
TORSDOF 3
