REMARK  Name = ZINC22390702
REMARK  9 active torsions:
REMARK  status: ('A' for Active; 'I' for Inactive)
REMARK    1  A    between atoms: C_2  and  C_3
REMARK    2  A    between atoms: C_3  and  N_4
REMARK    3  A    between atoms: C_5  and  C_7
REMARK    4  A    between atoms: C_12  and  N_13
REMARK    5  A    between atoms: C_14  and  C_16
REMARK    6  A    between atoms: C_16  and  N_17
REMARK    7  A    between atoms: N_17  and  C_18
REMARK    8  A    between atoms: N_17  and  S_25
REMARK    9  A    between atoms: S_25  and  C_28
REMARK                            x       y       z     vdW  Elec       q    Type
REMARK                         _______ _______ _______ _____ _____    ______ ____
ROOT
ATOM      1  N   UNL     1      -3.598   2.935   0.217  0.00  0.00    -0.283 N 
ATOM      2  C   UNL     1      -4.742   3.619   0.422  0.00  0.00    +0.236 C 
ATOM      3  O   UNL     1      -5.780   3.021   0.612  0.00  0.00    -0.274 OA
ATOM      4  H   UNL     1      -2.644   3.474   0.125  0.00  0.00    +0.155 HD
ENDROOT
BRANCH   1  10
ATOM      5  C   UNL     1      -2.867   0.893  -0.863  0.00  0.00    +0.058 A 
ATOM      6  C   UNL     1      -2.907  -0.501  -0.952  0.00  0.00    +0.015 A 
ATOM      7  C   UNL     1      -3.681  -1.224  -0.070  0.00  0.00    +0.001 A 
ATOM      8  C   UNL     1      -4.429  -0.576   0.899  0.00  0.00    +0.002 A 
ATOM      9  C   UNL     1      -4.403   0.801   0.997  0.00  0.00    +0.024 A 
ATOM     10  C   UNL     1      -3.626   1.546   0.120  0.00  0.00    +0.046 A 
BRANCH   5  12
ATOM     11  N   UNL     1      -1.306   1.041  -2.739  0.00  0.00    -0.308 N 
ATOM     12  C   UNL     1      -2.038   1.673  -1.800  0.00  0.00    +0.246 C 
ATOM     13  O   UNL     1      -2.014   2.886  -1.726  0.00  0.00    -0.270 OA
ATOM     14  H   UNL     1      -1.324  -0.057  -2.804  0.00  0.00    +0.149 HD
BRANCH  11  15
ATOM     15  C   UNL     1      -0.487   1.816  -3.674  0.00  0.00    +0.131 C 
BRANCH  15  17
ATOM     16  C   UNL     1       0.088   1.030  -5.913  0.00  0.00    +0.005 C 
ATOM     17  C   UNL     1       0.221   0.879  -4.619  0.00  0.00    -0.016 C 
ENDBRANCH  15  17
ENDBRANCH  11  15
ENDBRANCH   5  12
ENDBRANCH   1  10
BRANCH   2  18
ATOM     18  C   UNL     1      -4.730   5.126   0.417  0.00  0.00    +0.227 C 
BRANCH  18  19
ATOM     19  N   UNL     1      -6.085   5.626   0.661  0.00  0.00    -0.191 N 
BRANCH  19  20
ATOM     20  C   UNL     1      -6.982   5.762  -0.402  0.00  0.00    +0.087 A 
ATOM     21  C   UNL     1      -7.733   4.673  -0.824  0.00  0.00    +0.027 A 
ATOM     22  C   UNL     1      -8.622   4.812  -1.872  0.00  0.00    +0.002 A 
ATOM     23  C   UNL     1      -8.758   6.032  -2.509  0.00  0.00    +0.003 A 
ATOM     24  C   UNL     1      -8.009   7.119  -2.096  0.00  0.00    +0.040 A 
ATOM     25  C   UNL     1      -7.121   6.988  -1.044  0.00  0.00    +0.146 A 
ATOM     26  F   UNL     1      -6.388   8.050  -0.641  0.00  0.00    -0.203 F 
ENDBRANCH  19  20
BRANCH  19  27
ATOM     27  S   UNL     1      -6.554   6.029   2.198  0.00  0.00    +0.081 S 
ATOM     28  O   UNL     1      -7.952   5.790   2.271  0.00  0.00    -0.149 OA
ATOM     29  O   UNL     1      -5.627   5.411   3.080  0.00  0.00    -0.149 OA
BRANCH  27  30
ATOM     30  C   UNL     1      -6.331   7.768   2.370  0.00  0.00    +0.146 A 
ATOM     31  C   UNL     1      -7.206   8.771   2.112  0.00  0.00    +0.036 A 
ATOM     32  C   UNL     1      -6.809  10.078   2.325  0.00  0.00    +0.010 A 
ATOM     33  C   UNL     1      -5.557  10.319   2.785  0.00  0.00    +0.047 A 
ATOM     34  S   UNL     1      -4.897   8.667   2.939  0.00  0.00    -0.077 S 
ENDBRANCH  27  30
ENDBRANCH  19  27
ENDBRANCH  18  19
ENDBRANCH   2  18
TORSDOF 9
