REMARK  Name = ZINC08934516
REMARK  9 active torsions:
REMARK  status: ('A' for Active; 'I' for Inactive)
REMARK    1  A    between atoms: C_1  and  C_2
REMARK    2  A    between atoms: C_3  and  C_34
REMARK    3  A    between atoms: C_4  and  C_25
REMARK    4  A    between atoms: C_6  and  C_23
REMARK    5  A    between atoms: C_7  and  S_9
REMARK    6  A    between atoms: S_9  and  C_10
REMARK    7  A    between atoms: C_10  and  C_11
REMARK    8  A    between atoms: C_30  and  N_31
REMARK    9  A    between atoms: C_34  and  C_36
REMARK                            x       y       z     vdW  Elec       q    Type
REMARK                         _______ _______ _______ _____ _____    ______ ____
ROOT
ATOM      1  C   UNL     1      -2.597   2.728   1.122  0.00  0.00    +0.061 C 
ATOM      2  C   UNL     1      -2.166   1.411   0.529  0.00  0.00    +0.013 C 
ATOM      3  C   UNL     1      -2.965   0.332   0.654  0.00  0.00    +0.024 C 
ATOM      4  C   UNL     1      -2.578  -1.005   0.090  0.00  0.00    +0.099 C 
ATOM      5  C   UNL     1      -1.464  -0.862  -0.907  0.00  0.00    +0.069 C 
ATOM      6  C   UNL     1      -0.717   0.273  -0.973  0.00  0.00    +0.080 C 
ATOM      7  N   UNL     1      -0.974   1.330  -0.131  0.00  0.00    -0.312 N 
ATOM      8  H   UNL     1      -0.303   2.019  -0.004  0.00  0.00    +0.152 HD
ENDROOT
BRANCH   4   9
ATOM      9  C   UNL     1      -2.126  -1.904   1.212  0.00  0.00    -0.005 A 
ATOM     10  C   UNL     1      -1.268  -1.420   2.183  0.00  0.00    +0.007 A 
ATOM     11  C   UNL     1      -0.853  -2.244   3.211  0.00  0.00    +0.000 A 
ATOM     12  C   UNL     1      -1.295  -3.553   3.270  0.00  0.00    +0.002 A 
ATOM     13  C   UNL     1      -2.153  -4.036   2.301  0.00  0.00    +0.033 A 
ATOM     14  C   UNL     1      -2.572  -3.210   1.274  0.00  0.00    +0.130 A 
BRANCH  14  15
ATOM     15  N   UNL     1      -3.495  -3.727   0.238  0.00  0.00    +0.057 N 
ATOM     16  O   UNL     1      -4.419  -4.440   0.553  0.00  0.00    -0.126 OA
ATOM     17  O   UNL     1      -3.324  -3.436  -0.923  0.00  0.00    -0.126 OA
ENDBRANCH  14  15
ENDBRANCH   4   9
BRANCH   3  18
ATOM     18  C   UNL     1      -4.189   0.462   1.328  0.00  0.00    +0.159 C 
ATOM     19  O   UNL     1      -4.469   1.506   1.884  0.00  0.00    -0.293 OA
ATOM     20  C   UNL     1      -5.157  -0.693   1.363  0.00  0.00    +0.091 C 
ENDBRANCH   3  18
BRANCH   5  21
ATOM     21  C   UNL     1      -1.183  -1.941  -1.806  0.00  0.00    +0.098 C 
ATOM     22  N   UNL     1      -0.959  -2.797  -2.518  0.00  0.00    -0.191 NA
ENDBRANCH   5  21
BRANCH   6  23
ATOM     23  S   UNL     1       0.587   0.393  -2.151  0.00  0.00    -0.100 S 
BRANCH  23  24
ATOM     24  C   UNL     1       1.281   2.045  -1.871  0.00  0.00    +0.171 C 
BRANCH  24  25
ATOM     25  C   UNL     1       2.422   2.279  -2.828  0.00  0.00    +0.229 C 
ATOM     26  O   UNL     1       2.736   1.417  -3.620  0.00  0.00    -0.275 OA
ATOM     27  N   UNL     1       3.094   3.448  -2.802  0.00  0.00    -0.264 N 
ATOM     28  C   UNL     1       4.142   3.663  -3.681  0.00  0.00    +0.165 A 
ATOM     29  N   UNL     1       4.621   2.862  -4.604  0.00  0.00    -0.225 NA
ATOM     30  C   UNL     1       5.658   3.206  -5.398  0.00  0.00    +0.080 A 
ATOM     31  C   UNL     1       6.265   2.443  -6.422  0.00  0.00    +0.029 A 
ATOM     32  C   UNL     1       7.319   2.945  -7.139  0.00  0.00    +0.002 A 
ATOM     33  C   UNL     1       7.827   4.212  -6.890  0.00  0.00    +0.001 A 
ATOM     34  C   UNL     1       7.257   4.987  -5.896  0.00  0.00    +0.017 A 
ATOM     35  C   UNL     1       6.201   4.492  -5.173  0.00  0.00    +0.041 A 
ATOM     36  S   UNL     1       5.183   5.106  -3.852  0.00  0.00    -0.052 S 
ATOM     37  H   UNL     1       2.842   4.138  -2.168  0.00  0.00    +0.157 HD
ENDBRANCH  24  25
ENDBRANCH  23  24
ENDBRANCH   6  23
TORSDOF 7
