REMARK  Name = ZINC17157288
REMARK  7 active torsions:
REMARK  status: ('A' for Active; 'I' for Inactive)
REMARK    1  A    between atoms: C_1  and  C_2
REMARK    2  A    between atoms: C_5  and  S_9
REMARK    3  A    between atoms: C_7  and  C_8
REMARK    4  A    between atoms: S_9  and  N_12
REMARK    5  A    between atoms: C_15  and  C_18
REMARK    6  A    between atoms: N_20  and  N_21
REMARK    7  A    between atoms: C_22  and  C_24
REMARK                            x       y       z     vdW  Elec       q    Type
REMARK                         _______ _______ _______ _____ _____    ______ ____
ROOT
ATOM      1  C   UNL     1      -2.356   3.760  -5.645  0.00  0.00    +0.232 C 
ATOM      2  O   UNL     1      -2.136   2.595  -5.900  0.00  0.00    -0.274 OA
ATOM      3  N   UNL     1      -2.001   4.721  -6.521  0.00  0.00    -0.234 N 
ATOM      4  H   UNL     1      -2.176   5.652  -6.318  0.00  0.00    +0.173 HD
ENDROOT
BRANCH   1   8
ATOM      5  N   UNL     1      -3.217   4.241  -1.528  0.00  0.00    -0.177 NA
ATOM      6  C   UNL     1      -2.805   5.459  -2.239  0.00  0.00    +0.110 C 
ATOM      7  C   UNL     1      -2.102   5.050  -3.542  0.00  0.00    +0.030 C 
ATOM      8  C   UNL     1      -3.026   4.135  -4.348  0.00  0.00    +0.079 C 
ATOM      9  C   UNL     1      -3.322   2.868  -3.542  0.00  0.00    +0.030 C 
ATOM     10  C   UNL     1      -4.034   3.249  -2.241  0.00  0.00    +0.110 C 
BRANCH   5  11
ATOM     11  S   UNL     1      -2.775   3.993   0.049  0.00  0.00    +0.061 S 
ATOM     12  O   UNL     1      -3.732   3.102   0.604  0.00  0.00    -0.153 OA
ATOM     13  O   UNL     1      -2.517   5.275   0.604  0.00  0.00    -0.153 OA
BRANCH  11  18
ATOM     14  C   UNL     1       2.490   1.048  -0.016  0.00  0.00    +0.044 C 
ATOM     15  C   UNL     1       1.175   1.783   0.000  0.00  0.00    -0.047 A 
ATOM     16  C   UNL     1      -0.013   1.076   0.008  0.00  0.00    +0.005 A 
ATOM     17  C   UNL     1      -1.219   1.750   0.017  0.00  0.00    +0.029 A 
ATOM     18  C   UNL     1      -1.238   3.133   0.030  0.00  0.00    +0.106 A 
ATOM     19  C   UNL     1      -0.050   3.840   0.023  0.00  0.00    +0.032 A 
ATOM     20  C   UNL     1       1.157   3.165   0.008  0.00  0.00    -0.046 A 
ATOM     21  C   UNL     1       2.451   3.937  -0.001  0.00  0.00    +0.044 C 
ENDBRANCH  11  18
ENDBRANCH   5  11
ENDBRANCH   1   8
BRANCH   3  22
ATOM     22  N   UNL     1      -1.377   4.373  -7.727  0.00  0.00    -0.234 N 
ATOM     23  C   UNL     1      -1.022   5.333  -8.604  0.00  0.00    +0.235 C 
ATOM     24  O   UNL     1      -1.242   6.498  -8.349  0.00  0.00    -0.274 OA
ATOM     25  H   UNL     1      -1.202   3.441  -7.931  0.00  0.00    +0.173 HD
BRANCH  23  26
ATOM     26  C   UNL     1      -0.352   4.958  -9.900  0.00  0.00    +0.049 C 
ATOM     27  C   UNL     1       0.958   4.225  -9.604  0.00  0.00    +0.019 C 
ATOM     28  C   UNL     1       1.639   3.845 -10.921  0.00  0.00    -0.009 C 
ATOM     29  C   UNL     1       1.934   5.112 -11.727  0.00  0.00    +0.007 C 
ATOM     30  C   UNL     1       0.624   5.845 -12.023  0.00  0.00    -0.009 C 
ATOM     31  C   UNL     1      -0.056   6.225 -10.706  0.00  0.00    +0.019 C 
ATOM     32  C   UNL     1      -0.300   4.932 -12.830  0.00  0.00    +0.007 C 
ATOM     33  C   UNL     1      -0.596   3.665 -12.024  0.00  0.00    -0.009 C 
ATOM     34  C   UNL     1       0.714   2.932 -11.728  0.00  0.00    +0.007 C 
ATOM     35  C   UNL     1      -1.277   4.045 -10.707  0.00  0.00    +0.019 C 
ENDBRANCH  23  26
ENDBRANCH   3  22
TORSDOF 5
