REMARK  Name = ZINC63698938
REMARK  4 active torsions:
REMARK  status: ('A' for Active; 'I' for Inactive)
REMARK    1  A    between atoms: C_1  and  C_2
REMARK    2  A    between atoms: C_4  and  C_23
REMARK    3  A    between atoms: N_12  and  C_14
REMARK    4  A    between atoms: C_26  and  C_29
REMARK                            x       y       z     vdW  Elec       q    Type
REMARK                         _______ _______ _______ _____ _____    ______ ____
ROOT
ATOM      1  C   UNL     1      -0.010   1.499   0.047  0.00  0.00    +0.062 C 
ATOM      2  C   UNL     1       0.008  -0.007   0.037  0.00  0.00    +0.019 C 
ATOM      3  C   UNL     1      -1.055  -0.756   0.116  0.00  0.00    -0.008 C 
ATOM      4  C   UNL     1      -2.495  -0.408   0.400  0.00  0.00    +0.058 C 
ATOM      5  C   UNL     1      -2.861  -1.129   1.706  0.00  0.00    +0.108 C 
ATOM      6  C   UNL     1      -2.228  -2.480   1.792  0.00  0.00    +0.215 C 
ATOM      7  O   UNL     1      -2.731  -3.259   2.574  0.00  0.00    -0.276 OA
ATOM      8  N   UNL     1      -1.174  -2.930   1.109  0.00  0.00    -0.295 N 
ATOM      9  C   UNL     1      -0.600  -2.201  -0.015  0.00  0.00    +0.194 C 
ATOM     10  N   UNL     1       0.863  -2.111   0.030  0.00  0.00    -0.164 NA
ATOM     11  N   UNL     1       1.158  -0.775  -0.063  0.00  0.00    -0.277 N 
ATOM     12  H   UNL     1      -0.775  -3.774   1.370  0.00  0.00    +0.151 HD
ATOM     13  H   UNL     1       2.051  -0.416  -0.181  0.00  0.00    +0.166 HD
ENDROOT
BRANCH  10  14
ATOM     14  C   UNL     1       1.471  -2.858  -1.079  0.00  0.00    +0.270 C 
ATOM     15  N   UNL     1       0.957  -2.363  -2.362  0.00  0.00    -0.350 N 
ATOM     16  C   UNL     1       0.358  -3.356  -2.953  0.00  0.00    +0.061 A 
ATOM     17  C   UNL     1      -0.341  -3.479  -4.239  0.00  0.00    +0.027 A 
ATOM     18  C   UNL     1      -0.876  -4.664  -4.595  0.00  0.00    +0.002 A 
ATOM     19  C   UNL     1      -0.796  -5.807  -3.780  0.00  0.00    +0.002 A 
ATOM     20  C   UNL     1      -0.179  -5.804  -2.582  0.00  0.00    +0.027 A 
ATOM     21  C   UNL     1       0.443  -4.567  -2.090  0.00  0.00    +0.061 A 
ATOM     22  N   UNL     1       1.091  -4.275  -1.000  0.00  0.00    -0.350 N 
ATOM     23  H   UNL     1       1.047  -1.461  -2.706  0.00  0.00    +0.163 HD
ATOM     24  H   UNL     1       1.288  -4.882  -0.269  0.00  0.00    +0.163 HD
ENDBRANCH  10  14
BRANCH   4  25
ATOM     25  C   UNL     1      -2.644   1.082   0.569  0.00  0.00    -0.040 A 
ATOM     26  C   UNL     1      -2.386   1.668   1.794  0.00  0.00    +0.005 A 
ATOM     27  C   UNL     1      -2.523   3.035   1.949  0.00  0.00    +0.012 A 
ATOM     28  C   UNL     1      -2.918   3.816   0.879  0.00  0.00    +0.055 A 
ATOM     29  C   UNL     1      -3.176   3.230  -0.346  0.00  0.00    +0.012 A 
ATOM     30  C   UNL     1      -3.035   1.864  -0.502  0.00  0.00    +0.005 A 
BRANCH  28  31
ATOM     31  C   UNL     1      -3.068   5.306   1.048  0.00  0.00    +0.417 C 
ATOM     32  F   UNL     1      -1.852   5.933   0.756  0.00  0.00    -0.166 F 
ATOM     33  F   UNL     1      -4.057   5.777   0.178  0.00  0.00    -0.166 F 
ATOM     34  F   UNL     1      -3.434   5.591   2.368  0.00  0.00    -0.166 F 
ENDBRANCH  28  31
ENDBRANCH   4  25
TORSDOF 3
