REMARK  Name = ZINC60346632
REMARK  6 active torsions:
REMARK  status: ('A' for Active; 'I' for Inactive)
REMARK    1  A    between atoms: C_1  and  C_2
REMARK    2  A    between atoms: C_2  and  C_28
REMARK    3  A    between atoms: N_5  and  C_9
REMARK    4  A    between atoms: C_9  and  C_10
REMARK    5  A    between atoms: N_12  and  C_13
REMARK    6  A    between atoms: C_13  and  C_18
REMARK                            x       y       z     vdW  Elec       q    Type
REMARK                         _______ _______ _______ _____ _____    ______ ____
ROOT
ATOM      1  C   UNL     1       4.165  -1.697  -2.883  0.00  0.00    +0.232 C 
ATOM      2  O   UNL     1       4.270  -1.512  -4.077  0.00  0.00    -0.274 OA
ATOM      3  N   UNL     1       5.092  -1.198  -2.041  0.00  0.00    -0.304 N 
ATOM      4  H   UNL     1       4.971  -1.283  -1.082  0.00  0.00    +0.150 HD
ENDROOT
BRANCH   3   5
ATOM      5  C   UNL     1       6.280  -0.528  -2.573  0.00  0.00    +0.060 C 
ATOM      6  C   UNL     1       7.274  -0.228  -1.431  0.00  0.00    +0.030 C 
ATOM      7  C   UNL     1       8.263  -1.420  -1.466  0.00  0.00    +0.002 C 
ATOM      8  C   UNL     1       8.423  -1.687  -2.983  0.00  0.00    +0.002 C 
ATOM      9  C   UNL     1       7.011  -1.455  -3.559  0.00  0.00    +0.030 C 
BRANCH   5  10
ATOM     10  C   UNL     1       5.885   0.752  -3.263  0.00  0.00    -0.020 A 
ATOM     11  C   UNL     1       6.739   1.331  -4.184  0.00  0.00    +0.009 A 
ATOM     12  C   UNL     1       6.380   2.506  -4.818  0.00  0.00    +0.050 A 
ATOM     13  C   UNL     1       5.163   3.106  -4.533  0.00  0.00    +0.162 A 
ATOM     14  C   UNL     1       4.304   2.522  -3.610  0.00  0.00    +0.162 A 
ATOM     15  C   UNL     1       4.668   1.341  -2.980  0.00  0.00    +0.055 A 
ATOM     16  O   UNL     1       3.101   3.091  -3.321  0.00  0.00    -0.485 OA
ATOM     17  C   UNL     1       2.931   4.462  -3.696  0.00  0.00    +0.270 C 
ATOM     18  C   UNL     1       3.443   4.634  -5.133  0.00  0.00    +0.270 C 
ATOM     19  O   UNL     1       4.826   4.264  -5.163  0.00  0.00    -0.485 OA
ENDBRANCH   5  10
ENDBRANCH   3   5
BRANCH   1  20
ATOM     20  C   UNL     1       3.000  -2.484  -2.341  0.00  0.00    +0.213 C 
BRANCH  20  25
ATOM     21  C   UNL     1       1.794  -4.139  -6.569  0.00  0.00    +0.047 C 
ATOM     22  C   UNL     1       1.195  -4.090  -5.162  0.00  0.00    +0.136 C 
ATOM     23  C   UNL     1       2.291  -4.074  -4.116  0.00  0.00    +0.251 C 
ATOM     24  O   UNL     1       3.128  -4.929  -3.920  0.00  0.00    -0.272 OA
ATOM     25  N   UNL     1       2.143  -2.912  -3.450  0.00  0.00    -0.215 N 
ATOM     26  C   UNL     1       1.115  -2.199  -3.925  0.00  0.00    +0.310 C 
ATOM     27  O   UNL     1       0.784  -1.115  -3.484  0.00  0.00    -0.252 OA
ATOM     28  N   UNL     1       0.489  -2.815  -4.943  0.00  0.00    -0.281 N 
ATOM     29  H   UNL     1      -0.277  -2.484  -5.438  0.00  0.00    +0.152 HD
BRANCH  22  30
ATOM     30  C   UNL     1       0.264  -5.255  -4.943  0.00  0.00    -0.009 A 
ATOM     31  C   UNL     1      -1.075  -5.154  -5.269  0.00  0.00    +0.014 A 
ATOM     32  C   UNL     1      -1.885  -6.221  -5.059  0.00  0.00    +0.045 A 
ATOM     33  S   UNL     1      -0.749  -7.419  -4.380  0.00  0.00    -0.105 S 
ATOM     34  C   UNL     1       0.730  -6.419  -4.428  0.00  0.00    +0.051 A 
ENDBRANCH  22  30
ENDBRANCH  20  25
ENDBRANCH   1  20
TORSDOF 5
