REMARK  Name = ZINC35460779
REMARK  6 active torsions:
REMARK  status: ('A' for Active; 'I' for Inactive)
REMARK    1  A    between atoms: C_1  and  C_2
REMARK    2  A    between atoms: C_2  and  C_3
REMARK    3  A    between atoms: C_6  and  C_8
REMARK    4  A    between atoms: C_8  and  C_10
REMARK    5  A    between atoms: C_8  and  N_17
REMARK    6  A    between atoms: N_17  and  C_18
REMARK                            x       y       z     vdW  Elec       q    Type
REMARK                         _______ _______ _______ _____ _____    ______ ____
ROOT
ATOM      1  C   UNL     1      -5.223  -1.938   1.027  0.00  0.00    -0.003 C 
ENDROOT
BRANCH   1   2
ATOM      2  C   UNL     1      -5.098  -3.385   1.429  0.00  0.00    -0.044 A 
ATOM      3  C   UNL     1      -4.936  -3.721   2.760  0.00  0.00    +0.003 A 
ATOM      4  C   UNL     1      -4.821  -5.048   3.129  0.00  0.00    +0.000 A 
ATOM      5  C   UNL     1      -4.869  -6.040   2.167  0.00  0.00    +0.001 A 
ATOM      6  C   UNL     1      -5.032  -5.704   0.836  0.00  0.00    +0.014 A 
ATOM      7  C   UNL     1      -5.152  -4.377   0.467  0.00  0.00    +0.015 A 
ATOM      8  I   UNL     1      -5.407  -3.868  -1.549  0.00  0.00    -0.044 I 
ENDBRANCH   1   2
BRANCH   1  12
ATOM      9  C   UNL     1      -1.412  -0.526   0.013  0.00  0.00    -0.010 A 
ATOM     10  C   UNL     1      -2.221  -0.821  -1.034  0.00  0.00    +0.011 A 
ATOM     11  C   UNL     1      -3.495  -1.293  -0.784  0.00  0.00    +0.010 A 
ATOM     12  C   UNL     1      -3.899  -1.446   0.501  0.00  0.00    -0.020 A 
ATOM     13  S   UNL     1      -2.453  -0.923   1.407  0.00  0.00    -0.099 S 
BRANCH   9  15
ATOM     14  C   UNL     1      -0.019   1.526   0.010  0.00  0.00    +0.009 C 
ATOM     15  C   UNL     1       0.002  -0.004   0.002  0.00  0.00    +0.039 C 
ENDBRANCH   9  15
ENDBRANCH   1  12
BRANCH   1  16
ATOM     16  N   UNL     1      -5.613  -1.137   2.196  0.00  0.00    +0.385 N 
ATOM     17  C   UNL     1      -5.851   0.252   1.780  0.00  0.00    -0.099 C 
ATOM     18  H   UNL     1      -6.457  -1.517   2.598  0.00  0.00    -0.085 HD
ATOM     19  H   UNL     1      -4.873  -1.161   2.882  0.00  0.00    -0.085 HD
ENDBRANCH   1  16
TORSDOF 4
