REMARK  Name = ZINC15941323
REMARK  10 active torsions:
REMARK  status: ('A' for Active; 'I' for Inactive)
REMARK    1  A    between atoms: C_1  and  C_2
REMARK    2  A    between atoms: C_2  and  C_3
REMARK    3  A    between atoms: C_2  and  N_4
REMARK    4  A    between atoms: N_4  and  C_5
REMARK    5  A    between atoms: N_4  and  C_29
REMARK    6  A    between atoms: C_5  and  C_6
REMARK    7  A    between atoms: C_6  and  N_7
REMARK    8  A    between atoms: C_8  and  C_10
REMARK    9  A    between atoms: C_13  and  N_16
REMARK   10  A    between atoms: C_29  and  C_30
REMARK                            x       y       z     vdW  Elec       q    Type
REMARK                         _______ _______ _______ _____ _____    ______ ____
ROOT
ATOM      1  C   UNL     1       0.213   2.612   6.614  0.00  0.00    +0.037 A 
ATOM      2  C   UNL     1      -0.415   1.588   7.331  0.00  0.00    +0.015 A 
ATOM      3  C   UNL     1      -0.770   1.784   8.634  0.00  0.00    +0.028 A 
ATOM      4  C   UNL     1      -0.504   3.011   9.253  0.00  0.00    +0.067 A 
ATOM      5  C   UNL     1       0.125   4.036   8.536  0.00  0.00    +0.028 A 
ATOM      6  C   UNL     1       0.484   3.837   7.235  0.00  0.00    +0.015 A 
ENDROOT
BRANCH   4   7
ATOM      7  N   UNL     1      -0.859   3.209  10.555  0.00  0.00    -0.226 NA
ATOM      8  C   UNL     1      -0.013   3.776  11.389  0.00  0.00    +0.155 C 
ATOM      9  N   UNL     1       1.277   4.241  11.114  0.00  0.00    -0.318 N 
ATOM     10  C   UNL     1       2.048   4.582  12.269  0.00  0.00    +0.108 C 
ATOM     11  C   UNL     1       3.364   5.342  12.219  0.00  0.00    +0.189 C 
ATOM     12  S   UNL     1       3.552   5.784  14.008  0.00  0.00    -0.028 S 
ATOM     13  O   UNL     1       3.635   7.198  14.130  0.00  0.00    -0.174 OA
ATOM     14  O   UNL     1       4.565   4.971  14.583  0.00  0.00    -0.174 OA
ATOM     15  C   UNL     1       1.897   5.219  14.626  0.00  0.00    +0.182 C 
ATOM     16  C   UNL     1       1.117   5.331  13.297  0.00  0.00    +0.097 C 
ATOM     17  S   UNL     1      -0.262   4.135  13.134  0.00  0.00    -0.084 S 
ATOM     18  H   UNL     1       1.622   4.325  10.211  0.00  0.00    +0.148 HD
ENDBRANCH   4   7
BRANCH   1  20
ATOM     19  N   UNL     1       0.336   1.220   4.609  0.00  0.00    -0.313 N 
ATOM     20  C   UNL     1       0.596   2.399   5.207  0.00  0.00    +0.244 C 
ATOM     21  O   UNL     1       1.147   3.288   4.586  0.00  0.00    -0.270 OA
ATOM     22  H   UNL     1      -0.104   0.511   5.105  0.00  0.00    +0.149 HD
BRANCH  19  23
ATOM     23  C   UNL     1       0.717   1.008   3.211  0.00  0.00    +0.086 C 
BRANCH  23  24
ATOM     24  C   UNL     1       0.311  -0.403   2.780  0.00  0.00    -0.059 C 
BRANCH  24  25
ATOM     25  N   UNL     1       0.794  -0.656   1.416  0.00  0.00    +0.387 N 
ATOM     26  H   UNL     1       1.793  -0.515   1.381  0.00  0.00    -0.081 HD
BRANCH  25  28
ATOM     27  C   UNL     1       0.588  -0.042  -0.946  0.00  0.00    -0.014 C 
ATOM     28  C   UNL     1       0.137   0.269   0.483  0.00  0.00    -0.074 C 
ATOM     29  C   UNL     1      -1.381   0.103   0.586  0.00  0.00    -0.014 C 
ENDBRANCH  25  28
BRANCH  25  30
ATOM     30  C   UNL     1       0.482  -2.040   1.035  0.00  0.00    -0.003 C 
BRANCH  30  31
ATOM     31  C   UNL     1       1.444  -2.497  -0.031  0.00  0.00    +0.089 A 
ATOM     32  C   UNL     1       2.684  -2.976   0.181  0.00  0.00    +0.042 A 
ATOM     33  C   UNL     1       3.228  -3.280  -1.088  0.00  0.00    +0.041 A 
ATOM     34  C   UNL     1       2.288  -2.970  -2.000  0.00  0.00    +0.195 A 
ATOM     35  O   UNL     1       1.208  -2.501  -1.353  0.00  0.00    -0.470 OA
ENDBRANCH  30  31
ENDBRANCH  25  30
ENDBRANCH  24  25
ENDBRANCH  23  24
ENDBRANCH  19  23
ENDBRANCH   1  20
TORSDOF 8
