REMARK  Name = ZINC23361216
REMARK  7 active torsions:
REMARK  status: ('A' for Active; 'I' for Inactive)
REMARK    1  A    between atoms: C_1  and  C_2
REMARK    2  A    between atoms: C_2  and  C_4
REMARK    3  A    between atoms: C_2  and  N_9
REMARK    4  A    between atoms: C_10  and  C_12
REMARK    5  A    between atoms: C_15  and  C_20
REMARK    6  A    between atoms: C_20  and  N_21
REMARK    7  A    between atoms: N_24  and  C_27
REMARK                            x       y       z     vdW  Elec       q    Type
REMARK                         _______ _______ _______ _____ _____    ______ ____
ROOT
ATOM      1  C   UNL     1      -3.443  -1.059   1.184  0.00  0.00    +0.101 A 
ATOM      2  C   UNL     1      -4.164  -1.106   2.376  0.00  0.00    +0.020 A 
ATOM      3  C   UNL     1      -5.503  -1.493   2.340  0.00  0.00    +0.023 A 
ATOM      4  C   UNL     1      -6.087  -1.818   1.158  0.00  0.00    +0.033 A 
ATOM      5  N   UNL     1      -5.393  -1.775  -0.004  0.00  0.00    -0.324 N 
ATOM      6  H   UNL     1      -5.835  -2.013  -0.834  0.00  0.00    +0.169 HD
ATOM      7  C   UNL     1      -4.099  -1.402  -0.026  0.00  0.00    +0.261 A 
ATOM      8  O   UNL     1      -3.492  -1.364  -1.083  0.00  0.00    -0.267 OA
ENDROOT
BRANCH   1  10
ATOM      9  N   UNL     1      -1.375  -0.501   0.012  0.00  0.00    -0.304 N 
ATOM     10  C   UNL     1      -2.029  -0.655   1.181  0.00  0.00    +0.250 C 
ATOM     11  O   UNL     1      -1.449  -0.461   2.232  0.00  0.00    -0.270 OA
ATOM     12  H   UNL     1      -1.813  -0.728  -0.823  0.00  0.00    +0.150 HD
BRANCH   9  14
ATOM     13  C   UNL     1      -0.026   1.539   0.023  0.00  0.00    +0.033 C 
ATOM     14  C   UNL     1      -0.002   0.009   0.003  0.00  0.00    +0.107 C 
BRANCH  14  15
ATOM     15  C   UNL     1       0.703  -0.466  -1.242  0.00  0.00    +0.010 A 
ATOM     16  C   UNL     1       1.976  -0.906  -1.386  0.00  0.00    +0.013 A 
ATOM     17  C   UNL     1       2.412  -1.297  -2.639  0.00  0.00    +0.008 A 
ATOM     18  C   UNL     1       1.553  -1.228  -3.685  0.00  0.00    +0.045 A 
ATOM     19  S   UNL     1       0.073  -0.602  -2.907  0.00  0.00    -0.100 S 
ENDBRANCH  14  15
ENDBRANCH   9  14
ENDBRANCH   1  10
BRANCH   4  20
ATOM     20  C   UNL     1      -7.535  -2.235   1.139  0.00  0.00    +0.137 C 
BRANCH  20  21
ATOM     21  N   UNL     1      -8.320  -1.242   0.392  0.00  0.00    -0.300 NA
ATOM     22  C   UNL     1      -8.342   0.048   1.094  0.00  0.00    +0.066 C 
ATOM     23  C   UNL     1      -9.118   1.068   0.257  0.00  0.00    -0.063 C 
ATOM     24  N   UNL     1     -10.488   0.585   0.042  0.00  0.00    +0.383 N 
ATOM     25  C   UNL     1     -10.450  -0.693  -0.682  0.00  0.00    -0.063 C 
ATOM     26  C   UNL     1      -9.686  -1.727   0.147  0.00  0.00    +0.066 C 
ATOM     27  H   UNL     1     -10.942   0.452   0.933  0.00  0.00    -0.081 HD
BRANCH  24  28
ATOM     28  C   UNL     1     -11.237   1.572  -0.747  0.00  0.00    -0.068 C 
ATOM     29  C   UNL     1     -11.278   2.902   0.008  0.00  0.00    -0.015 C 
ATOM     30  C   UNL     1     -12.059   3.931  -0.813  0.00  0.00    -0.002 C 
ATOM     31  C   UNL     1     -13.486   3.427  -1.038  0.00  0.00    -0.000 C 
ATOM     32  C   UNL     1     -13.445   2.097  -1.792  0.00  0.00    -0.002 C 
ATOM     33  C   UNL     1     -12.665   1.069  -0.971  0.00  0.00    -0.015 C 
ENDBRANCH  24  28
ENDBRANCH  20  21
ENDBRANCH   4  20
TORSDOF 6
