REMARK  Name = ZINC07660633
REMARK  5 active torsions:
REMARK  status: ('A' for Active; 'I' for Inactive)
REMARK    1  A    between atoms: C_1  and  C_2
REMARK    2  A    between atoms: C_4  and  C_12
REMARK    3  A    between atoms: C_12  and  O_14
REMARK    4  A    between atoms: O_14  and  C_15
REMARK    5  A    between atoms: C_15  and  N_16
REMARK                            x       y       z     vdW  Elec       q    Type
REMARK                         _______ _______ _______ _____ _____    ______ ____
ROOT
ATOM      1  C   UNL     1      -4.216   2.458   2.336  0.00  0.00    +0.341 C 
ATOM      2  O   UNL     1      -4.787   2.762   3.364  0.00  0.00    -0.245 OA
ENDROOT
BRANCH   1   6
ATOM      3  C   UNL     1      -0.020   1.038   0.023  0.00  0.00    +0.065 C 
ATOM      4  C   UNL     1      -0.722   1.550   1.255  0.00  0.00    +0.040 A 
ATOM      5  C   UNL     1      -2.098   1.761   1.211  0.00  0.00    +0.038 A 
ATOM      6  C   UNL     1      -2.756   2.226   2.342  0.00  0.00    +0.070 A 
ATOM      7  C   UNL     1      -1.979   2.478   3.502  0.00  0.00    +0.014 A 
ATOM      8  C   UNL     1      -2.564   2.955   4.683  0.00  0.00    +0.011 A 
ATOM      9  C   UNL     1      -1.784   3.185   5.776  0.00  0.00    +0.001 A 
ATOM     10  C   UNL     1      -0.411   2.953   5.736  0.00  0.00    +0.002 A 
ATOM     11  C   UNL     1       0.189   2.490   4.606  0.00  0.00    +0.028 A 
ATOM     12  C   UNL     1      -0.583   2.241   3.457  0.00  0.00    +0.072 A 
ATOM     13  N   UNL     1      -0.019   1.787   2.334  0.00  0.00    -0.252 NA
ENDBRANCH   1   6
BRANCH   1  14
ATOM     14  O   UNL     1      -4.913   2.331   1.190  0.00  0.00    -0.440 OA
BRANCH  14  15
ATOM     15  C   UNL     1      -6.343   2.573   1.258  0.00  0.00    +0.360 C 
BRANCH  15  16
ATOM     16  N   UNL     1      -6.596   4.020   1.242  0.00  0.00    -0.214 N 
ATOM     17  C   UNL     1      -6.636   4.508  -0.071  0.00  0.00    +0.071 A 
ATOM     18  C   UNL     1      -5.704   4.495  -1.096  0.00  0.00    +0.026 A 
ATOM     19  C   UNL     1      -6.015   5.062  -2.319  0.00  0.00    +0.002 A 
ATOM     20  C   UNL     1      -7.253   5.642  -2.520  0.00  0.00    +0.002 A 
ATOM     21  C   UNL     1      -8.188   5.660  -1.501  0.00  0.00    +0.026 A 
ATOM     22  C   UNL     1      -7.886   5.094  -0.271  0.00  0.00    +0.065 A 
ATOM     23  N   UNL     1      -8.633   4.978   0.906  0.00  0.00    -0.263 N 
ATOM     24  N   UNL     1      -7.883   4.332   1.847  0.00  0.00    -0.158 NA
ATOM     25  H   UNL     1      -9.538   5.303   1.034  0.00  0.00    +0.168 HD
ATOM     26  H   UNL     1      -8.346   3.493   2.165  0.00  0.00    +0.168 HD
ENDBRANCH  15  16
ENDBRANCH  14  15
ENDBRANCH   1  14
TORSDOF 4
