REMARK  Name = ZINC64870135
REMARK  5 active torsions:
REMARK  status: ('A' for Active; 'I' for Inactive)
REMARK    1  A    between atoms: C_1  and  O_2
REMARK    2  A    between atoms: O_2  and  C_3
REMARK    3  A    between atoms: C_6  and  N_9
REMARK    4  A    between atoms: C_15  and  C_22
REMARK    5  A    between atoms: C_25  and  C_29
REMARK                            x       y       z     vdW  Elec       q    Type
REMARK                         _______ _______ _______ _____ _____    ______ ____
ROOT
ATOM      1  N   UNL     1       2.459  -2.458  -4.303  0.00  0.00    -0.229 N 
ATOM      2  C   UNL     1       2.586  -3.803  -4.315  0.00  0.00    +0.269 A 
ATOM      3  O   UNL     1       2.167  -4.477  -3.393  0.00  0.00    -0.266 OA
ATOM      4  C   UNL     1       3.243  -4.432  -5.474  0.00  0.00    +0.063 A 
ATOM      5  C   UNL     1       3.411  -5.812  -5.561  0.00  0.00    +0.016 A 
ATOM      6  C   UNL     1       4.033  -6.352  -6.668  0.00  0.00    +0.008 A 
ATOM      7  C   UNL     1       4.489  -5.530  -7.687  0.00  0.00    -0.000 A 
ATOM      8  C   UNL     1       4.328  -4.161  -7.613  0.00  0.00    +0.034 A 
ATOM      9  C   UNL     1       3.706  -3.600  -6.509  0.00  0.00    +0.056 A 
ATOM     10  N   UNL     1       3.524  -2.229  -6.395  0.00  0.00    -0.307 N 
ATOM     11  H   UNL     1       3.838  -1.643  -7.101  0.00  0.00    +0.170 HD
ATOM     12  C   UNL     1       2.913  -1.707  -5.318  0.00  0.00    +0.334 A 
ATOM     13  O   UNL     1       2.769  -0.501  -5.259  0.00  0.00    -0.246 OA
ENDROOT
BRANCH   7  14
ATOM     14  C   UNL     1       5.166  -6.138  -8.889  0.00  0.00    +0.242 C 
ATOM     15  N   UNL     1       5.833  -7.407  -8.517  0.00  0.00    -0.265 NA
ATOM     16  C   UNL     1       5.654  -8.320  -9.666  0.00  0.00    +0.180 C 
ATOM     17  N   UNL     1       4.881  -7.555 -10.673  0.00  0.00    -0.177 NA
ATOM     18  O   UNL     1       4.187  -6.512  -9.883  0.00  0.00    -0.274 OA
ATOM     19  H   UNL     1       6.812  -7.257  -8.324  0.00  0.00    +0.127 HD
ATOM     20  H   UNL     1       4.220  -8.150 -11.149  0.00  0.00    +0.156 HD
BRANCH  16  21
ATOM     21  C   UNL     1       6.994  -8.717 -10.229  0.00  0.00    -0.014 A 
ATOM     22  C   UNL     1       8.097  -8.793  -9.399  0.00  0.00    +0.007 A 
ATOM     23  C   UNL     1       9.327  -9.158  -9.915  0.00  0.00    +0.015 A 
ATOM     24  C   UNL     1       9.453  -9.448 -11.261  0.00  0.00    +0.018 A 
ATOM     25  C   UNL     1       8.349  -9.372 -12.091  0.00  0.00    +0.015 A 
ATOM     26  C   UNL     1       7.119  -9.012 -11.574  0.00  0.00    +0.007 A 
ATOM     27 BR   UNL     1      11.135  -9.946 -11.967  0.00  0.00    -0.050 Br
ENDBRANCH  16  21
ENDBRANCH   7  14
BRANCH   1  31
ATOM     28  C   UNL     1       0.607  -0.609  -1.055  0.00  0.00    +0.120 A 
ATOM     29  C   UNL     1      -0.148  -1.013  -2.146  0.00  0.00    +0.047 A 
ATOM     30  C   UNL     1       0.464  -1.626  -3.221  0.00  0.00    +0.030 A 
ATOM     31  C   UNL     1       1.836  -1.836  -3.211  0.00  0.00    +0.055 A 
ATOM     32  C   UNL     1       2.592  -1.430  -2.119  0.00  0.00    +0.030 A 
ATOM     33  C   UNL     1       1.979  -0.814  -1.046  0.00  0.00    +0.047 A 
BRANCH  28  35
ATOM     34  C   UNL     1      -1.412   0.173  -0.072  0.00  0.00    +0.277 C 
ATOM     35  O   UNL     1       0.003  -0.006   0.004  0.00  0.00    -0.495 OA
ENDBRANCH  28  35
ENDBRANCH   1  31
TORSDOF 4
