REMARK  Name = ZINC05248658
REMARK  11 active torsions:
REMARK  status: ('A' for Active; 'I' for Inactive)
REMARK    1  A    between atoms: C_1  and  C_2
REMARK    2  A    between atoms: C_2  and  O_3
REMARK    3  A    between atoms: O_3  and  C_4
REMARK    4  A    between atoms: C_7  and  C_10
REMARK    5  A    between atoms: C_17  and  N_33
REMARK    6  A    between atoms: C_18  and  C_31
REMARK    7  A    between atoms: C_19  and  C_21
REMARK    8  A    between atoms: C_24  and  O_27
REMARK    9  A    between atoms: O_27  and  C_28
REMARK   10  A    between atoms: C_28  and  C_29
REMARK   11  A    between atoms: C_28  and  C_30
REMARK                            x       y       z     vdW  Elec       q    Type
REMARK                         _______ _______ _______ _____ _____    ______ ____
ROOT
ATOM      1  C   UNL     1      -2.160  -5.636   0.050  0.00  0.00    +0.074 A 
ATOM      2  C   UNL     1      -2.860  -6.526  -0.695  0.00  0.00    +0.054 A 
ATOM      3  C   UNL     1      -2.528  -7.822  -0.254  0.00  0.00    +0.245 A 
ATOM      4  N   UNL     1      -1.664  -7.716   0.716  0.00  0.00    -0.135 NA
ATOM      5  N   UNL     1      -1.404  -6.354   0.933  0.00  0.00    -0.273 N 
ATOM      6  H   UNL     1      -0.795  -5.988   1.594  0.00  0.00    +0.189 HD
ATOM      7  O   UNL     1      -3.075  -8.935  -0.812  0.00  0.00    -0.421 OA
ATOM      8  C   UNL     1      -4.145  -8.766  -1.614  0.00  0.00    +0.201 C 
ATOM      9  C   UNL     1      -4.551  -7.577  -2.107  0.00  0.00    +0.098 C 
ATOM     10  C   UNL     1      -3.838  -6.281  -1.815  0.00  0.00    +0.102 C 
ENDROOT
BRANCH   1  14
ATOM     11  C   UNL     1      -2.284  -1.403  -0.305  0.00  0.00    +0.121 A 
ATOM     12  C   UNL     1      -1.063  -2.052  -0.182  0.00  0.00    +0.046 A 
ATOM     13  C   UNL     1      -1.019  -3.425  -0.067  0.00  0.00    +0.013 A 
ATOM     14  C   UNL     1      -2.204  -4.163  -0.073  0.00  0.00    +0.000 A 
ATOM     15  C   UNL     1      -3.429  -3.507  -0.196  0.00  0.00    +0.013 A 
ATOM     16  C   UNL     1      -3.466  -2.133  -0.306  0.00  0.00    +0.046 A 
BRANCH  11  17
ATOM     17  O   UNL     1      -2.324  -0.049  -0.418  0.00  0.00    -0.492 OA
BRANCH  17  19
ATOM     18  C   UNL     1      -1.316   2.143  -0.546  0.00  0.00    +0.048 C 
ATOM     19  C   UNL     1      -1.072   0.639  -0.410  0.00  0.00    +0.225 C 
ENDBRANCH  17  19
ENDBRANCH  11  17
ENDBRANCH   1  14
BRANCH  10  20
ATOM     20  C   UNL     1      -3.098  -5.819  -3.044  0.00  0.00    -0.034 A 
ATOM     21  C   UNL     1      -2.140  -6.633  -3.620  0.00  0.00    +0.008 A 
ATOM     22  C   UNL     1      -1.461  -6.212  -4.746  0.00  0.00    +0.046 A 
ATOM     23  C   UNL     1      -1.741  -4.971  -5.300  0.00  0.00    +0.121 A 
ATOM     24  C   UNL     1      -2.703  -4.157  -4.721  0.00  0.00    +0.046 A 
ATOM     25  C   UNL     1      -3.383  -4.585  -3.598  0.00  0.00    +0.008 A 
BRANCH  23  26
ATOM     26  O   UNL     1      -1.073  -4.554  -6.408  0.00  0.00    -0.489 OA
BRANCH  26  27
ATOM     27  C   UNL     1      -0.184  -5.490  -7.021  0.00  0.00    +0.167 C 
ATOM     28  C   UNL     1      -0.015  -5.140  -8.500  0.00  0.00    +0.051 C 
ATOM     29  C   UNL     1       1.177  -5.431  -6.324  0.00  0.00    +0.051 C 
ENDBRANCH  26  27
ENDBRANCH  23  26
ENDBRANCH  10  20
BRANCH   8  30
ATOM     30  N   UNL     1      -4.873  -9.880  -1.952  0.00  0.00    -0.328 N 
ATOM     31  H   UNL     1      -4.610 -10.751  -1.616  0.00  0.00    +0.145 HD
ATOM     32  H   UNL     1      -5.649  -9.796  -2.528  0.00  0.00    +0.145 HD
ENDBRANCH   8  30
BRANCH   9  33
ATOM     33  C   UNL     1      -5.711  -7.545  -2.946  0.00  0.00    +0.101 C 
ATOM     34  N   UNL     1      -6.632  -7.520  -3.611  0.00  0.00    -0.191 NA
ENDBRANCH   9  33
TORSDOF 8
