REMARK  Name = ZINC03182863
REMARK  3 active torsions:
REMARK  status: ('A' for Active; 'I' for Inactive)
REMARK    1  A    between atoms: C_1  and  C_2
REMARK    2  A    between atoms: C_4  and  C_18
REMARK    3  A    between atoms: C_12  and  C_14
REMARK                            x       y       z     vdW  Elec       q    Type
REMARK                         _______ _______ _______ _____ _____    ______ ____
ROOT
ATOM      1  C   UNL     1      -6.745   4.837   0.058  0.00  0.00    +0.044 C 
ATOM      2  C   UNL     1      -5.621   3.833   0.048  0.00  0.00    -0.049 A 
ATOM      3  C   UNL     1      -5.897   2.473   0.042  0.00  0.00    +0.009 A 
ATOM      4  C   UNL     1      -4.894   1.540   0.033  0.00  0.00    -0.024 A 
ATOM      5  C   UNL     1      -3.537   1.937   0.029  0.00  0.00    +0.083 A 
ATOM      6  C   UNL     1      -3.294   3.330   0.035  0.00  0.00    +0.041 A 
ATOM      7  C   UNL     1      -4.305   4.258   0.044  0.00  0.00    +0.020 A 
ATOM      8  S   UNL     1      -1.519   3.404   0.027  0.00  0.00    -0.052 S 
ATOM      9  C   UNL     1      -1.220   1.642   0.017  0.00  0.00    +0.166 A 
ATOM     10  N   UNL     1      -2.438   1.152   0.015  0.00  0.00    -0.224 NA
ATOM     11  N   UNL     1      -0.011   0.966   0.007  0.00  0.00    -0.261 N 
ATOM     12  C   UNL     1       1.147   1.655   0.000  0.00  0.00    +0.270 C 
ATOM     13  O   UNL     1       1.130   2.868   0.007  0.00  0.00    -0.271 OA
ATOM     14  C   UNL     1      -5.241   0.073   0.027  0.00  0.00    +0.046 C 
ATOM     15  H   UNL     1       0.002  -0.004   0.002  0.00  0.00    +0.157 HD
ENDROOT
BRANCH  12  16
ATOM     16  C   UNL     1       2.462   0.920  -0.017  0.00  0.00    +0.267 C 
ATOM     17 CL   UNL     1       3.816   2.110  -0.023  0.00  0.00    -0.074 Cl
ATOM     18 CL   UNL     1       2.586  -0.123   1.449  0.00  0.00    -0.074 Cl
ATOM     19 CL   UNL     1       2.558  -0.107  -1.495  0.00  0.00    -0.074 Cl
ENDBRANCH  12  16
TORSDOF 1
