REMARK  Name = ZINC62588384
REMARK  6 active torsions:
REMARK  status: ('A' for Active; 'I' for Inactive)
REMARK    1  A    between atoms: C_3  and  C_12
REMARK    2  A    between atoms: N_4  and  C_6
REMARK    3  A    between atoms: C_6  and  C_7
REMARK    4  A    between atoms: C_12  and  O_14
REMARK    5  A    between atoms: O_14  and  C_15
REMARK    6  A    between atoms: C_15  and  C_16
REMARK                            x       y       z     vdW  Elec       q    Type
REMARK                         _______ _______ _______ _____ _____    ______ ____
ROOT
ATOM      1  C   UNL     1      -0.016   1.351   0.009  0.00  0.00    +0.020 A 
ATOM      2  C   UNL     1       1.308   1.797  -0.001  0.00  0.00    +0.034 A 
ATOM      3  C   UNL     1       2.111   0.675  -0.015  0.00  0.00    +0.127 A 
ATOM      4  N   UNL     1       1.284  -0.426  -0.013  0.00  0.00    -0.337 N 
ATOM      5  C   UNL     1       0.002  -0.004   0.002  0.00  0.00    +0.087 A 
ENDROOT
BRANCH   3   6
ATOM      6  C   UNL     1       3.576   0.658  -0.029  0.00  0.00    +0.356 C 
ATOM      7  O   UNL     1       4.197   1.704  -0.030  0.00  0.00    -0.243 OA
BRANCH   6   8
ATOM      8  O   UNL     1       4.237  -0.518  -0.042  0.00  0.00    -0.451 OA
BRANCH   8   9
ATOM      9  C   UNL     1       5.665  -0.460  -0.056  0.00  0.00    +0.345 C 
BRANCH   9  10
ATOM     10  C   UNL     1       6.233  -1.881  -0.070  0.00  0.00    +0.424 C 
ATOM     11  F   UNL     1       5.782  -2.552  -1.211  0.00  0.00    -0.167 F 
ATOM     12  F   UNL     1       7.630  -1.824  -0.084  0.00  0.00    -0.167 F 
ATOM     13  F   UNL     1       5.805  -2.565   1.073  0.00  0.00    -0.167 F 
ENDBRANCH   9  10
ENDBRANCH   8   9
ENDBRANCH   6   8
ENDBRANCH   3   6
BRANCH   4  14
ATOM     14  C   UNL     1       1.723  -1.823  -0.025  0.00  0.00    +0.164 C 
BRANCH  14  15
ATOM     15  C   UNL     1       2.006  -2.274   1.385  0.00  0.00    +0.009 A 
ATOM     16  C   UNL     1       1.167  -2.849   2.282  0.00  0.00    +0.013 A 
ATOM     17  C   UNL     1       1.651  -3.183   3.533  0.00  0.00    +0.008 A 
ATOM     18  C   UNL     1       2.949  -2.926   3.826  0.00  0.00    +0.045 A 
ATOM     19  S   UNL     1       3.534  -2.196   2.305  0.00  0.00    -0.100 S 
ENDBRANCH  14  15
ENDBRANCH   4  14
TORSDOF 6
