REMARK  Name = ZINC20734051
REMARK  11 active torsions:
REMARK  status: ('A' for Active; 'I' for Inactive)
REMARK    1  A    between atoms: C_1  and  O_2
REMARK    2  A    between atoms: O_2  and  C_3
REMARK    3  A    between atoms: C_3  and  C_5
REMARK    4  A    between atoms: C_5  and  C_7
REMARK    5  A    between atoms: C_5  and  N_11
REMARK    6  A    between atoms: C_7  and  C_8
REMARK    7  A    between atoms: C_8  and  S_9
REMARK    8  A    between atoms: S_9  and  C_10
REMARK    9  A    between atoms: C_23  and  C_25
REMARK   10  A    between atoms: C_30  and  O_31
REMARK   11  A    between atoms: O_31  and  C_32
REMARK                            x       y       z     vdW  Elec       q    Type
REMARK                         _______ _______ _______ _____ _____    ______ ____
ROOT
ATOM      1  N   UNL     1       3.263  -2.297   1.282  0.00  0.00    -0.286 N 
ATOM      2  C   UNL     1       2.660  -2.670   2.428  0.00  0.00    +0.304 C 
ATOM      3  O   UNL     1       1.453  -2.576   2.538  0.00  0.00    -0.253 OA
ATOM      4  N   UNL     1       3.396  -3.146   3.453  0.00  0.00    -0.273 N 
ATOM      5  C   UNL     1       2.748  -3.659   4.669  0.00  0.00    +0.116 C 
ATOM      6  C   UNL     1       3.051  -5.157   4.804  0.00  0.00    +0.074 C 
ATOM      7  C   UNL     1       4.515  -5.383   4.530  0.00  0.00    +0.040 A 
ATOM      8  C   UNL     1       5.325  -4.508   3.896  0.00  0.00    +0.062 A 
ATOM      9  N   UNL     1       6.545  -5.045   3.830  0.00  0.00    -0.348 N 
ATOM     10  C   UNL     1       6.527  -6.221   4.402  0.00  0.00    +0.171 A 
ATOM     11  N   UNL     1       5.275  -6.466   4.852  0.00  0.00    -0.349 N 
ATOM     12  H   UNL     1       4.976  -7.263   5.317  0.00  0.00    +0.166 HD
ATOM     13  C   UNL     1       4.867  -3.170   3.378  0.00  0.00    +0.160 C 
ATOM     14  H   UNL     1       4.231  -2.300   1.220  0.00  0.00    +0.151 HD
ATOM     15  H   UNL     1       7.322  -4.629   3.423  0.00  0.00    +0.167 HD
ENDROOT
BRANCH  13  16
ATOM     16  C   UNL     1       5.442  -2.070   4.233  0.00  0.00    +0.021 A 
ATOM     17  C   UNL     1       5.191  -2.047   5.591  0.00  0.00    +0.009 A 
ATOM     18  C   UNL     1       5.718  -1.038   6.376  0.00  0.00    +0.001 A 
ATOM     19  C   UNL     1       6.498  -0.050   5.804  0.00  0.00    +0.004 A 
ATOM     20  C   UNL     1       6.752  -0.068   4.446  0.00  0.00    +0.046 A 
ATOM     21  C   UNL     1       6.229  -1.083   3.657  0.00  0.00    +0.135 A 
BRANCH  21  22
ATOM     22  O   UNL     1       6.482  -1.106   2.322  0.00  0.00    -0.405 OA
BRANCH  22  23
ATOM     23  C   UNL     1       7.299  -0.058   1.798  0.00  0.00    +0.575 C 
ATOM     24  F   UNL     1       8.553  -0.089   2.419  0.00  0.00    -0.133 F 
ATOM     25  F   UNL     1       7.457  -0.234   0.420  0.00  0.00    -0.133 F 
ATOM     26  F   UNL     1       6.688   1.177   2.043  0.00  0.00    -0.133 F 
ENDBRANCH  22  23
ENDBRANCH  21  22
ENDBRANCH  13  16
BRANCH   1  27
ATOM     27  C   UNL     1       2.457  -1.887   0.130  0.00  0.00    +0.184 C 
BRANCH  27  28
ATOM     28  C   UNL     1       2.043  -3.106  -0.653  0.00  0.00    +0.327 C 
ATOM     29  O   UNL     1       2.387  -4.205  -0.287  0.00  0.00    -0.249 OA
BRANCH  28  31
ATOM     30  C   UNL     1       0.938  -4.170  -2.451  0.00  0.00    +0.280 C 
ATOM     31  O   UNL     1       1.293  -2.972  -1.758  0.00  0.00    -0.467 OA
ENDBRANCH  28  31
ENDBRANCH  27  28
BRANCH  27  32
ATOM     32  C   UNL     1       3.281  -0.961  -0.766  0.00  0.00    +0.044 C 
BRANCH  32  33
ATOM     33  C   UNL     1       3.596   0.332  -0.011  0.00  0.00    +0.071 C 
BRANCH  33  34
ATOM     34  S   UNL     1       4.574   1.431  -1.074  0.00  0.00    -0.164 S 
ATOM     35  C   UNL     1       4.858   2.897  -0.045  0.00  0.00    +0.084 C 
ENDBRANCH  33  34
ENDBRANCH  32  33
ENDBRANCH  27  32
ENDBRANCH   1  27
TORSDOF 9
