REMARK  Name = ZINC00888283
REMARK  11 active torsions:
REMARK  status: ('A' for Active; 'I' for Inactive)
REMARK    1  A    between atoms: C_1  and  O_2
REMARK    2  A    between atoms: O_2  and  C_3
REMARK    3  A    between atoms: C_6  and  C_9
REMARK    4  A    between atoms: N_12  and  C_14
REMARK    5  A    between atoms: C_14  and  C_15
REMARK    6  A    between atoms: N_17  and  C_18
REMARK    7  A    between atoms: N_17  and  C_25
REMARK    8  A    between atoms: C_18  and  C_19
REMARK    9  A    between atoms: C_25  and  C_27
REMARK   10  A    between atoms: C_25  and  C_32
REMARK   11  A    between atoms: N_34  and  C_35
REMARK                            x       y       z     vdW  Elec       q    Type
REMARK                         _______ _______ _______ _____ _____    ______ ____
ROOT
ATOM      1  C   UNL     1       1.744   5.184  -1.662  0.00  0.00    +0.240 C 
ATOM      2  O   UNL     1       1.328   4.667  -2.677  0.00  0.00    -0.273 OA
ATOM      3  N   UNL     1       2.531   6.275  -1.735  0.00  0.00    -0.279 N 
ENDROOT
BRANCH   1   4
ATOM      4  C   UNL     1       1.382   4.605  -0.318  0.00  0.00    +0.264 C 
BRANCH   4   8
ATOM      5  C   UNL     1      -0.117   1.445  -0.788  0.00  0.00    +0.205 A 
ATOM      6  N   UNL     1      -1.190   2.248  -0.746  0.00  0.00    -0.108 NA
ATOM      7  N   UNL     1      -0.761   3.451  -0.568  0.00  0.00    -0.045 NA
ATOM      8  N   UNL     1       0.524   3.432  -0.507  0.00  0.00    -0.154 N 
ATOM      9  N   UNL     1       0.940   2.219  -0.639  0.00  0.00    -0.130 NA
BRANCH   5  13
ATOM     10  C   UNL     1      -0.121  -2.776  -1.318  0.00  0.00    +0.120 A 
ATOM     11  C   UNL     1      -1.322  -2.080  -1.290  0.00  0.00    +0.046 A 
ATOM     12  C   UNL     1      -1.324  -0.712  -1.118  0.00  0.00    +0.015 A 
ATOM     13  C   UNL     1      -0.118  -0.028  -0.973  0.00  0.00    +0.023 A 
ATOM     14  C   UNL     1       1.086  -0.728  -1.007  0.00  0.00    +0.015 A 
ATOM     15  C   UNL     1       1.081  -2.097  -1.173  0.00  0.00    +0.046 A 
BRANCH  10  17
ATOM     16  C   UNL     1       1.149  -4.777  -1.507  0.00  0.00    +0.277 C 
ATOM     17  O   UNL     1      -0.122  -4.124  -1.488  0.00  0.00    -0.495 OA
ENDBRANCH  10  17
ENDBRANCH   5  13
ENDBRANCH   4   8
ENDBRANCH   1   4
BRANCH   3  18
ATOM     18  C   UNL     1       3.034   6.899  -0.509  0.00  0.00    +0.140 C 
BRANCH  18  19
ATOM     19  C   UNL     1       4.319   6.195  -0.068  0.00  0.00    +0.136 C 
ATOM     20  C   UNL     1       4.801   6.755   1.289  0.00  0.00    +0.035 C 
ATOM     21  C   UNL     1       6.341   6.770   1.164  0.00  0.00    +0.031 C 
ATOM     22  C   UNL     1       6.607   6.217  -0.254  0.00  0.00    +0.160 C 
ATOM     23  O   UNL     1       5.393   6.485  -0.989  0.00  0.00    -0.375 OA
ENDBRANCH  18  19
ENDBRANCH   3  18
BRANCH   3  24
ATOM     24  C   UNL     1       2.884   6.838  -3.041  0.00  0.00    +0.228 C 
BRANCH  24  25
ATOM     25  C   UNL     1       1.635   7.314  -3.736  0.00  0.00    +0.134 A 
ATOM     26  C   UNL     1       1.490   8.490  -4.375  0.00  0.00    +0.047 A 
ATOM     27  C   UNL     1       0.169   8.522  -4.878  0.00  0.00    +0.041 A 
ATOM     28  C   UNL     1      -0.416   7.368  -4.510  0.00  0.00    +0.195 A 
ATOM     29  O   UNL     1       0.476   6.641  -3.819  0.00  0.00    -0.465 OA
ENDBRANCH  24  25
BRANCH  24  30
ATOM     30  C   UNL     1       3.553   5.780  -3.880  0.00  0.00    +0.241 C 
ATOM     31  O   UNL     1       3.719   4.665  -3.430  0.00  0.00    -0.273 OA
ATOM     32  N   UNL     1       3.967   6.072  -5.128  0.00  0.00    -0.311 N 
ATOM     33  H   UNL     1       3.834   6.963  -5.487  0.00  0.00    +0.149 HD
BRANCH  32  34
ATOM     34  C   UNL     1       4.618   5.043  -5.944  0.00  0.00    +0.073 C 
ATOM     35  C   UNL     1       6.112   5.002  -5.616  0.00  0.00    +0.022 C 
ATOM     36  C   UNL     1       6.791   3.927  -6.467  0.00  0.00    +0.002 C 
ATOM     37  C   UNL     1       6.603   4.257  -7.949  0.00  0.00    +0.000 C 
ATOM     38  C   UNL     1       5.109   4.298  -8.277  0.00  0.00    +0.002 C 
ATOM     39  C   UNL     1       4.430   5.372  -7.426  0.00  0.00    +0.022 C 
ENDBRANCH  32  34
ENDBRANCH  24  30
ENDBRANCH   3  24
TORSDOF 10
