REMARK  Name = ZINC30028287
REMARK  10 active torsions:
REMARK  status: ('A' for Active; 'I' for Inactive)
REMARK    1  A    between atoms: C_1  and  C_2
REMARK    2  A    between atoms: C_2  and  N_3
REMARK    3  A    between atoms: C_6  and  N_9
REMARK    4  A    between atoms: C_10  and  C_12
REMARK    5  A    between atoms: C_12  and  N_13
REMARK    6  A    between atoms: C_16  and  C_20
REMARK    7  A    between atoms: C_16  and  C_21
REMARK    8  A    between atoms: C_24  and  C_27
REMARK    9  A    between atoms: C_27  and  C_28
REMARK   10  A    between atoms: C_27  and  C_29
REMARK                            x       y       z     vdW  Elec       q    Type
REMARK                         _______ _______ _______ _____ _____    ______ ____
ROOT
ATOM      1  N   UNL     1      -1.099   2.007   0.017  0.00  0.00    -0.215 N 
ATOM      2  C   UNL     1      -0.014   1.208   0.009  0.00  0.00    +0.251 C 
ATOM      3  O   UNL     1       0.002  -0.004   0.002  0.00  0.00    -0.272 OA
ATOM      4  C   UNL     1       1.181   2.140   0.002  0.00  0.00    +0.135 C 
ATOM      5  N   UNL     1       0.574   3.482   0.015  0.00  0.00    -0.281 N 
ATOM      6  C   UNL     1      -0.759   3.301   0.026  0.00  0.00    +0.310 C 
ATOM      7  O   UNL     1      -1.564   4.212   0.038  0.00  0.00    -0.252 OA
ATOM      8  C   UNL     1       2.038   1.925   1.252  0.00  0.00    +0.047 C 
ATOM      9  H   UNL     1       1.215   4.376   0.013  0.00  0.00    +0.152 HD
ENDROOT
BRANCH   4  10
ATOM     10  C   UNL     1       2.002   1.941  -1.246  0.00  0.00    -0.015 A 
ATOM     11  C   UNL     1       2.047   0.700  -1.852  0.00  0.00    +0.006 A 
ATOM     12  C   UNL     1       2.797   0.518  -2.999  0.00  0.00    +0.004 A 
ATOM     13  C   UNL     1       3.508   1.576  -3.535  0.00  0.00    -0.045 A 
ATOM     14  C   UNL     1       3.466   2.816  -2.926  0.00  0.00    +0.004 A 
ATOM     15  C   UNL     1       2.714   2.998  -1.781  0.00  0.00    +0.006 A 
BRANCH  13  16
ATOM     16  C   UNL     1       4.329   1.376  -4.783  0.00  0.00    +0.013 C 
ATOM     17  C   UNL     1       5.393   0.307  -4.528  0.00  0.00    +0.012 C 
ATOM     18  C   UNL     1       3.418   0.927  -5.927  0.00  0.00    +0.012 C 
ENDBRANCH  13  16
ENDBRANCH   4  10
BRANCH   1  19
ATOM     19  C   UNL     1      -2.481   1.520   0.020  0.00  0.00    +0.213 C 
BRANCH  19  21
ATOM     20  N   UNL     1      -4.197   0.902   1.690  0.00  0.00    -0.311 N 
ATOM     21  C   UNL     1      -2.949   1.345   1.442  0.00  0.00    +0.231 C 
ATOM     22  O   UNL     1      -2.202   1.602   2.362  0.00  0.00    -0.274 OA
ATOM     23  H   UNL     1      -4.875   0.669   0.856  0.00  0.00    +0.149 HD
BRANCH  20  27
ATOM     24  N   UNL     1      -6.220  -0.734   5.005  0.00  0.00    +0.380 N 
ATOM     25  C   UNL     1      -6.653   0.597   4.560  0.00  0.00    -0.077 C 
ATOM     26  C   UNL     1      -6.179   0.836   3.125  0.00  0.00    +0.003 C 
ATOM     27  C   UNL     1      -4.653   0.732   3.072  0.00  0.00    +0.069 C 
ATOM     28  C   UNL     1      -4.224  -0.645   3.586  0.00  0.00    +0.003 C 
ATOM     29  C   UNL     1      -4.756  -0.842   5.008  0.00  0.00    -0.077 C 
ATOM     30  H   UNL     1      -6.609  -1.470   4.286  0.00  0.00    -0.082 HD
BRANCH  24  32
ATOM     31  C   UNL     1      -6.514  -2.527   6.647  0.00  0.00    -0.017 C 
ATOM     32  C   UNL     1      -6.774  -1.054   6.327  0.00  0.00    -0.082 C 
ENDBRANCH  24  32
ENDBRANCH  20  27
ENDBRANCH  19  21
ENDBRANCH   1  19
TORSDOF 6
