REMARK  Name = ZINC39000220
REMARK  8 active torsions:
REMARK  status: ('A' for Active; 'I' for Inactive)
REMARK    1  A    between atoms: C_1  and  C_2
REMARK    2  A    between atoms: C_9  and  C_14
REMARK    3  A    between atoms: C_14  and  N_15
REMARK    4  A    between atoms: N_15  and  C_16
REMARK    5  A    between atoms: C_16  and  C_17
REMARK    6  A    between atoms: C_23  and  C_25
REMARK    7  A    between atoms: C_28  and  O_31
REMARK    8  A    between atoms: O_31  and  C_32
REMARK                            x       y       z     vdW  Elec       q    Type
REMARK                         _______ _______ _______ _____ _____    ______ ____
ROOT
ATOM      1  N   UNL     1      -0.925  -6.563   2.823  0.00  0.00    -0.294 N 
ATOM      2  C   UNL     1      -1.530  -7.484   2.048  0.00  0.00    +0.247 C 
ATOM      3  O   UNL     1      -2.244  -7.131   1.129  0.00  0.00    -0.270 OA
ENDROOT
BRANCH   2   4
ATOM      4  C   UNL     1      -1.327  -8.922   2.314  0.00  0.00    +0.037 A 
ATOM      5  C   UNL     1      -1.312  -9.396   3.628  0.00  0.00    +0.016 A 
ATOM      6  C   UNL     1      -1.122 -10.738   3.872  0.00  0.00    +0.046 A 
ATOM      7  C   UNL     1      -0.945 -11.620   2.813  0.00  0.00    +0.120 A 
ATOM      8  C   UNL     1      -0.959 -11.153   1.504  0.00  0.00    +0.046 A 
ATOM      9  C   UNL     1      -1.154  -9.813   1.252  0.00  0.00    +0.016 A 
BRANCH   7  10
ATOM     10  O   UNL     1      -0.757 -12.942   3.058  0.00  0.00    -0.495 OA
ATOM     11  C   UNL     1      -0.582 -13.793   1.923  0.00  0.00    +0.277 C 
ENDBRANCH   7  10
ENDBRANCH   2   4
BRANCH   1  12
ATOM     12  C   UNL     1      -1.152  -5.137   2.579  0.00  0.00    +0.125 C 
BRANCH  12  21
ATOM     13  C   UNL     1      -0.848   1.065  -0.950  0.00  0.00    +0.044 C 
ATOM     14  C   UNL     1      -0.767  -0.437  -0.858  0.00  0.00    -0.050 A 
ATOM     15  C   UNL     1      -0.960  -1.203  -2.008  0.00  0.00    +0.005 A 
ATOM     16  C   UNL     1      -0.902  -2.560  -2.003  0.00  0.00    +0.024 A 
ATOM     17  C   UNL     1      -0.637  -3.259  -0.811  0.00  0.00    +0.040 A 
ATOM     18  N   UNL     1      -0.582  -4.591  -0.818  0.00  0.00    -0.284 N 
ATOM     19  C   UNL     1      -0.338  -5.309   0.265  0.00  0.00    +0.226 C 
ATOM     20  O   UNL     1      -0.300  -6.523   0.197  0.00  0.00    -0.275 OA
ATOM     21  C   UNL     1      -0.108  -4.616   1.589  0.00  0.00    +0.116 C 
ATOM     22  C   UNL     1      -0.170  -3.101   1.602  0.00  0.00    -0.003 C 
ATOM     23  C   UNL     1      -0.429  -2.476   0.419  0.00  0.00    -0.007 A 
ATOM     24  C   UNL     1      -0.501  -1.016   0.341  0.00  0.00    +0.012 A 
ATOM     25  H   UNL     1      -0.726  -5.055  -1.658  0.00  0.00    +0.155 HD
ENDBRANCH  12  21
ENDBRANCH   1  12
BRANCH   1  26
ATOM     26  C   UNL     1      -0.040  -6.988   3.910  0.00  0.00    +0.139 C 
BRANCH  26  27
ATOM     27  C   UNL     1      -0.756  -6.810   5.250  0.00  0.00    +0.136 C 
ATOM     28  C   UNL     1       0.136  -7.325   6.409  0.00  0.00    +0.035 C 
ATOM     29  C   UNL     1      -0.425  -6.501   7.600  0.00  0.00    +0.031 C 
ATOM     30  C   UNL     1      -0.801  -5.164   6.926  0.00  0.00    +0.160 C 
ATOM     31  O   UNL     1      -0.962  -5.415   5.524  0.00  0.00    -0.375 OA
ENDBRANCH  26  27
ENDBRANCH   1  26
TORSDOF 6
