REMARK  Name = ZINC14464966
REMARK  2 active torsions:
REMARK  status: ('A' for Active; 'I' for Inactive)
REMARK    1  A    between atoms: C_6  and  C_7
REMARK    2  A    between atoms: C_17  and  N_24
REMARK                            x       y       z     vdW  Elec       q    Type
REMARK                         _______ _______ _______ _____ _____    ______ ____
ROOT
ATOM      1  C   UNL     1       2.182   0.673   2.061  0.00  0.00    +0.105 C 
ATOM      2  C   UNL     1       2.253   0.673   0.532  0.00  0.00    +0.029 C 
ATOM      3  C   UNL     1       1.397   1.857  -0.001  0.00  0.00    +0.033 C 
ATOM      4  C   UNL     1      -0.016   1.305   0.009  0.00  0.00    -0.030 C 
ATOM      5  C   UNL     1       0.002  -0.004   0.002  0.00  0.00    -0.023 C 
ATOM      6  C   UNL     1       1.425  -0.513  -0.006  0.00  0.00    +0.051 C 
ATOM      7  C   UNL     1       1.557  -1.732   0.859  0.00  0.00    +0.014 A 
ATOM      8  C   UNL     1       1.003  -2.920   0.400  0.00  0.00    +0.132 A 
ATOM      9  C   UNL     1       1.090  -4.074   1.151  0.00  0.00    +0.036 A 
ATOM     10  C   UNL     1       1.732  -4.056   2.376  0.00  0.00    +0.042 A 
ATOM     11  C   UNL     1       2.341  -2.867   2.836  0.00  0.00    +0.145 A 
ATOM     12  C   UNL     1       2.239  -1.701   2.075  0.00  0.00    +0.069 A 
ATOM     13  N   UNL     1       2.822  -0.537   2.579  0.00  0.00    -0.334 N 
ATOM     14  F   UNL     1       2.986  -2.841   4.023  0.00  0.00    -0.204 F 
ATOM     15  H   UNL     1       2.824  -0.541   3.587  0.00  0.00    +0.147 HD
ENDROOT
BRANCH   1  21
ATOM     16  C   UNL     1       4.273   1.889   2.701  0.00  0.00    +0.007 A 
ATOM     17  C   UNL     1       4.928   3.005   3.189  0.00  0.00    +0.020 A 
ATOM     18  C   UNL     1       4.203   4.115   3.583  0.00  0.00    +0.041 A 
ATOM     19  C   UNL     1       2.823   4.110   3.484  0.00  0.00    +0.020 A 
ATOM     20  C   UNL     1       2.170   2.997   2.991  0.00  0.00    +0.007 A 
ATOM     21  C   UNL     1       2.895   1.887   2.598  0.00  0.00    -0.027 A 
ATOM     22 CL   UNL     1       5.024   5.513   4.203  0.00  0.00    -0.084 Cl
ENDBRANCH   1  21
BRANCH   8  23
ATOM     23  N   UNL     1       0.313  -2.949  -0.909  0.00  0.00    +0.057 N 
ATOM     24  O   UNL     1      -0.175  -3.987  -1.318  0.00  0.00    -0.126 OA
ATOM     25  O   UNL     1       0.233  -1.934  -1.577  0.00  0.00    -0.126 OA
ENDBRANCH   8  23
TORSDOF 2
