REMARK  Name = ZINC39726998
REMARK  7 active torsions:
REMARK  status: ('A' for Active; 'I' for Inactive)
REMARK    1  A    between atoms: C_4  and  N_7
REMARK    2  A    between atoms: C_12  and  N_16
REMARK    3  A    between atoms: N_19  and  C_22
REMARK    4  A    between atoms: C_22  and  C_23
REMARK    5  A    between atoms: N_25  and  C_26
REMARK    6  A    between atoms: C_26  and  C_27
REMARK    7  A    between atoms: C_27  and  C_28
REMARK                            x       y       z     vdW  Elec       q    Type
REMARK                         _______ _______ _______ _____ _____    ______ ____
ROOT
ATOM      1  N   UNL     1       5.832  -1.998  -2.349  0.00  0.00    -0.296 NA
ATOM      2  C   UNL     1       4.646  -1.235  -2.764  0.00  0.00    +0.066 C 
ATOM      3  C   UNL     1       4.436  -1.403  -4.270  0.00  0.00    -0.063 C 
ATOM      4  N   UNL     1       5.625  -0.922  -4.987  0.00  0.00    +0.387 N 
ATOM      5  C   UNL     1       6.796  -1.710  -4.580  0.00  0.00    -0.063 C 
ATOM      6  C   UNL     1       7.025  -1.544  -3.077  0.00  0.00    +0.066 C 
ATOM      7  H   UNL     1       5.780   0.050  -4.766  0.00  0.00    -0.081 HD
ENDROOT
BRANCH   1  12
ATOM      8  N   UNL     1       5.186  -4.484  -0.264  0.00  0.00    -0.160 N 
ATOM      9  C   UNL     1       6.496  -4.311  -0.530  0.00  0.00    +0.259 C 
ATOM     10  O   UNL     1       7.191  -5.262  -0.819  0.00  0.00    -0.272 OA
ATOM     11  C   UNL     1       7.091  -2.926  -0.465  0.00  0.00    +0.191 C 
ATOM     12  C   UNL     1       6.035  -1.907  -0.897  0.00  0.00    +0.126 C 
ATOM     13  C   UNL     1       4.737  -2.196  -0.191  0.00  0.00    +0.124 C 
ATOM     14  N   UNL     1       4.383  -3.390   0.074  0.00  0.00    -0.183 NA
ATOM     15 CL   UNL     1       7.617  -2.575   1.223  0.00  0.00    -0.110 Cl
BRANCH   8  19
ATOM     16  C   UNL     1       3.517  -8.296  -0.466  0.00  0.00    +0.000 A 
ATOM     17  C   UNL     1       4.312  -7.835  -1.500  0.00  0.00    +0.002 A 
ATOM     18  C   UNL     1       4.866  -6.572  -1.436  0.00  0.00    +0.025 A 
ATOM     19  C   UNL     1       4.625  -5.765  -0.332  0.00  0.00    +0.060 A 
ATOM     20  C   UNL     1       3.827  -6.231   0.705  0.00  0.00    +0.025 A 
ATOM     21  C   UNL     1       3.275  -7.495   0.634  0.00  0.00    +0.002 A 
ENDBRANCH   8  19
ENDBRANCH   1  12
BRANCH   4  22
ATOM     22  C   UNL     1       5.416  -1.068  -6.434  0.00  0.00    +0.019 C 
BRANCH  22  23
ATOM     23  C   UNL     1       6.581  -0.463  -7.173  0.00  0.00    +0.196 C 
ATOM     24  O   UNL     1       7.496   0.040  -6.556  0.00  0.00    -0.278 OA
ATOM     25  N   UNL     1       6.607  -0.480  -8.521  0.00  0.00    -0.317 N 
ATOM     26  H   UNL     1       5.875  -0.882  -9.014  0.00  0.00    +0.149 HD
BRANCH  25  27
ATOM     27  C   UNL     1       7.740   0.108  -9.239  0.00  0.00    +0.109 C 
BRANCH  27  28
ATOM     28  C   UNL     1       7.522  -0.043 -10.746  0.00  0.00    +0.056 C 
BRANCH  28  29
ATOM     29  C   UNL     1       8.688   0.562 -11.485  0.00  0.00    -0.021 A 
ATOM     30  C   UNL     1       9.958  -0.098 -11.799  0.00  0.00    +0.003 A 
ATOM     31  C   UNL     1      10.477  -1.370 -11.554  0.00  0.00    +0.010 A 
ATOM     32  C   UNL     1      11.733  -1.686 -11.991  0.00  0.00    +0.001 A 
ATOM     33  C   UNL     1      12.497  -0.752 -12.675  0.00  0.00    +0.002 A 
ATOM     34  C   UNL     1      12.004   0.510 -12.928  0.00  0.00    +0.026 A 
ATOM     35  C   UNL     1      10.728   0.853 -12.493  0.00  0.00    +0.047 A 
ATOM     36  N   UNL     1       9.971   2.000 -12.587  0.00  0.00    -0.360 N 
ATOM     37  C   UNL     1       8.757   1.805 -11.986  0.00  0.00    +0.087 A 
ATOM     38  H   UNL     1      10.255   2.821 -13.018  0.00  0.00    +0.165 HD
ENDBRANCH  28  29
ENDBRANCH  27  28
ENDBRANCH  25  27
ENDBRANCH  22  23
ENDBRANCH   4  22
TORSDOF 7
