REMARK  Name = ZINC50197218
REMARK  7 active torsions:
REMARK  status: ('A' for Active; 'I' for Inactive)
REMARK    1  A    between atoms: C_1  and  C_2
REMARK    2  A    between atoms: N_14  and  C_15
REMARK    3  A    between atoms: C_15  and  C_16
REMARK    4  A    between atoms: C_15  and  C_17
REMARK    5  A    between atoms: C_15  and  C_18
REMARK    6  A    between atoms: C_18  and  C_19
REMARK    7  A    between atoms: C_19  and  C_20
REMARK                            x       y       z     vdW  Elec       q    Type
REMARK                         _______ _______ _______ _____ _____    ______ ____
ROOT
ATOM      1  C   UNL     1       2.842  -1.343   0.266  0.00  0.00    +0.033 C 
ATOM      2  C   UNL     1       2.189  -0.352   1.232  0.00  0.00    +0.105 C 
ATOM      3  C   UNL     1       2.532   1.078   0.816  0.00  0.00    -0.017 A 
ATOM      4  C   UNL     1       3.793   1.644   0.999  0.00  0.00    +0.013 A 
ATOM      5  C   UNL     1       4.027   2.916   0.602  0.00  0.00    +0.046 A 
ATOM      6  S   UNL     1       2.439   3.391  -0.065  0.00  0.00    -0.101 S 
ATOM      7  C   UNL     1       1.587   1.866   0.236  0.00  0.00    -0.004 A 
ATOM      8  C   UNL     1       0.165   1.521  -0.068  0.00  0.00    +0.062 C 
ATOM      9  C   UNL     1       0.003  -0.005  -0.002  0.00  0.00    +0.115 C 
ATOM     10  N   UNL     1       0.728  -0.497   1.181  0.00  0.00    -0.278 N 
ATOM     11  C   UNL     1       0.062  -1.070   2.203  0.00  0.00    +0.303 C 
ATOM     12  O   UNL     1      -1.153  -1.100   2.196  0.00  0.00    -0.253 OA
ATOM     13  N   UNL     1       0.744  -1.611   3.232  0.00  0.00    -0.294 N 
ATOM     14  H   UNL     1       1.709  -1.525   3.273  0.00  0.00    +0.151 HD
ENDROOT
BRANCH  13  15
ATOM     15  C   UNL     1       0.026  -2.328   4.289  0.00  0.00    +0.031 C 
ATOM     16  C   UNL     1      -0.971  -1.383   4.962  0.00  0.00    +0.031 C 
ATOM     17  C   UNL     1      -0.726  -3.514   3.681  0.00  0.00    +0.031 C 
BRANCH  15  18
ATOM     18  C   UNL     1       1.027  -2.838   5.328  0.00  0.00    +0.036 C 
BRANCH  18  19
ATOM     19  C   UNL     1       0.278  -3.588   6.432  0.00  0.00    +0.127 C 
BRANCH  19  20
ATOM     20  C   UNL     1       1.263  -4.090   7.456  0.00  0.00    +0.356 C 
ATOM     21  O   UNL     1       2.454  -3.869   7.316  0.00  0.00    -0.246 OA
ATOM     22  O   UNL     1       0.869  -4.717   8.424  0.00  0.00    -0.246 OA
ENDBRANCH  19  20
ENDBRANCH  18  19
ENDBRANCH  15  18
ENDBRANCH  13  15
TORSDOF 4
