REMARK  Name = ZINC15018649
REMARK  16 active torsions:
REMARK  status: ('A' for Active; 'I' for Inactive)
REMARK    1  A    between atoms: C_1  and  C_2
REMARK    2  A    between atoms: C_2  and  N_3
REMARK    3  A    between atoms: N_3  and  C_4
REMARK    4  A    between atoms: N_3  and  C_6
REMARK    5  A    between atoms: C_4  and  C_5
REMARK    6  A    between atoms: C_9  and  C_13
REMARK    7  A    between atoms: C_10  and  O_12
REMARK    8  A    between atoms: N_14  and  N_15
REMARK    9  A    between atoms: C_16  and  C_18
REMARK   10  A    between atoms: C_18  and  O_19
REMARK   11  A    between atoms: O_19  and  C_20
REMARK   12  A    between atoms: C_21  and  C_31
REMARK   13  A    between atoms: C_22  and  C_28
REMARK   14  A    between atoms: C_24  and  C_26
REMARK   15  A    between atoms: C_28  and  O_29
REMARK   16  A    between atoms: O_29  and  C_30
REMARK                            x       y       z     vdW  Elec       q    Type
REMARK                         _______ _______ _______ _____ _____    ______ ____
ROOT
ATOM      1  N   UNL     1      -2.537   4.100   0.036  0.00  0.00    -0.204 N 
ATOM      2  C   UNL     1      -2.553   5.447   0.044  0.00  0.00    +0.270 C 
ATOM      3  O   UNL     1      -1.509   6.066   0.042  0.00  0.00    -0.270 OA
ATOM      4  H   UNL     1      -3.372   3.605   0.038  0.00  0.00    +0.177 HD
ENDROOT
BRANCH   1   6
ATOM      5  C   UNL     1      -1.301   2.115   0.020  0.00  0.00    +0.142 C 
ATOM      6  N   UNL     1      -1.316   3.413   0.027  0.00  0.00    -0.188 NA
BRANCH   5  10
ATOM      7  C   UNL     1       2.402   0.033  -0.021  0.00  0.00    +0.033 A 
ATOM      8  C   UNL     1       1.204  -0.676  -0.013  0.00  0.00    +0.024 A 
ATOM      9  C   UNL     1       0.002  -0.004   0.002  0.00  0.00    +0.015 A 
ATOM     10  C   UNL     1      -0.017   1.393   0.010  0.00  0.00    +0.036 A 
ATOM     11  C   UNL     1       1.191   2.107   0.002  0.00  0.00    +0.127 A 
ATOM     12  C   UNL     1       2.393   1.422  -0.014  0.00  0.00    +0.069 A 
BRANCH  11  13
ATOM     13  O   UNL     1       1.180   3.464   0.009  0.00  0.00    -0.506 OA
ATOM     14  H   UNL     1       1.185   3.853   0.894  0.00  0.00    +0.292 HD
ENDBRANCH  11  13
BRANCH   7  15
ATOM     15  N   UNL     1       3.616  -0.654  -0.036  0.00  0.00    -0.330 N 
BRANCH  15  17
ATOM     16  C   UNL     1       3.619  -2.621  -1.489  0.00  0.00    +0.024 C 
ATOM     17  C   UNL     1       3.628  -2.119  -0.044  0.00  0.00    +0.102 C 
ENDBRANCH  15  17
BRANCH  15  18
ATOM     18  C   UNL     1       4.878   0.090  -0.044  0.00  0.00    +0.102 C 
ATOM     19  C   UNL     1       5.331   0.341   1.396  0.00  0.00    +0.024 C 
ENDBRANCH  15  18
ENDBRANCH   7  15
ENDBRANCH   5  10
ENDBRANCH   1   6
BRANCH   2  20
ATOM     20  C   UNL     1      -3.866   6.186   0.054  0.00  0.00    +0.328 C 
BRANCH  20  21
ATOM     21  O   UNL     1      -3.622   7.593   0.060  0.00  0.00    -0.466 OA
BRANCH  21  22
ATOM     22  C   UNL     1      -4.706   8.406   0.070  0.00  0.00    +0.234 A 
ATOM     23  C   UNL     1      -4.533   9.799   0.083  0.00  0.00    +0.120 A 
ATOM     24  C   UNL     1      -5.667  10.619   0.087  0.00  0.00    +0.016 A 
ATOM     25  C   UNL     1      -6.914  10.017   0.090  0.00  0.00    +0.046 A 
ATOM     26  C   UNL     1      -7.002   8.636   0.083  0.00  0.00    +0.056 A 
ATOM     27  N   UNL     1      -5.919   7.883   0.073  0.00  0.00    -0.216 NA
ATOM     28  C   UNL     1      -8.359   7.981   0.086  0.00  0.00    +0.067 C 
ATOM     29 BR   UNL     1      -8.482  11.073   0.104  0.00  0.00    -0.048 Br
BRANCH  23  30
ATOM     30  C   UNL     1      -3.220  10.370   0.085  0.00  0.00    +0.105 C 
ATOM     31  N   UNL     1      -2.178  10.824   0.087  0.00  0.00    -0.191 NA
ENDBRANCH  23  30
BRANCH  24  32
ATOM     32  C   UNL     1      -5.534  12.120   0.096  0.00  0.00    +0.197 C 
BRANCH  32  33
ATOM     33  O   UNL     1      -5.485  12.587   1.445  0.00  0.00    -0.378 OA
ATOM     34  C   UNL     1      -5.359  14.005   1.566  0.00  0.00    +0.194 C 
ENDBRANCH  32  33
ENDBRANCH  24  32
ENDBRANCH  21  22
ENDBRANCH  20  21
ENDBRANCH   2  20
TORSDOF 12
