REMARK  Name = ZINC02912973
REMARK  6 active torsions:
REMARK  status: ('A' for Active; 'I' for Inactive)
REMARK    1  A    between atoms: C_1  and  C_2
REMARK    2  A    between atoms: C_2  and  C_3
REMARK    3  A    between atoms: C_3  and  C_4
REMARK    4  A    between atoms: C_4  and  S_5
REMARK    5  A    between atoms: S_5  and  C_6
REMARK    6  A    between atoms: C_19  and  C_22
REMARK                            x       y       z     vdW  Elec       q    Type
REMARK                         _______ _______ _______ _____ _____    ______ ____
ROOT
ATOM      1  C   UNL     1      -5.139   1.650   4.083  0.00  0.00    +0.212 A 
ATOM      2  N   UNL     1      -6.391   1.424   4.470  0.00  0.00    -0.184 NA
ATOM      3  C   UNL     1      -6.815   1.933   5.614  0.00  0.00    +0.248 A 
ATOM      4  C   UNL     1      -5.918   2.700   6.391  0.00  0.00    +0.156 A 
ATOM      5  N   UNL     1      -4.685   2.890   5.947  0.00  0.00    -0.141 NA
ATOM      6  N   UNL     1      -4.311   2.373   4.827  0.00  0.00    -0.122 NA
ATOM      7  C   UNL     1      -6.369   3.266   7.679  0.00  0.00    +0.028 A 
ATOM      8  C   UNL     1      -6.135   4.595   8.012  0.00  0.00    +0.012 A 
ATOM      9  C   UNL     1      -6.561   5.083   9.231  0.00  0.00    +0.001 A 
ATOM     10  C   UNL     1      -7.219   4.256  10.126  0.00  0.00    +0.002 A 
ATOM     11  C   UNL     1      -7.463   2.933   9.806  0.00  0.00    +0.024 A 
ATOM     12  C   UNL     1      -7.049   2.431   8.586  0.00  0.00    +0.039 A 
ATOM     13  N   UNL     1      -7.310   1.109   8.215  0.00  0.00    -0.305 N 
ATOM     14  C   UNL     1      -8.272   0.855   7.147  0.00  0.00    +0.294 C 
ATOM     15  O   UNL     1      -8.084   1.737   6.046  0.00  0.00    -0.449 OA
ATOM     16  H   UNL     1      -6.860   0.373   8.660  0.00  0.00    +0.150 HD
ENDROOT
BRANCH  14  17
ATOM     17  C   UNL     1      -9.666   1.036   7.688  0.00  0.00    +0.013 A 
ATOM     18  C   UNL     1      -9.975   0.597   8.963  0.00  0.00    +0.009 A 
ATOM     19  C   UNL     1     -11.253   0.766   9.462  0.00  0.00    +0.002 A 
ATOM     20  C   UNL     1     -12.225   1.366   8.683  0.00  0.00    +0.020 A 
ATOM     21  C   UNL     1     -11.918   1.801   7.407  0.00  0.00    +0.041 A 
ATOM     22  C   UNL     1     -10.638   1.635   6.909  0.00  0.00    +0.029 A 
ATOM     23 CL   UNL     1     -13.139   2.553   6.428  0.00  0.00    -0.084 Cl
ENDBRANCH  14  17
BRANCH   1  24
ATOM     24  S   UNL     1      -4.567   0.974   2.560  0.00  0.00    -0.084 S 
BRANCH  24  25
ATOM     25  C   UNL     1      -2.865   1.588   2.562  0.00  0.00    +0.077 C 
BRANCH  25  26
ATOM     26  C   UNL     1      -2.149   1.113   1.296  0.00  0.00    +0.011 C 
BRANCH  26  28
ATOM     27  C   UNL     1       0.006   1.157   0.032  0.00  0.00    +0.004 C 
ATOM     28  C   UNL     1      -0.710   1.632   1.298  0.00  0.00    -0.003 C 
ENDBRANCH  26  28
ENDBRANCH  25  26
ENDBRANCH  24  25
ENDBRANCH   1  24
TORSDOF 5
