REMARK  Name = ZINC40010951
REMARK  10 active torsions:
REMARK  status: ('A' for Active; 'I' for Inactive)
REMARK    1  A    between atoms: C_1  and  C_2
REMARK    2  A    between atoms: C_2  and  N_3
REMARK    3  A    between atoms: N_3  and  C_4
REMARK    4  A    between atoms: C_4  and  N_6
REMARK    5  A    between atoms: C_11  and  O_32
REMARK    6  A    between atoms: C_12  and  O_30
REMARK    7  A    between atoms: C_15  and  C_17
REMARK    8  A    between atoms: C_22  and  C_29
REMARK    9  A    between atoms: O_30  and  C_31
REMARK   10  A    between atoms: O_32  and  C_33
REMARK                            x       y       z     vdW  Elec       q    Type
REMARK                         _______ _______ _______ _____ _____    ______ ____
ROOT
ATOM      1  N   UNL     1      -2.831  -2.309   0.206  0.00  0.00    -0.304 N 
ATOM      2  C   UNL     1      -3.972  -1.379   0.229  0.00  0.00    +0.112 C 
ATOM      3  C   UNL     1      -4.774  -1.587  -1.055  0.00  0.00    +0.054 C 
ATOM      4  C   UNL     1      -5.020  -3.052  -1.302  0.00  0.00    -0.037 A 
ATOM      5  C   UNL     1      -6.064  -3.393  -2.155  0.00  0.00    +0.053 A 
ATOM      6  C   UNL     1      -6.340  -4.718  -2.434  0.00  0.00    +0.162 A 
ATOM      7  C   UNL     1      -5.564  -5.720  -1.858  0.00  0.00    +0.162 A 
ATOM      8  C   UNL     1      -4.529  -5.377  -1.008  0.00  0.00    +0.055 A 
ATOM      9  C   UNL     1      -4.260  -4.044  -0.726  0.00  0.00    -0.019 A 
ATOM     10  C   UNL     1      -3.133  -3.744   0.226  0.00  0.00    +0.121 C 
ENDROOT
BRANCH  10  11
ATOM     11  C   UNL     1      -1.890  -4.531  -0.195  0.00  0.00    +0.123 C 
ATOM     12  C   UNL     1      -1.384  -3.941  -1.496  0.00  0.00    -0.003 C 
ATOM     13  C   UNL     1      -1.288  -4.780  -2.567  0.00  0.00    -0.007 A 
ATOM     14  C   UNL     1      -0.810  -4.293  -3.861  0.00  0.00    +0.012 A 
ATOM     15  C   UNL     1      -0.732  -5.164  -4.900  0.00  0.00    -0.050 A 
ATOM     16  C   UNL     1      -1.097  -6.502  -4.755  0.00  0.00    +0.005 A 
ATOM     17  C   UNL     1      -1.548  -7.016  -3.581  0.00  0.00    +0.024 A 
ATOM     18  C   UNL     1      -1.667  -6.198  -2.443  0.00  0.00    +0.040 A 
ATOM     19  N   UNL     1      -2.111  -6.713  -1.296  0.00  0.00    -0.284 N 
ATOM     20  C   UNL     1      -2.248  -6.000  -0.191  0.00  0.00    +0.226 C 
ATOM     21  O   UNL     1      -2.659  -6.526   0.826  0.00  0.00    -0.275 OA
ATOM     22  C   UNL     1      -0.240  -4.674  -6.238  0.00  0.00    +0.044 C 
ATOM     23  H   UNL     1      -2.345  -7.653  -1.272  0.00  0.00    +0.155 HD
ENDBRANCH  10  11
BRANCH   1  24
ATOM     24  C   UNL     1      -1.561  -1.860   0.162  0.00  0.00    +0.133 C 
ATOM     25  S   UNL     1      -0.259  -2.967   0.250  0.00  0.00    -0.019 S 
BRANCH  24  26
ATOM     26  N   UNL     1      -1.317  -0.539   0.049  0.00  0.00    -0.327 N 
ATOM     27  H   UNL     1      -2.052   0.081  -0.075  0.00  0.00    +0.148 HD
BRANCH  26  29
ATOM     28  C   UNL     1       0.058   1.481  -0.040  0.00  0.00    +0.024 C 
ATOM     29  C   UNL     1       0.059  -0.041   0.114  0.00  0.00    +0.100 C 
ENDBRANCH  26  29
ENDBRANCH  24  26
ENDBRANCH   1  24
BRANCH   7  30
ATOM     30  O   UNL     1      -5.824  -7.027  -2.128  0.00  0.00    -0.491 OA
ATOM     31  C   UNL     1      -4.985  -7.999  -1.499  0.00  0.00    +0.277 C 
ENDBRANCH   7  30
BRANCH   6  32
ATOM     32  O   UNL     1      -7.364  -5.042  -3.269  0.00  0.00    -0.491 OA
ATOM     33  C   UNL     1      -8.115  -3.960  -3.823  0.00  0.00    +0.277 C 
ENDBRANCH   6  32
TORSDOF 6
