REMARK  Name = ZINC66132267
REMARK  9 active torsions:
REMARK  status: ('A' for Active; 'I' for Inactive)
REMARK    1  A    between atoms: C_1  and  C_2
REMARK    2  A    between atoms: C_2  and  O_3
REMARK    3  A    between atoms: O_3  and  C_4
REMARK    4  A    between atoms: C_4  and  C_5
REMARK    5  A    between atoms: C_5  and  O_6
REMARK    6  A    between atoms: O_6  and  C_7
REMARK    7  A    between atoms: C_16  and  C_17
REMARK    8  A    between atoms: N_28  and  C_29
REMARK    9  A    between atoms: C_29  and  C_30
REMARK                            x       y       z     vdW  Elec       q    Type
REMARK                         _______ _______ _______ _____ _____    ______ ____
ROOT
ATOM      1  C   UNL     1       5.485  -1.712  -2.367  0.00  0.00    +0.197 C 
ATOM      2  N   UNL     1       6.918  -2.020  -2.441  0.00  0.00    -0.321 N 
ATOM      3  C   UNL     1       7.394  -3.133  -1.757  0.00  0.00    +0.041 A 
ATOM      4  C   UNL     1       8.494  -3.849  -2.198  0.00  0.00    +0.024 A 
ATOM      5  C   UNL     1       8.923  -4.951  -1.483  0.00  0.00    +0.002 A 
ATOM      6  C   UNL     1       8.263  -5.343  -0.329  0.00  0.00    +0.001 A 
ATOM      7  C   UNL     1       7.166  -4.640   0.125  0.00  0.00    +0.015 A 
ATOM      8  C   UNL     1       6.723  -3.527  -0.586  0.00  0.00    +0.058 A 
ATOM      9  C   UNL     1       5.562  -2.735  -0.142  0.00  0.00    +0.250 C 
ATOM     10  O   UNL     1       5.110  -2.880   0.978  0.00  0.00    -0.270 OA
ATOM     11  N   UNL     1       5.010  -1.848  -0.991  0.00  0.00    -0.272 N 
ATOM     12  H   UNL     1       7.520  -1.460  -2.955  0.00  0.00    +0.148 HD
ENDROOT
BRANCH   1  22
ATOM     13  C   UNL     1       4.136  -3.776  -2.723  0.00  0.00    +0.128 A 
ATOM     14  C   UNL     1       3.422  -4.666  -3.531  0.00  0.00    +0.046 A 
ATOM     15  C   UNL     1       3.299  -4.450  -4.869  0.00  0.00    +0.012 A 
ATOM     16  C   UNL     1       3.896  -3.318  -5.450  0.00  0.00    -0.017 A 
ATOM     17  C   UNL     1       3.787  -3.064  -6.828  0.00  0.00    +0.008 A 
ATOM     18  C   UNL     1       4.377  -1.958  -7.358  0.00  0.00    +0.001 A 
ATOM     19  C   UNL     1       5.089  -1.070  -6.554  0.00  0.00    +0.001 A 
ATOM     20  C   UNL     1       5.215  -1.283  -5.216  0.00  0.00    +0.009 A 
ATOM     21  C   UNL     1       4.620  -2.415  -4.632  0.00  0.00    -0.008 A 
ATOM     22  C   UNL     1       4.724  -2.664  -3.254  0.00  0.00    +0.040 A 
BRANCH  13  23
ATOM     23  O   UNL     1       4.242  -4.019  -1.390  0.00  0.00    -0.489 OA
BRANCH  23  24
ATOM     24  C   UNL     1       3.708  -5.255  -0.911  0.00  0.00    +0.257 C 
BRANCH  24  25
ATOM     25  C   UNL     1       3.808  -5.296   0.615  0.00  0.00    +0.200 C 
BRANCH  25  26
ATOM     26  O   UNL     1       2.935  -4.314   1.176  0.00  0.00    -0.377 OA
BRANCH  26  28
ATOM     27  C   UNL     1       1.878  -3.290   3.093  0.00  0.00    +0.034 C 
ATOM     28  C   UNL     1       2.925  -4.293   2.605  0.00  0.00    +0.156 C 
ENDBRANCH  26  28
ENDBRANCH  25  26
ENDBRANCH  24  25
ENDBRANCH  23  24
ENDBRANCH  13  23
ENDBRANCH   1  22
BRANCH  11  29
ATOM     29  C   UNL     1       3.908  -1.004  -0.523  0.00  0.00    +0.141 C 
BRANCH  29  30
ATOM     30  C   UNL     1       2.574  -1.639  -0.920  0.00  0.00    +0.136 C 
ATOM     31  C   UNL     1       1.394  -0.802  -0.368  0.00  0.00    +0.035 C 
ATOM     32  C   UNL     1       0.266  -1.189  -1.363  0.00  0.00    +0.031 C 
ATOM     33  C   UNL     1       1.044  -1.373  -2.684  0.00  0.00    +0.160 C 
ATOM     34  O   UNL     1       2.417  -1.617  -2.348  0.00  0.00    -0.375 OA
ENDBRANCH  29  30
ENDBRANCH  11  29
TORSDOF 8
