REMARK  Name = ZINC28958909
REMARK  10 active torsions:
REMARK  status: ('A' for Active; 'I' for Inactive)
REMARK    1  A    between atoms: C_1  and  C_2
REMARK    2  A    between atoms: C_2  and  C_3
REMARK    3  A    between atoms: C_3  and  N_4
REMARK    4  A    between atoms: N_4  and  C_5
REMARK    5  A    between atoms: N_4  and  C_21
REMARK    6  A    between atoms: C_5  and  C_6
REMARK    7  A    between atoms: N_8  and  C_9
REMARK    8  A    between atoms: C_14  and  N_15
REMARK    9  A    between atoms: C_21  and  C_22
REMARK   10  A    between atoms: N_24  and  C_25
REMARK                            x       y       z     vdW  Elec       q    Type
REMARK                         _______ _______ _______ _____ _____    ______ ____
ROOT
ATOM      1  N   UNL     1       1.368   3.049  -1.143  0.00  0.00    +0.391 N 
ATOM      2  H   UNL     1       0.702   2.963  -2.014  0.00  0.00    -0.080 HD
ENDROOT
BRANCH   1   3
ATOM      3  C   UNL     1       0.730   2.353  -0.018  0.00  0.00    -0.078 C 
BRANCH   3   5
ATOM      4  C   UNL     1      -1.429   1.960   1.178  0.00  0.00    +0.002 C 
ATOM      5  C   UNL     1      -0.767   2.672  -0.003  0.00  0.00    -0.022 C 
ENDBRANCH   3   5
ENDBRANCH   1   3
BRANCH   1   6
ATOM      6  C   UNL     1       2.650   2.421  -1.491  0.00  0.00    +0.020 C 
BRANCH   6   7
ATOM      7  C   UNL     1       2.401   1.033  -2.023  0.00  0.00    +0.201 C 
ATOM      8  O   UNL     1       1.268   0.608  -2.103  0.00  0.00    -0.278 OA
ATOM      9  N   UNL     1       3.438   0.263  -2.408  0.00  0.00    -0.286 N 
ATOM     10  H   UNL     1       4.470   0.610  -2.247  0.00  0.00    +0.155 HD
BRANCH   9  11
ATOM     11  C   UNL     1       3.203  -0.977  -3.014  0.00  0.00    +0.055 A 
ATOM     12  C   UNL     1       1.964  -1.254  -3.573  0.00  0.00    +0.025 A 
ATOM     13  C   UNL     1       1.735  -2.477  -4.174  0.00  0.00    +0.002 A 
ATOM     14  C   UNL     1       2.735  -3.432  -4.213  0.00  0.00    +0.002 A 
ATOM     15  C   UNL     1       3.971  -3.166  -3.655  0.00  0.00    +0.025 A 
ATOM     16  C   UNL     1       4.211  -1.939  -3.053  0.00  0.00    +0.057 A 
BRANCH  16  17
ATOM     17  N   UNL     1       5.463  -1.668  -2.486  0.00  0.00    -0.270 N 
ATOM     18  C   UNL     1       5.817  -1.948  -1.089  0.00  0.00    +0.114 C 
ATOM     19  C   UNL     1       7.363  -1.907  -1.042  0.00  0.00    +0.029 C 
ATOM     20  C   UNL     1       7.688  -0.976  -2.233  0.00  0.00    +0.098 C 
ATOM     21  C   UNL     1       6.492  -1.113  -3.149  0.00  0.00    +0.220 C 
ATOM     22  O   UNL     1       6.466  -0.773  -4.313  0.00  0.00    -0.275 OA
ENDBRANCH  16  17
ENDBRANCH   9  11
ENDBRANCH   6   7
ENDBRANCH   1   6
BRANCH   1  23
ATOM     23  C   UNL     1       1.544   4.477  -0.847  0.00  0.00    +0.020 C 
BRANCH  23  24
ATOM     24  C   UNL     1       1.659   5.246  -2.138  0.00  0.00    +0.201 C 
ATOM     25  O   UNL     1       1.625   4.660  -3.199  0.00  0.00    -0.278 OA
ATOM     26  N   UNL     1       1.807   6.586  -2.112  0.00  0.00    -0.286 N 
ATOM     27  H   UNL     1       1.934   7.107  -1.152  0.00  0.00    +0.155 HD
BRANCH  26  28
ATOM     28  C   UNL     1       1.797   7.314  -3.308  0.00  0.00    +0.052 A 
ATOM     29  C   UNL     1       1.251   6.757  -4.457  0.00  0.00    +0.026 A 
ATOM     30  C   UNL     1       1.243   7.477  -5.636  0.00  0.00    +0.022 A 
ATOM     31  C   UNL     1       1.777   8.753  -5.673  0.00  0.00    +0.042 A 
ATOM     32  C   UNL     1       2.322   9.311  -4.530  0.00  0.00    +0.041 A 
ATOM     33  C   UNL     1       2.328   8.597  -3.346  0.00  0.00    +0.064 A 
ATOM     34 CL   UNL     1       3.004   9.301  -1.911  0.00  0.00    -0.082 Cl
ATOM     35 CL   UNL     1       1.764   9.655  -7.156  0.00  0.00    -0.083 Cl
ENDBRANCH  26  28
ENDBRANCH  23  24
ENDBRANCH   1  23
TORSDOF 9
