REMARK  Name = ZINC06320860
REMARK  10 active torsions:
REMARK  status: ('A' for Active; 'I' for Inactive)
REMARK    1  A    between atoms: C_1  and  C_2
REMARK    2  A    between atoms: C_6  and  C_15
REMARK    3  A    between atoms: C_13  and  C_14
REMARK    4  A    between atoms: C_15  and  N_64
REMARK    5  A    between atoms: C_16  and  C_17
REMARK    6  A    between atoms: C_16  and  N_64
REMARK    7  A    between atoms: C_23  and  C_24
REMARK    8  A    between atoms: C_23  and  N_64
REMARK    9  A    between atoms: N_28  and  C_29
REMARK   10  A    between atoms: C_29  and  C_30
REMARK                            x       y       z     vdW  Elec       q    Type
REMARK                         _______ _______ _______ _____ _____    ______ ____
ROOT
ATOM      1  N   UNL     1       5.207  -3.127   1.372  0.00  0.00    +0.390 N 
ATOM      2  H   UNL     1       4.380  -3.609   1.743  0.00  0.00    -0.080 HD
ENDROOT
BRANCH   1   3
ATOM      3  C   UNL     1       4.978  -2.806  -0.052  0.00  0.00    -0.036 C 
BRANCH   3   9
ATOM      4  C   UNL     1      -1.079  -6.545  -2.279  0.00  0.00    +0.044 C 
ATOM      5  C   UNL     1       0.418  -6.420  -2.159  0.00  0.00    -0.047 A 
ATOM      6  C   UNL     1       0.959  -5.324  -1.549  0.00  0.00    +0.013 A 
ATOM      7  C   UNL     1       2.349  -5.207  -1.438  0.00  0.00    -0.001 A 
ATOM      8  C   UNL     1       2.962  -4.046  -0.791  0.00  0.00    +0.017 A 
ATOM      9  C   UNL     1       4.314  -3.987  -0.712  0.00  0.00    +0.001 A 
ATOM     10  C   UNL     1       5.103  -5.029  -1.246  0.00  0.00    +0.251 A 
ATOM     11  O   UNL     1       6.317  -4.957  -1.164  0.00  0.00    -0.268 OA
ATOM     12  N   UNL     1       4.549  -6.099  -1.842  0.00  0.00    -0.322 N 
ATOM     13  H   UNL     1       5.121  -6.798  -2.198  0.00  0.00    +0.169 HD
ATOM     14  C   UNL     1       3.180  -6.219  -1.955  0.00  0.00    +0.049 A 
ATOM     15  C   UNL     1       2.607  -7.326  -2.571  0.00  0.00    +0.030 A 
ATOM     16  C   UNL     1       1.235  -7.419  -2.669  0.00  0.00    -0.046 A 
ATOM     17  C   UNL     1       0.615  -8.616  -3.343  0.00  0.00    +0.044 C 
ENDBRANCH   3   9
ENDBRANCH   1   3
BRANCH   1  18
ATOM     18  C   UNL     1       5.423  -1.883   2.141  0.00  0.00    -0.042 C 
BRANCH  18  19
ATOM     19  C   UNL     1       4.090  -1.220   2.372  0.00  0.00    -0.064 A 
ATOM     20  C   UNL     1       3.667  -0.207   1.532  0.00  0.00    +0.002 A 
ATOM     21  C   UNL     1       2.441   0.397   1.740  0.00  0.00    +0.000 A 
ATOM     22  C   UNL     1       1.643  -0.004   2.796  0.00  0.00    +0.000 A 
ATOM     23  C   UNL     1       2.069  -1.013   3.639  0.00  0.00    +0.000 A 
ATOM     24  C   UNL     1       3.292  -1.621   3.427  0.00  0.00    +0.002 A 
ENDBRANCH  18  19
ENDBRANCH   1  18
BRANCH   1  25
ATOM     25  C   UNL     1       6.381  -4.015   1.507  0.00  0.00    +0.001 C 
BRANCH  25  26
ATOM     26  C   UNL     1       6.461  -4.502   2.931  0.00  0.00    +0.135 A 
ATOM     27  N   UNL     1       7.118  -3.938   3.916  0.00  0.00    -0.115 NA
ATOM     28  N   UNL     1       6.939  -4.651   4.973  0.00  0.00    -0.023 NA
ATOM     29  N   UNL     1       6.191  -5.660   4.688  0.00  0.00    -0.044 NA
ATOM     30  N   UNL     1       5.876  -5.603   3.438  0.00  0.00    -0.229 N 
BRANCH  30  31
ATOM     31  C   UNL     1       5.039  -6.558   2.708  0.00  0.00    +0.178 C 
BRANCH  31  32
ATOM     32  C   UNL     1       5.918  -7.664   2.123  0.00  0.00    +0.140 C 
ATOM     33  C   UNL     1       5.061  -8.612   1.256  0.00  0.00    +0.035 C 
ATOM     34  C   UNL     1       5.659 -10.003   1.599  0.00  0.00    +0.031 C 
ATOM     35  C   UNL     1       6.035  -9.803   3.089  0.00  0.00    +0.160 C 
ATOM     36  O   UNL     1       6.488  -8.443   3.182  0.00  0.00    -0.375 OA
ENDBRANCH  31  32
ENDBRANCH  30  31
ENDBRANCH  25  26
ENDBRANCH   1  25
TORSDOF 8
