REMARK  Name = ZINC58293329
REMARK  4 active torsions:
REMARK  status: ('A' for Active; 'I' for Inactive)
REMARK    1  A    between atoms: C_8  and  C_11
REMARK    2  A    between atoms: N_13  and  C_14
REMARK    3  A    between atoms: C_14  and  C_15
REMARK    4  A    between atoms: C_20  and  N_21
REMARK                            x       y       z     vdW  Elec       q    Type
REMARK                         _______ _______ _______ _____ _____    ______ ____
ROOT
ATOM      1  C   UNL     1       4.529  -5.738   0.775  0.00  0.00    +0.143 C 
ENDROOT
BRANCH   1   2
ATOM      2  C   UNL     1       3.885  -6.997   0.254  0.00  0.00    +0.008 A 
ATOM      3  C   UNL     1       3.070  -7.758   1.073  0.00  0.00    +0.010 A 
ATOM      4  C   UNL     1       2.498  -8.911   0.551  0.00  0.00    +0.018 A 
ATOM      5  C   UNL     1       2.757  -9.261  -0.759  0.00  0.00    +0.084 A 
ATOM      6  N   UNL     1       3.539  -8.517  -1.516  0.00  0.00    -0.349 N 
ATOM      7  C   UNL     1       4.098  -7.407  -1.058  0.00  0.00    +0.103 A 
ATOM      8  H   UNL     1       3.705  -8.786  -2.433  0.00  0.00    +0.167 HD
BRANCH   7   9
ATOM      9  N   UNL     1       4.911  -6.649  -1.893  0.00  0.00    -0.316 N 
ATOM     10  C   UNL     1       6.362  -6.876  -1.934  0.00  0.00    +0.106 C 
ATOM     11  C   UNL     1       6.783  -7.111  -3.388  0.00  0.00    +0.019 C 
ATOM     12  C   UNL     1       6.306  -5.939  -4.249  0.00  0.00    +0.003 C 
ATOM     13  C   UNL     1       4.779  -5.854  -4.196  0.00  0.00    +0.019 C 
ATOM     14  C   UNL     1       4.334  -5.609  -2.756  0.00  0.00    +0.106 C 
ENDBRANCH   7   9
ENDBRANCH   1   2
BRANCH   1  17
ATOM     15  C   UNL     1       4.197  -3.330   0.610  0.00  0.00    +0.254 C 
ATOM     16  O   UNL     1       5.160  -3.177   1.331  0.00  0.00    -0.272 OA
ATOM     17  N   UNL     1       3.798  -4.572   0.272  0.00  0.00    -0.308 N 
ATOM     18  H   UNL     1       3.028  -4.694  -0.304  0.00  0.00    +0.149 HD
BRANCH  15  26
ATOM     19  C   UNL     1       0.714   1.502   1.183  0.00  0.00    +0.000 A 
ATOM     20  C   UNL     1       1.945   2.127   1.111  0.00  0.00    +0.004 A 
ATOM     21  C   UNL     1       3.092   1.387   0.915  0.00  0.00    +0.046 A 
ATOM     22  C   UNL     1       3.019   0.002   0.786  0.00  0.00    +0.125 A 
ATOM     23  C   UNL     1       1.776  -0.614   0.853  0.00  0.00    -0.002 A 
ATOM     24  C   UNL     1       0.633   0.127   1.054  0.00  0.00    +0.007 A 
ATOM     25  C   UNL     1       2.005  -2.100   0.658  0.00  0.00    +0.093 C 
ATOM     26  C   UNL     1       3.445  -2.131   0.093  0.00  0.00    +0.263 C 
ATOM     27  O   UNL     1       4.012  -0.911   0.601  0.00  0.00    -0.479 OA
ENDBRANCH  15  26
ENDBRANCH   1  17
TORSDOF 4
