REMARK  Name = ZINC09155861
REMARK  11 active torsions:
REMARK  status: ('A' for Active; 'I' for Inactive)
REMARK    1  A    between atoms: C_1  and  C_2
REMARK    2  A    between atoms: C_2  and  C_3
REMARK    3  A    between atoms: C_2  and  C_4
REMARK    4  A    between atoms: C_2  and  N_5
REMARK    5  A    between atoms: C_6  and  C_8
REMARK    6  A    between atoms: C_8  and  N_65
REMARK    7  A    between atoms: C_15  and  C_17
REMARK    8  A    between atoms: C_20  and  S_23
REMARK    9  A    between atoms: S_23  and  N_26
REMARK   10  A    between atoms: N_26  and  C_27
REMARK   11  A    between atoms: C_27  and  C_28
REMARK                            x       y       z     vdW  Elec       q    Type
REMARK                         _______ _______ _______ _____ _____    ______ ____
ROOT
ATOM      1  C   UNL     1      -0.785  -1.870   1.662  0.00  0.00    -0.077 C 
ATOM      2  C   UNL     1      -1.203  -2.821   0.614  0.00  0.00    +0.000 C 
ATOM      3  C   UNL     1      -0.041  -3.796   0.299  0.00  0.00    +0.106 C 
ATOM      4  N   UNL     1       1.022  -3.080  -0.371  0.00  0.00    -0.299 N 
ATOM      5  C   UNL     1       2.118  -2.406   0.355  0.00  0.00    +0.089 C 
ATOM      6  C   UNL     1       1.597  -1.657   1.597  0.00  0.00    -0.059 C 
ATOM      7  C   UNL     1       1.014  -3.027  -1.718  0.00  0.00    +0.247 C 
ATOM      8  O   UNL     1       1.837  -2.353  -2.305  0.00  0.00    -0.270 OA
ATOM      9  N   UNL     1       0.340  -1.008   1.260  0.00  0.00    +0.386 N 
ATOM     10  H   UNL     1       0.302  -0.859   0.245  0.00  0.00    -0.081 HD
ENDROOT
BRANCH   7  11
ATOM     11  C   UNL     1       0.002  -3.788  -2.482  0.00  0.00    +0.037 A 
ATOM     12  C   UNL     1      -1.233  -4.087  -1.904  0.00  0.00    +0.015 A 
ATOM     13  C   UNL     1      -2.174  -4.795  -2.624  0.00  0.00    +0.029 A 
ATOM     14  C   UNL     1      -1.892  -5.216  -3.911  0.00  0.00    +0.105 A 
ATOM     15  C   UNL     1      -0.667  -4.927  -4.487  0.00  0.00    +0.029 A 
ATOM     16  C   UNL     1       0.281  -4.216  -3.781  0.00  0.00    +0.015 A 
BRANCH  14  17
ATOM     17  S   UNL     1      -3.096  -6.125  -4.821  0.00  0.00    +0.059 S 
ATOM     18  O   UNL     1      -4.361  -5.794  -4.262  0.00  0.00    -0.153 OA
ATOM     19  O   UNL     1      -2.797  -5.932  -6.196  0.00  0.00    -0.153 OA
BRANCH  17  20
ATOM     20  N   UNL     1      -2.843  -7.730  -4.501  0.00  0.00    -0.183 NA
ATOM     21  H   UNL     1      -2.562  -8.327  -5.212  0.00  0.00    +0.148 HD
BRANCH  20  22
ATOM     22  C   UNL     1      -3.043  -8.247  -3.146  0.00  0.00    +0.180 C 
BRANCH  22  23
ATOM     23  C   UNL     1      -3.112  -9.752  -3.188  0.00  0.00    +0.120 A 
ATOM     24  C   UNL     1      -2.068 -10.591  -3.070  0.00  0.00    +0.046 A 
ATOM     25  C   UNL     1      -2.584 -11.904  -3.166  0.00  0.00    +0.041 A 
ATOM     26  C   UNL     1      -3.914 -11.788  -3.336  0.00  0.00    +0.195 A 
ATOM     27  O   UNL     1      -4.229 -10.483  -3.343  0.00  0.00    -0.466 OA
ENDBRANCH  22  23
ENDBRANCH  20  22
ENDBRANCH  17  20
ENDBRANCH  14  17
ENDBRANCH   7  11
BRANCH   9  28
ATOM     28  C   UNL     1       0.243   0.299   1.940  0.00  0.00    +0.019 C 
BRANCH  28  30
ATOM     29  N   UNL     1       0.201   1.187   4.248  0.00  0.00    -0.312 N 
ATOM     30  C   UNL     1       0.355   0.125   3.433  0.00  0.00    +0.197 C 
ATOM     31  O   UNL     1       0.585  -0.970   3.900  0.00  0.00    -0.278 OA
ATOM     32  H   UNL     1       0.018   2.063   3.874  0.00  0.00    +0.149 HD
BRANCH  29  34
ATOM     33  C   UNL     1       1.701   0.484   6.048  0.00  0.00    +0.031 C 
ATOM     34  C   UNL     1       0.310   1.018   5.699  0.00  0.00    +0.026 C 
ATOM     35  C   UNL     1       0.096   2.368   6.387  0.00  0.00    +0.031 C 
ATOM     36  C   UNL     1      -0.752   0.027   6.179  0.00  0.00    +0.031 C 
ENDBRANCH  29  34
ENDBRANCH  28  30
ENDBRANCH   9  28
TORSDOF 8
