REMARK  Name = ZINC66231020
REMARK  7 active torsions:
REMARK  status: ('A' for Active; 'I' for Inactive)
REMARK    1  A    between atoms: C_1  and  C_2
REMARK    2  A    between atoms: C_2  and  C_4
REMARK    3  A    between atoms: C_2  and  O_17
REMARK    4  A    between atoms: C_6  and  C_7
REMARK    5  A    between atoms: C_6  and  C_9
REMARK    6  A    between atoms: N_11  and  C_12
REMARK    7  A    between atoms: O_17  and  C_18
REMARK                            x       y       z     vdW  Elec       q    Type
REMARK                         _______ _______ _______ _____ _____    ______ ____
ROOT
ATOM      1  C   UNL     1      -1.423  -0.557   0.038  0.00  0.00    +0.218 C 
ATOM      2  O   UNL     1      -2.231  -0.166   1.038  0.00  0.00    -0.287 OA
ATOM      3  C   UNL     1      -1.948  -1.158  -1.067  0.00  0.00    +0.159 C 
ENDROOT
BRANCH   3   4
ATOM      4  C   UNL     1      -1.092  -1.436  -2.230  0.00  0.00    +0.258 C 
ATOM      5  O   UNL     1       0.055  -1.032  -2.250  0.00  0.00    -0.269 OA
ATOM      6  N   UNL     1      -1.578  -2.138  -3.272  0.00  0.00    -0.308 N 
ATOM      7  H   UNL     1      -2.493  -2.460  -3.256  0.00  0.00    +0.149 HD
BRANCH   6   8
ATOM      8  C   UNL     1      -0.725  -2.415  -4.430  0.00  0.00    +0.073 C 
ATOM      9  C   UNL     1      -0.820  -1.257  -5.446  0.00  0.00    +0.022 C 
ATOM     10  C   UNL     1      -0.766  -1.958  -6.826  0.00  0.00    +0.002 C 
ATOM     11  C   UNL     1      -1.594  -3.245  -6.589  0.00  0.00    +0.002 C 
ATOM     12  C   UNL     1      -1.217  -3.679  -5.157  0.00  0.00    +0.022 C 
ENDBRANCH   6   8
ENDBRANCH   3   4
BRANCH   1  14
ATOM     13  C   UNL     1       0.425   0.992  -0.540  0.00  0.00    +0.061 C 
ATOM     14  C   UNL     1       0.063  -0.331   0.138  0.00  0.00    +0.242 C 
BRANCH  14  15
ATOM     15  O   UNL     1       0.446  -0.281   1.514  0.00  0.00    -0.481 OA
BRANCH  15  16
ATOM     16  C   UNL     1       1.732  -0.604   1.809  0.00  0.00    +0.124 A 
ATOM     17  C   UNL     1       2.641  -0.840   0.788  0.00  0.00    +0.065 A 
ATOM     18  C   UNL     1       3.949  -1.169   1.090  0.00  0.00    +0.046 A 
ATOM     19  C   UNL     1       4.353  -1.262   2.410  0.00  0.00    +0.040 A 
ATOM     20  C   UNL     1       3.449  -1.027   3.430  0.00  0.00    +0.046 A 
ATOM     21  C   UNL     1       2.141  -0.692   3.132  0.00  0.00    +0.065 A 
ATOM     22 CL   UNL     1       3.958  -1.145   5.085  0.00  0.00    -0.083 Cl
ATOM     23 CL   UNL     1       5.086  -1.465  -0.188  0.00  0.00    -0.083 Cl
ENDBRANCH  15  16
ENDBRANCH  14  15
ENDBRANCH   1  14
BRANCH   3  24
ATOM     24  C   UNL     1      -3.334  -1.518  -1.096  0.00  0.00    +0.108 C 
ATOM     25  N   UNL     1      -4.433  -1.804  -1.119  0.00  0.00    -0.191 NA
ENDBRANCH   3  24
TORSDOF 6
