REMARK  Name = ZINC39532183
REMARK  10 active torsions:
REMARK  status: ('A' for Active; 'I' for Inactive)
REMARK    1  A    between atoms: C_1  and  C_2
REMARK    2  A    between atoms: C_2  and  C_3
REMARK    3  A    between atoms: C_6  and  C_9
REMARK    4  A    between atoms: C_9  and  C_11
REMARK    5  A    between atoms: C_9  and  N_20
REMARK    6  A    between atoms: C_11  and  N_12
REMARK    7  A    between atoms: N_12  and  C_13
REMARK    8  A    between atoms: C_18  and  O_19
REMARK    9  A    between atoms: C_24  and  S_27
REMARK   10  A    between atoms: S_27  and  C_28
REMARK                            x       y       z     vdW  Elec       q    Type
REMARK                         _______ _______ _______ _____ _____    ______ ____
ROOT
ATOM      1  C   UNL     1       2.711  -1.876  -4.748  0.00  0.00    -0.020 C 
ENDROOT
BRANCH   1   2
ATOM      2  N   UNL     1       4.008  -1.223  -4.970  0.00  0.00    +0.388 N 
ATOM      3  C   UNL     1       3.834   0.235  -4.937  0.00  0.00    -0.062 C 
ATOM      4  C   UNL     1       5.188   0.916  -5.149  0.00  0.00    +0.063 C 
ATOM      5  N   UNL     1       5.744   0.501  -6.444  0.00  0.00    -0.308 NA
ATOM      6  C   UNL     1       5.901  -0.959  -6.501  0.00  0.00    +0.095 C 
ATOM      7  C   UNL     1       4.541  -1.625  -6.278  0.00  0.00    -0.048 C 
ATOM      8  H   UNL     1       5.173   0.833  -7.206  0.00  0.00    +0.123 HD
ATOM      9  H   UNL     1       4.652  -1.500  -4.244  0.00  0.00    -0.081 HD
BRANCH   6  10
ATOM     10  S   UNL     1       6.549  -1.435  -8.127  0.00  0.00    -0.147 S 
ATOM     11  C   UNL     1       7.154   0.123  -8.832  0.00  0.00    +0.086 C 
ENDBRANCH   6  10
ENDBRANCH   1   2
BRANCH   1  15
ATOM     12  C   UNL     1       1.107  -0.623  -0.992  0.00  0.00    -0.048 A 
ATOM     13  C   UNL     1       0.275  -0.765  -2.087  0.00  0.00    +0.004 A 
ATOM     14  C   UNL     1       0.793  -1.170  -3.302  0.00  0.00    +0.002 A 
ATOM     15  C   UNL     1       2.145  -1.433  -3.424  0.00  0.00    -0.059 A 
ATOM     16  C   UNL     1       2.978  -1.290  -2.329  0.00  0.00    +0.002 A 
ATOM     17  C   UNL     1       2.460  -0.881  -1.115  0.00  0.00    +0.004 A 
BRANCH  12  19
ATOM     18  C   UNL     1       0.580   1.345   0.420  0.00  0.00    +0.009 C 
ATOM     19  C   UNL     1       0.541  -0.182   0.333  0.00  0.00    +0.032 C 
ENDBRANCH  12  19
ENDBRANCH   1  15
BRANCH   1  20
ATOM     20  C   UNL     1       2.899  -3.394  -4.741  0.00  0.00    +0.091 C 
BRANCH  20  21
ATOM     21  N   UNL     1       1.593  -4.047  -4.617  0.00  0.00    -0.342 N 
ATOM     22  H   UNL     1       0.782  -3.516  -4.629  0.00  0.00    +0.146 HD
BRANCH  21  23
ATOM     23  C   UNL     1       1.517  -5.438  -4.479  0.00  0.00    +0.069 A 
ATOM     24  C   UNL     1       2.677  -6.199  -4.455  0.00  0.00    +0.026 A 
ATOM     25  C   UNL     1       2.599  -7.573  -4.319  0.00  0.00    +0.002 A 
ATOM     26  C   UNL     1       1.367  -8.191  -4.207  0.00  0.00    +0.004 A 
ATOM     27  C   UNL     1       0.207  -7.438  -4.230  0.00  0.00    +0.047 A 
ATOM     28  C   UNL     1       0.277  -6.061  -4.361  0.00  0.00    +0.138 A 
BRANCH  28  29
ATOM     29  O   UNL     1      -0.863  -5.319  -4.379  0.00  0.00    -0.505 OA
ATOM     30  H   UNL     1      -1.234  -5.189  -5.262  0.00  0.00    +0.292 HD
ENDBRANCH  28  29
ENDBRANCH  21  23
ENDBRANCH  20  21
ENDBRANCH   1  20
TORSDOF 8
