REMARK  Name = ZINC28051597
REMARK  4 active torsions:
REMARK  status: ('A' for Active; 'I' for Inactive)
REMARK    1  A    between atoms: C_1  and  C_2
REMARK    2  A    between atoms: C_6  and  C_8
REMARK    3  A    between atoms: C_11  and  C_30
REMARK    4  A    between atoms: C_21  and  C_24
REMARK                            x       y       z     vdW  Elec       q    Type
REMARK                         _______ _______ _______ _____ _____    ______ ____
ROOT
ATOM      1  C   UNL     1       2.445   4.364   0.003  0.00  0.00    +0.091 C 
ATOM      2  C   UNL     1       2.523   5.218   1.227  0.00  0.00    +0.049 A 
ATOM      3  C   UNL     1       2.743   4.920   2.569  0.00  0.00    +0.087 A 
ATOM      4  N   UNL     1       2.706   6.063   3.207  0.00  0.00    -0.081 NA
ATOM      5  O   UNL     1       2.498   6.996   2.455  0.00  0.00    -0.339 OA
ATOM      6  C   UNL     1       2.372   6.581   1.199  0.00  0.00    +0.226 A 
ATOM      7  N   UNL     1       2.139   7.249   0.015  0.00  0.00    -0.286 N 
ATOM      8  C   UNL     1       2.352   6.583  -1.169  0.00  0.00    +0.019 C 
ATOM      9  C   UNL     1       2.502   5.243  -1.230  0.00  0.00    +0.024 C 
ATOM     10  C   UNL     1       2.720   4.595  -2.460  0.00  0.00    +0.162 C 
ATOM     11  O   UNL     1       2.875   3.389  -2.477  0.00  0.00    -0.292 OA
ATOM     12  C   UNL     1       2.766   5.359  -3.753  0.00  0.00    +0.088 C 
ATOM     13  C   UNL     1       1.903   6.619  -3.615  0.00  0.00    +0.032 C 
ATOM     14  C   UNL     1       2.419   7.426  -2.422  0.00  0.00    +0.059 C 
ATOM     15  C   UNL     1       2.976   3.556   3.166  0.00  0.00    +0.069 C 
ATOM     16  H   UNL     1       1.791   8.293   0.031  0.00  0.00    +0.155 HD
ENDROOT
BRANCH   1  22
ATOM     17  C   UNL     1       0.002  -0.004   0.002  0.00  0.00    +0.044 C 
ATOM     18  C   UNL     1      -0.018   1.503   0.010  0.00  0.00    -0.050 A 
ATOM     19  C   UNL     1      -1.225   2.178   0.020  0.00  0.00    +0.003 A 
ATOM     20  C   UNL     1      -1.244   3.560   0.031  0.00  0.00    +0.001 A 
ATOM     21  C   UNL     1      -0.056   4.267   0.025  0.00  0.00    +0.004 A 
ATOM     22  C   UNL     1       1.150   3.592   0.010  0.00  0.00    -0.035 A 
ATOM     23  C   UNL     1       1.169   2.210   0.003  0.00  0.00    +0.008 A 
ENDBRANCH   1  22
BRANCH  13  24
ATOM     24  C   UNL     1       2.005   7.445  -4.871  0.00  0.00    -0.044 A 
ATOM     25  C   UNL     1       3.232   7.934  -5.279  0.00  0.00    +0.004 A 
ATOM     26  C   UNL     1       3.325   8.688  -6.433  0.00  0.00    +0.000 A 
ATOM     27  C   UNL     1       2.191   8.962  -7.175  0.00  0.00    +0.000 A 
ATOM     28  C   UNL     1       0.964   8.477  -6.764  0.00  0.00    +0.000 A 
ATOM     29  C   UNL     1       0.870   7.719  -5.612  0.00  0.00    +0.004 A 
ENDBRANCH  13  24
TORSDOF 2
