REMARK  Name = ZINC36492638
REMARK  15 active torsions:
REMARK  status: ('A' for Active; 'I' for Inactive)
REMARK    1  A    between atoms: C_1  and  C_2
REMARK    2  A    between atoms: C_2  and  C_3
REMARK    3  A    between atoms: C_2  and  C_4
REMARK    4  A    between atoms: C_2  and  C_5
REMARK    5  A    between atoms: C_5  and  C_6
REMARK    6  A    between atoms: C_6  and  C_7
REMARK    7  A    between atoms: C_6  and  C_8
REMARK    8  A    between atoms: C_6  and  N_9
REMARK    9  A    between atoms: C_10  and  C_12
REMARK   10  A    between atoms: C_12  and  C_14
REMARK   11  A    between atoms: C_12  and  N_21
REMARK   12  A    between atoms: C_19  and  O_20
REMARK   13  A    between atoms: N_21  and  C_22
REMARK   14  A    between atoms: C_28  and  C_30
REMARK   15  A    between atoms: C_33  and  N_36
REMARK                            x       y       z     vdW  Elec       q    Type
REMARK                         _______ _______ _______ _____ _____    ______ ____
ROOT
ATOM      1  C   UNL     1       4.495   0.595  -5.529  0.00  0.00    +0.196 C 
ENDROOT
BRANCH   1   2
ATOM      2  C   UNL     1       3.050   0.999  -5.386  0.00  0.00    +0.023 A 
ATOM      3  C   UNL     1       2.608   1.586  -4.216  0.00  0.00    +0.009 A 
ATOM      4  C   UNL     1       1.283   1.956  -4.084  0.00  0.00    +0.001 A 
ATOM      5  C   UNL     1       0.396   1.740  -5.123  0.00  0.00    +0.004 A 
ATOM      6  C   UNL     1       0.833   1.155  -6.295  0.00  0.00    +0.046 A 
ATOM      7  C   UNL     1       2.164   0.787  -6.432  0.00  0.00    +0.122 A 
BRANCH   7   8
ATOM      8  O   UNL     1       2.597   0.216  -7.586  0.00  0.00    -0.506 OA
ATOM      9  H   UNL     1       2.603  -0.751  -7.569  0.00  0.00    +0.292 HD
ENDBRANCH   7   8
ENDBRANCH   1   2
BRANCH   1  11
ATOM     10  N   UNL     1       4.896   0.680  -3.090  0.00  0.00    -0.308 N 
ATOM     11  C   UNL     1       5.269   1.067  -4.325  0.00  0.00    +0.239 C 
ATOM     12  O   UNL     1       6.229   1.794  -4.469  0.00  0.00    -0.273 OA
ATOM     13  H   UNL     1       4.165   0.052  -2.978  0.00  0.00    +0.149 HD
BRANCH  10  14
ATOM     14  C   UNL     1       5.592   1.210  -1.915  0.00  0.00    +0.030 C 
ATOM     15  C   UNL     1       5.798   2.717  -2.079  0.00  0.00    +0.031 C 
ATOM     16  C   UNL     1       6.952   0.522  -1.775  0.00  0.00    +0.031 C 
BRANCH  14  17
ATOM     17  C   UNL     1       4.755   0.943  -0.662  0.00  0.00    +0.031 C 
BRANCH  17  19
ATOM     18  C   UNL     1       2.701   0.045  -1.766  0.00  0.00    +0.010 C 
ATOM     19  C   UNL     1       3.281   1.214  -0.967  0.00  0.00    -0.036 C 
ATOM     20  C   UNL     1       3.157   2.502  -1.784  0.00  0.00    +0.010 C 
ATOM     21  C   UNL     1       2.508   1.367   0.345  0.00  0.00    +0.010 C 
ENDBRANCH  17  19
ENDBRANCH  14  17
ENDBRANCH  10  14
ENDBRANCH   1  11
BRANCH   1  22
ATOM     22  N   UNL     1       5.054   1.203  -6.739  0.00  0.00    -0.279 N 
ATOM     23  C   UNL     1       5.634   0.428  -7.676  0.00  0.00    +0.248 C 
ATOM     24  O   UNL     1       5.662  -0.779  -7.535  0.00  0.00    -0.270 OA
BRANCH  22  25
ATOM     25  C   UNL     1       4.984   2.654  -6.929  0.00  0.00    +0.077 C 
ATOM     26  C   UNL     1       6.316   3.287  -6.521  0.00  0.00    +0.022 C 
ATOM     27  C   UNL     1       6.242   4.803  -6.720  0.00  0.00    +0.002 C 
ATOM     28  C   UNL     1       5.118   5.377  -5.856  0.00  0.00    +0.000 C 
ATOM     29  C   UNL     1       3.786   4.743  -6.264  0.00  0.00    +0.002 C 
ATOM     30  C   UNL     1       3.860   3.228  -6.065  0.00  0.00    +0.022 C 
ENDBRANCH  22  25
BRANCH  23  31
ATOM     31  C   UNL     1       6.237   1.045  -8.877  0.00  0.00    +0.037 A 
ATOM     32  C   UNL     1       6.423   2.427  -8.936  0.00  0.00    +0.015 A 
ATOM     33  C   UNL     1       6.986   2.997 -10.060  0.00  0.00    +0.033 A 
ATOM     34  C   UNL     1       7.366   2.201 -11.126  0.00  0.00    +0.126 A 
ATOM     35  C   UNL     1       7.184   0.831 -11.074  0.00  0.00    +0.033 A 
ATOM     36  C   UNL     1       6.627   0.248  -9.954  0.00  0.00    +0.015 A 
BRANCH  34  37
ATOM     37  N   UNL     1       7.969   2.819 -12.328  0.00  0.00    +0.056 N 
ATOM     38  O   UNL     1       8.129   4.016 -12.377  0.00  0.00    -0.126 OA
ATOM     39  O   UNL     1       8.302   2.127 -13.261  0.00  0.00    -0.126 OA
ENDBRANCH  34  37
ENDBRANCH  23  31
ENDBRANCH   1  22
TORSDOF 10
