REMARK  Name = ZINC34792546
REMARK  11 active torsions:
REMARK  status: ('A' for Active; 'I' for Inactive)
REMARK    1  A    between atoms: C_1  and  C_2
REMARK    2  A    between atoms: C_2  and  C_3
REMARK    3  A    between atoms: C_2  and  C_4
REMARK    4  A    between atoms: C_2  and  C_5
REMARK    5  A    between atoms: C_8  and  C_11
REMARK    6  A    between atoms: N_16  and  C_19
REMARK    7  A    between atoms: C_19  and  C_20
REMARK    8  A    between atoms: N_25  and  C_28
REMARK    9  A    between atoms: C_33  and  O_34
REMARK   10  A    between atoms: O_34  and  C_35
REMARK   11  A    between atoms: N_36  and  C_40
REMARK                            x       y       z     vdW  Elec       q    Type
REMARK                         _______ _______ _______ _____ _____    ______ ____
ROOT
ATOM      1  C   UNL     1       2.707  -1.868  -4.752  0.00  0.00    +0.142 C 
ATOM      2  C   UNL     1       2.628  -0.772  -5.796  0.00  0.00    +0.058 C 
ATOM      3  C   UNL     1       3.788  -0.291  -6.289  0.00  0.00    +0.042 C 
ATOM      4  C   UNL     1       3.413   0.774  -7.295  0.00  0.00    +0.160 C 
ATOM      5  N   UNL     1       1.943   0.805  -7.282  0.00  0.00    -0.283 N 
ATOM      6  C   UNL     1       1.532  -0.115  -6.391  0.00  0.00    +0.247 C 
ATOM      7  O   UNL     1       0.366  -0.350  -6.133  0.00  0.00    -0.270 OA
ATOM      8  N   UNL     1       4.992  -0.774  -5.863  0.00  0.00    -0.260 N 
ATOM      9  C   UNL     1       5.120  -1.741  -4.945  0.00  0.00    +0.307 C 
ATOM     10  O   UNL     1       6.235  -2.107  -4.628  0.00  0.00    -0.252 OA
ATOM     11  N   UNL     1       4.053  -2.319  -4.361  0.00  0.00    -0.288 N 
ATOM     12  C   UNL     1       6.211  -0.204  -6.443  0.00  0.00    +0.139 C 
ATOM     13  H   UNL     1       4.169  -3.017  -3.697  0.00  0.00    +0.151 HD
ENDROOT
BRANCH   1  17
ATOM     14  C   UNL     1       0.707  -0.490  -1.238  0.00  0.00    -0.042 A 
ATOM     15  C   UNL     1       0.036  -1.284  -2.148  0.00  0.00    +0.004 A 
ATOM     16  C   UNL     1       0.683  -1.730  -3.286  0.00  0.00    +0.006 A 
ATOM     17  C   UNL     1       2.001  -1.381  -3.513  0.00  0.00    -0.023 A 
ATOM     18  C   UNL     1       2.672  -0.586  -2.603  0.00  0.00    +0.006 A 
ATOM     19  C   UNL     1       2.024  -0.137  -1.467  0.00  0.00    +0.004 A 
BRANCH  14  21
ATOM     20  C   UNL     1      -0.019   1.526   0.010  0.00  0.00    +0.015 C 
ATOM     21  C   UNL     1       0.002  -0.004   0.002  0.00  0.00    -0.013 C 
ATOM     22  C   UNL     1       0.742  -0.511   1.242  0.00  0.00    +0.015 C 
ATOM     23  C   UNL     1      -1.433  -0.534   0.013  0.00  0.00    +0.015 C 
ENDBRANCH  14  21
ENDBRANCH   1  17
BRANCH   5  24
ATOM     24  C   UNL     1       1.085   1.677  -8.089  0.00  0.00    +0.204 C 
BRANCH  24  25
ATOM     25  C   UNL     1       0.761   0.995  -9.393  0.00  0.00    +0.233 C 
ATOM     26  O   UNL     1       1.203  -0.111  -9.626  0.00  0.00    -0.274 OA
ATOM     27  N   UNL     1      -0.019   1.613 -10.301  0.00  0.00    -0.297 N 
ATOM     28  C   UNL     1      -0.557   2.955 -10.036  0.00  0.00    +0.126 C 
ATOM     29  C   UNL     1      -0.146   3.884 -11.185  0.00  0.00    +0.124 C 
ATOM     30  N   UNL     1      -0.475   3.228 -12.459  0.00  0.00    -0.324 N 
ATOM     31  C   UNL     1       0.062   1.886 -12.724  0.00  0.00    +0.124 C 
ATOM     32  C   UNL     1      -0.344   0.960 -11.577  0.00  0.00    +0.126 C 
BRANCH  30  33
ATOM     33  C   UNL     1      -1.286   3.870 -13.402  0.00  0.00    +0.072 A 
ATOM     34  C   UNL     1      -0.715   4.674 -14.378  0.00  0.00    +0.027 A 
ATOM     35  C   UNL     1      -1.518   5.307 -15.308  0.00  0.00    +0.002 A 
ATOM     36  C   UNL     1      -2.890   5.141 -15.269  0.00  0.00    +0.004 A 
ATOM     37  C   UNL     1      -3.466   4.340 -14.300  0.00  0.00    +0.047 A 
ATOM     38  C   UNL     1      -2.668   3.699 -13.367  0.00  0.00    +0.141 A 
BRANCH  38  39
ATOM     39  O   UNL     1      -3.233   2.908 -12.416  0.00  0.00    -0.493 OA
ATOM     40  C   UNL     1      -4.656   2.778 -12.441  0.00  0.00    +0.277 C 
ENDBRANCH  38  39
ENDBRANCH  30  33
ENDBRANCH  24  25
ENDBRANCH   5  24
TORSDOF 6
