REMARK  Name = ZINC47152275
REMARK  13 active torsions:
REMARK  status: ('A' for Active; 'I' for Inactive)
REMARK    1  A    between atoms: C_1  and  C_2
REMARK    2  A    between atoms: C_2  and  O_3
REMARK    3  A    between atoms: O_3  and  C_4
REMARK    4  A    between atoms: C_6  and  C_11
REMARK    5  A    between atoms: C_9  and  O_10
REMARK    6  A    between atoms: N_15  and  C_19
REMARK    7  A    between atoms: C_19  and  C_20
REMARK    8  A    between atoms: C_20  and  C_21
REMARK    9  A    between atoms: C_21  and  C_22
REMARK   10  A    between atoms: C_22  and  C_23
REMARK   11  A    between atoms: C_23  and  C_24
REMARK   12  A    between atoms: N_26  and  C_27
REMARK   13  A    between atoms: C_30  and  N_33
REMARK                            x       y       z     vdW  Elec       q    Type
REMARK                         _______ _______ _______ _____ _____    ______ ____
ROOT
ATOM      1  C   UNL     1      -0.875  -4.358  -1.621  0.00  0.00    +0.028 C 
ATOM      2  C   UNL     1      -0.545  -5.648  -1.359  0.00  0.00    +0.077 C 
ATOM      3  C   UNL     1      -0.841  -6.872  -2.131  0.00  0.00    +0.258 C 
ATOM      4  O   UNL     1      -1.467  -6.833  -3.174  0.00  0.00    -0.269 OA
ATOM      5  N   UNL     1      -0.391  -8.011  -1.632  0.00  0.00    -0.255 N 
ATOM      6  C   UNL     1       0.302  -8.049  -0.476  0.00  0.00    +0.121 C 
ATOM      7  S   UNL     1       0.962  -9.411   0.324  0.00  0.00    -0.027 S 
ATOM      8  S   UNL     1       0.373  -6.333   0.014  0.00  0.00    -0.061 S 
ENDROOT
BRANCH   1  11
ATOM      9  C   UNL     1      -0.373  -0.993  -0.043  0.00  0.00    +0.162 A 
ATOM     10  C   UNL     1      -0.611  -1.968  -0.993  0.00  0.00    +0.057 A 
ATOM     11  C   UNL     1      -0.623  -3.317  -0.617  0.00  0.00    -0.020 A 
ATOM     12  C   UNL     1      -0.395  -3.670   0.718  0.00  0.00    +0.012 A 
ATOM     13  C   UNL     1      -0.159  -2.690   1.658  0.00  0.00    +0.050 A 
ATOM     14  C   UNL     1      -0.142  -1.353   1.284  0.00  0.00    +0.158 A 
BRANCH  14  15
ATOM     15  O   UNL     1       0.097  -0.393   2.214  0.00  0.00    -0.503 OA
ATOM     16  H   UNL     1      -0.700  -0.060   2.650  0.00  0.00    +0.292 HD
ENDBRANCH  14  15
BRANCH   9  17
ATOM     17  O   UNL     1      -0.361   0.318  -0.404  0.00  0.00    -0.489 OA
BRANCH  17  19
ATOM     18  C   UNL     1      -0.552   2.129  -1.993  0.00  0.00    +0.048 C 
ATOM     19  C   UNL     1      -0.606   0.615  -1.780  0.00  0.00    +0.226 C 
ENDBRANCH  17  19
ENDBRANCH   9  17
ENDBRANCH   1  11
BRANCH   5  20
ATOM     20  C   UNL     1      -0.652  -9.260  -2.351  0.00  0.00    +0.115 C 
BRANCH  20  21
ATOM     21  C   UNL     1       0.488  -9.530  -3.335  0.00  0.00    +0.019 C 
BRANCH  21  22
ATOM     22  C   UNL     1       0.216 -10.834  -4.086  0.00  0.00    +0.002 C 
BRANCH  22  23
ATOM     23  C   UNL     1       1.356 -11.104  -5.070  0.00  0.00    +0.009 C 
BRANCH  23  24
ATOM     24  C   UNL     1       1.083 -12.409  -5.822  0.00  0.00    +0.096 C 
BRANCH  24  25
ATOM     25  C   UNL     1       2.207 -12.675  -6.790  0.00  0.00    +0.217 C 
ATOM     26  O   UNL     1       3.134 -11.897  -6.872  0.00  0.00    -0.275 OA
ATOM     27  N   UNL     1       2.181 -13.776  -7.566  0.00  0.00    -0.285 N 
ATOM     28  H   UNL     1       1.409 -14.364  -7.549  0.00  0.00    +0.155 HD
BRANCH  27  29
ATOM     29  C   UNL     1       3.267 -14.073  -8.397  0.00  0.00    +0.034 A 
ATOM     30  C   UNL     1       3.055 -14.665  -9.635  0.00  0.00    +0.025 A 
ATOM     31  C   UNL     1       4.130 -14.957 -10.452  0.00  0.00    +0.034 A 
ATOM     32  C   UNL     1       5.416 -14.659 -10.039  0.00  0.00    +0.126 A 
ATOM     33  C   UNL     1       5.630 -14.070  -8.806  0.00  0.00    +0.034 A 
ATOM     34  C   UNL     1       4.559 -13.771  -7.987  0.00  0.00    +0.025 A 
BRANCH  32  35
ATOM     35  N   UNL     1       6.565 -14.973 -10.917  0.00  0.00    +0.056 N 
ATOM     36  O   UNL     1       6.379 -15.489 -11.995  0.00  0.00    -0.126 OA
ATOM     37  O   UNL     1       7.690 -14.714 -10.557  0.00  0.00    -0.126 OA
ENDBRANCH  32  35
ENDBRANCH  27  29
ENDBRANCH  24  25
ENDBRANCH  23  24
ENDBRANCH  22  23
ENDBRANCH  21  22
ENDBRANCH  20  21
ENDBRANCH   5  20
TORSDOF 12
