REMARK  Name = ZINC10990159
REMARK  8 active torsions:
REMARK  status: ('A' for Active; 'I' for Inactive)
REMARK    1  A    between atoms: C_1  and  C_2
REMARK    2  A    between atoms: C_2  and  O_3
REMARK    3  A    between atoms: O_3  and  C_4
REMARK    4  A    between atoms: C_7  and  N_10
REMARK    5  A    between atoms: C_11  and  C_25
REMARK    6  A    between atoms: C_14  and  S_15
REMARK    7  A    between atoms: S_15  and  C_16
REMARK    8  A    between atoms: C_29  and  C_31
REMARK                            x       y       z     vdW  Elec       q    Type
REMARK                         _______ _______ _______ _____ _____    ______ ____
ROOT
ATOM      1  N   UNL     1       3.702  -0.534   0.013  0.00  0.00    -0.270 N 
ATOM      2  C   UNL     1       4.525  -0.727  -1.075  0.00  0.00    +0.169 A 
ATOM      3  N   UNL     1       5.455  -1.578  -0.708  0.00  0.00    -0.128 NA
ATOM      4  N   UNL     1       5.274  -1.927   0.515  0.00  0.00    -0.122 NA
ATOM      5  C   UNL     1       4.221  -1.315   1.009  0.00  0.00    +0.197 A 
ENDROOT
BRANCH   2   6
ATOM      6  C   UNL     1       4.386  -0.095  -2.404  0.00  0.00    +0.020 A 
ATOM      7  C   UNL     1       3.175   0.488  -2.780  0.00  0.00    +0.011 A 
ATOM      8  C   UNL     1       3.053   1.077  -4.021  0.00  0.00    +0.001 A 
ATOM      9  C   UNL     1       4.127   1.090  -4.893  0.00  0.00    +0.003 A 
ATOM     10  C   UNL     1       5.331   0.514  -4.526  0.00  0.00    -0.050 A 
ATOM     11  C   UNL     1       5.468  -0.073  -3.286  0.00  0.00    +0.015 A 
ATOM     12  C   UNL     1       6.496   0.534  -5.482  0.00  0.00    +0.044 C 
ENDBRANCH   2   6
BRANCH   1  16
ATOM     13  C   UNL     1       0.343   1.929   0.232  0.00  0.00    +0.121 A 
ATOM     14  C   UNL     1       1.606   2.489   0.104  0.00  0.00    +0.047 A 
ATOM     15  C   UNL     1       2.718   1.674   0.031  0.00  0.00    +0.030 A 
ATOM     16  C   UNL     1       2.572   0.294   0.086  0.00  0.00    +0.051 A 
ATOM     17  C   UNL     1       1.308  -0.265   0.215  0.00  0.00    +0.030 A 
ATOM     18  C   UNL     1       0.196   0.551   0.287  0.00  0.00    +0.047 A 
BRANCH  13  19
ATOM     19  O   UNL     1      -0.753   2.732   0.298  0.00  0.00    -0.492 OA
BRANCH  19  21
ATOM     20  C   UNL     1      -1.868   4.876   0.324  0.00  0.00    +0.048 C 
ATOM     21  C   UNL     1      -0.528   4.142   0.235  0.00  0.00    +0.225 C 
ENDBRANCH  19  21
ENDBRANCH  13  19
ENDBRANCH   1  16
BRANCH   5  22
ATOM     22  S   UNL     1       3.591  -1.475   2.647  0.00  0.00    -0.073 S 
BRANCH  22  23
ATOM     23  C   UNL     1       4.788  -2.649   3.330  0.00  0.00    +0.140 C 
ATOM     24  C   UNL     1       4.497  -2.874   4.816  0.00  0.00    +0.024 C 
ATOM     25  C   UNL     1       5.748  -3.325   5.547  0.00  0.00    +0.003 C 
ATOM     26  C   UNL     1       6.237  -4.701   5.131  0.00  0.00    +0.019 C 
ATOM     27  C   UNL     1       6.733  -4.690   3.684  0.00  0.00    +0.104 C 
ATOM     28  N   UNL     1       5.587  -4.924   2.792  0.00  0.00    -0.314 N 
ATOM     29  C   UNL     1       4.666  -3.976   2.611  0.00  0.00    +0.226 C 
ATOM     30  O   UNL     1       3.728  -4.177   1.869  0.00  0.00    -0.275 OA
ATOM     31  H   UNL     1       5.500  -5.773   2.331  0.00  0.00    +0.149 HD
ENDBRANCH  22  23
ENDBRANCH   5  22
TORSDOF 6
