REMARK  Name = ZINC03035480
REMARK  3 active torsions:
REMARK  status: ('A' for Active; 'I' for Inactive)
REMARK    1  A    between atoms: C_1  and  C_2
REMARK    2  A    between atoms: C_10  and  C_11
REMARK    3  A    between atoms: N_13  and  C_14
REMARK                            x       y       z     vdW  Elec       q    Type
REMARK                         _______ _______ _______ _____ _____    ______ ____
ROOT
ATOM      1  C   UNL     1      -2.337   8.149   0.062  0.00  0.00    +0.066 C 
ATOM      2  C   UNL     1      -2.811   6.719   0.056  0.00  0.00    +0.047 A 
ATOM      3  C   UNL     1      -4.145   6.438   0.049  0.00  0.00    -0.005 A 
ATOM      4  C   UNL     1      -4.561   5.108   0.037  0.00  0.00    +0.049 A 
ATOM      5  N   UNL     1      -3.661   4.140   0.029  0.00  0.00    -0.232 NA
ATOM      6  C   UNL     1      -2.357   4.407   0.032  0.00  0.00    +0.168 A 
ATOM      7  N   UNL     1      -1.911   5.698   0.043  0.00  0.00    -0.218 N 
ATOM      8  N   UNL     1      -0.512   5.676   0.035  0.00  0.00    -0.172 NA
ATOM      9  C   UNL     1      -0.095   4.437   0.026  0.00  0.00    +0.150 A 
ATOM     10  C   UNL     1      -1.214   3.584   0.027  0.00  0.00    +0.100 A 
ATOM     11  C   UNL     1      -6.016   4.720   0.028  0.00  0.00    +0.056 C 
ATOM     12  C   UNL     1      -6.885   5.895   0.471  0.00  0.00    +0.006 C 
ATOM     13  C   UNL     1      -6.504   7.124  -0.362  0.00  0.00    +0.005 C 
ATOM     14  C   UNL     1      -5.114   7.589   0.068  0.00  0.00    +0.039 C 
ENDROOT
BRANCH  10  15
ATOM     15  C   UNL     1      -1.194   2.119   0.019  0.00  0.00    +0.249 C 
ATOM     16  O   UNL     1      -2.240   1.496   0.021  0.00  0.00    -0.270 OA
ATOM     17  N   UNL     1      -0.018   1.461   0.010  0.00  0.00    -0.308 N 
ATOM     18  H   UNL     1       0.816   1.957   0.005  0.00  0.00    +0.149 HD
BRANCH  17  19
ATOM     19  C   UNL     1       0.002  -0.004   0.002  0.00  0.00    +0.073 C 
ATOM     20  C   UNL     1      -0.140  -0.513   1.451  0.00  0.00    +0.022 C 
ATOM     21  C   UNL     1      -0.627  -1.937   1.411  0.00  0.00    +0.002 C 
ATOM     22  C   UNL     1       0.527  -2.956   1.471  0.00  0.00    +0.000 C 
ATOM     23  C   UNL     1       1.730  -2.548   0.599  0.00  0.00    +0.000 C 
ATOM     24  C   UNL     1       1.311  -1.992  -0.736  0.00  0.00    +0.002 C 
ATOM     25  C   UNL     1       1.236  -0.455  -0.624  0.00  0.00    +0.022 C 
ENDBRANCH  17  19
ENDBRANCH  10  15
TORSDOF 2
