REMARK  Name = ZINC36798607
REMARK  6 active torsions:
REMARK  status: ('A' for Active; 'I' for Inactive)
REMARK    1  A    between atoms: C_1  and  C_2
REMARK    2  A    between atoms: C_2  and  C_4
REMARK    3  A    between atoms: C_9  and  N_10
REMARK    4  A    between atoms: C_11  and  C_13
REMARK    5  A    between atoms: C_14  and  C_15
REMARK    6  A    between atoms: C_20  and  N_21
REMARK                            x       y       z     vdW  Elec       q    Type
REMARK                         _______ _______ _______ _____ _____    ______ ____
ROOT
ATOM      1  N   UNL     1      -0.109  -2.942  -1.015  0.00  0.00    -0.281 N 
ATOM      2  C   UNL     1      -0.105  -4.276  -1.209  0.00  0.00    +0.241 C 
ATOM      3  O   UNL     1      -1.110  -4.836  -1.606  0.00  0.00    -0.270 OA
ATOM      4  H   UNL     1       0.713  -2.484  -0.778  0.00  0.00    +0.155 HD
ENDROOT
BRANCH   1  10
ATOM      5  C   UNL     1      -1.254  -0.870  -1.538  0.00  0.00    +0.042 A 
ATOM      6  C   UNL     1      -2.452  -0.155  -1.680  0.00  0.00    +0.062 A 
ATOM      7  C   UNL     1      -3.657  -0.776  -1.438  0.00  0.00    +0.167 A 
ATOM      8  C   UNL     1      -3.690  -2.120  -1.051  0.00  0.00    +0.168 A 
ATOM      9  C   UNL     1      -2.511  -2.834  -0.908  0.00  0.00    +0.073 A 
ATOM     10  C   UNL     1      -1.292  -2.222  -1.153  0.00  0.00    +0.048 A 
ATOM     11  O   UNL     1      -4.991  -2.490  -0.877  0.00  0.00    -0.453 OA
ATOM     12  C   UNL     1      -5.729  -1.259  -0.759  0.00  0.00    +0.466 C 
ATOM     13  O   UNL     1      -4.941  -0.312  -1.503  0.00  0.00    -0.453 OA
BRANCH   5  15
ATOM     14  C   UNL     1       0.075   1.265  -2.086  0.00  0.00    +0.091 C 
ATOM     15  C   UNL     1       0.030  -0.213  -1.795  0.00  0.00    +0.162 C 
ATOM     16  O   UNL     1       1.057  -0.859  -1.773  0.00  0.00    -0.292 OA
ENDBRANCH   5  15
ENDBRANCH   1  10
BRANCH   2  17
ATOM     17  C   UNL     1       1.108  -5.051  -0.941  0.00  0.00    +0.068 C 
ATOM     18  C   UNL     1       1.111  -6.385  -1.135  0.00  0.00    +0.015 C 
BRANCH  18  19
ATOM     19  C   UNL     1       2.331  -7.165  -0.867  0.00  0.00    +0.005 A 
ATOM     20  C   UNL     1       3.567  -6.520  -0.758  0.00  0.00    +0.010 A 
ATOM     21  C   UNL     1       4.705  -7.257  -0.505  0.00  0.00    +0.001 A 
ATOM     22  C   UNL     1       4.626  -8.631  -0.360  0.00  0.00    +0.002 A 
ATOM     23  C   UNL     1       3.406  -9.276  -0.466  0.00  0.00    +0.033 A 
ATOM     24  C   UNL     1       2.258  -8.553  -0.713  0.00  0.00    +0.133 A 
BRANCH  24  25
ATOM     25  N   UNL     1       0.954  -9.244  -0.821  0.00  0.00    +0.057 N 
ATOM     26  O   UNL     1      -0.044  -8.724  -0.378  0.00  0.00    -0.126 OA
ATOM     27  O   UNL     1       0.886 -10.328  -1.351  0.00  0.00    -0.126 OA
ENDBRANCH  24  25
ENDBRANCH  18  19
ENDBRANCH   2  17
TORSDOF 5
