REMARK  Name = ZINC00083350
REMARK  5 active torsions:
REMARK  status: ('A' for Active; 'I' for Inactive)
REMARK    1  A    between atoms: C_1  and  C_2
REMARK    2  A    between atoms: C_2  and  C_4
REMARK    3  A    between atoms: C_2  and  C_10
REMARK    4  A    between atoms: C_24  and  N_28
REMARK    5  A    between atoms: C_25  and  C_26
REMARK                            x       y       z     vdW  Elec       q    Type
REMARK                         _______ _______ _______ _____ _____    ______ ____
ROOT
ATOM      1  C   UNL     1       0.742  -0.511   1.242  0.00  0.00    +0.082 C 
ATOM      2  C   UNL     1       0.754  -2.016   1.234  0.00  0.00    +0.089 A 
ATOM      3  C   UNL     1       1.883  -2.699   0.890  0.00  0.00    +0.151 A 
ATOM      4  C   UNL     1       1.836  -4.170   0.901  0.00  0.00    +0.060 A 
ATOM      5  C   UNL     1       2.958  -4.929   0.562  0.00  0.00    +0.015 A 
ATOM      6  C   UNL     1       2.880  -6.304   0.583  0.00  0.00    +0.001 A 
ATOM      7  C   UNL     1       1.696  -6.933   0.938  0.00  0.00    +0.004 A 
ATOM      8  C   UNL     1       0.581  -6.195   1.275  0.00  0.00    +0.047 A 
ATOM      9  C   UNL     1       0.638  -4.807   1.261  0.00  0.00    +0.143 A 
ATOM     10  O   UNL     1      -0.443  -4.067   1.589  0.00  0.00    -0.422 OA
ATOM     11  C   UNL     1      -0.407  -2.726   1.585  0.00  0.00    +0.345 A 
ATOM     12  O   UNL     1      -1.409  -2.105   1.895  0.00  0.00    -0.245 OA
ATOM     13  O   UNL     1       3.017  -2.060   0.545  0.00  0.00    -0.440 OA
ATOM     14  C   UNL     1       3.193  -0.772   0.890  0.00  0.00    +0.198 C 
ATOM     15  C   UNL     1       2.150   0.017   1.232  0.00  0.00    +0.094 C 
ENDROOT
BRANCH  14  16
ATOM     16  N   UNL     1       4.461  -0.247   0.895  0.00  0.00    -0.328 N 
ATOM     17  H   UNL     1       5.217  -0.804   0.652  0.00  0.00    +0.145 HD
ATOM     18  H   UNL     1       4.602   0.680   1.142  0.00  0.00    +0.145 HD
ENDBRANCH  14  16
BRANCH   1  20
ATOM     19  C   UNL     1      -0.019   1.526   0.010  0.00  0.00    +0.013 C 
ATOM     20  C   UNL     1       0.002  -0.004   0.002  0.00  0.00    +0.029 C 
BRANCH  20  21
ATOM     21  C   UNL     1      -1.412  -0.526   0.013  0.00  0.00    -0.044 A 
ATOM     22  C   UNL     1      -2.259  -0.204   1.056  0.00  0.00    +0.004 A 
ATOM     23  C   UNL     1      -3.556  -0.683   1.066  0.00  0.00    +0.000 A 
ATOM     24  C   UNL     1      -4.006  -1.482   0.032  0.00  0.00    +0.000 A 
ATOM     25  C   UNL     1      -3.159  -1.803  -1.012  0.00  0.00    +0.000 A 
ATOM     26  C   UNL     1      -1.863  -1.321  -1.024  0.00  0.00    +0.004 A 
ENDBRANCH  20  21
ENDBRANCH   1  20
BRANCH  15  27
ATOM     27  C   UNL     1       2.393   1.382   1.591  0.00  0.00    +0.100 C 
ATOM     28  N   UNL     1       2.585   2.465   1.875  0.00  0.00    -0.191 NA
ENDBRANCH  15  27
TORSDOF 4
