REMARK  Name = ZINC02425058
REMARK  7 active torsions:
REMARK  status: ('A' for Active; 'I' for Inactive)
REMARK    1  A    between atoms: C_1  and  C_2
REMARK    2  A    between atoms: C_5  and  C_32
REMARK    3  A    between atoms: C_6  and  S_8
REMARK    4  A    between atoms: S_8  and  C_11
REMARK    5  A    between atoms: N_22  and  N_25
REMARK    6  A    between atoms: C_23  and  N_24
REMARK    7  A    between atoms: C_26  and  C_27
REMARK                            x       y       z     vdW  Elec       q    Type
REMARK                         _______ _______ _______ _____ _____    ______ ____
ROOT
ATOM      1  C   UNL     1       1.272   2.336   0.080  0.00  0.00    +0.162 A 
ATOM      2  C   UNL     1       2.191   2.574   1.131  0.00  0.00    +0.137 A 
ATOM      3  C   UNL     1       3.342   3.247   0.515  0.00  0.00    +0.184 A 
ATOM      4  N   UNL     1       4.369   3.592   1.259  0.00  0.00    -0.224 NA
ATOM      5  C   UNL     1       4.355   3.337   2.574  0.00  0.00    +0.092 A 
ATOM      6  C   UNL     1       5.448   3.707   3.378  0.00  0.00    +0.030 A 
ATOM      7  C   UNL     1       5.430   3.437   4.712  0.00  0.00    +0.002 A 
ATOM      8  C   UNL     1       4.340   2.796   5.298  0.00  0.00    +0.002 A 
ATOM      9  C   UNL     1       3.265   2.422   4.553  0.00  0.00    +0.030 A 
ATOM     10  C   UNL     1       3.247   2.684   3.170  0.00  0.00    +0.090 A 
ATOM     11  N   UNL     1       2.194   2.321   2.429  0.00  0.00    -0.240 NA
ATOM     12  N   UNL     1       3.042   3.374  -0.827  0.00  0.00    -0.197 N 
ATOM     13  C   UNL     1       1.806   2.826  -1.064  0.00  0.00    +0.148 A 
ENDROOT
BRANCH   1  14
ATOM     14  S   UNL     1      -0.296   1.548   0.236  0.00  0.00    +0.031 S 
ATOM     15  O   UNL     1      -1.178   2.218  -0.655  0.00  0.00    -0.164 OA
ATOM     16  O   UNL     1      -0.559   1.438   1.628  0.00  0.00    -0.164 OA
BRANCH  14  22
ATOM     17  C   UNL     1      -1.294  -2.168  -3.302  0.00  0.00    +0.044 C 
ATOM     18  C   UNL     1      -0.606  -1.759  -2.025  0.00  0.00    -0.049 A 
ATOM     19  C   UNL     1       0.165  -2.674  -1.332  0.00  0.00    +0.004 A 
ATOM     20  C   UNL     1       0.796  -2.298  -0.160  0.00  0.00    +0.005 A 
ATOM     21  C   UNL     1       0.655  -1.009   0.318  0.00  0.00    -0.025 A 
ATOM     22  C   UNL     1      -0.117  -0.095  -0.375  0.00  0.00    +0.097 A 
ATOM     23  C   UNL     1      -0.751  -0.472  -1.544  0.00  0.00    +0.031 A 
ATOM     24  C   UNL     1       1.342  -0.600   1.596  0.00  0.00    +0.046 C 
ENDBRANCH  14  22
ENDBRANCH   1  14
BRANCH  13  25
ATOM     25  N   UNL     1       1.190   2.779  -2.303  0.00  0.00    -0.341 N 
ATOM     26  H   UNL     1       0.356   2.296  -2.412  0.00  0.00    +0.144 HD
ATOM     27  H   UNL     1       1.593   3.230  -3.062  0.00  0.00    +0.144 HD
ENDBRANCH  13  25
BRANCH  12  28
ATOM     28  N   UNL     1       3.868   3.968  -1.791  0.00  0.00    -0.171 NA
ATOM     29  C   UNL     1       3.769   5.241  -2.037  0.00  0.00    +0.148 C 
BRANCH  29  30
ATOM     30  C   UNL     1       4.633   5.862  -3.046  0.00  0.00    +0.032 A 
ATOM     31  C   UNL     1       4.688   7.183  -3.454  0.00  0.00    +0.017 A 
ATOM     32  C   UNL     1       5.593   7.529  -4.431  0.00  0.00    +0.008 A 
ATOM     33  C   UNL     1       6.399   6.571  -4.960  0.00  0.00    +0.046 A 
ATOM     34  S   UNL     1       5.894   5.112  -4.064  0.00  0.00    -0.096 S 
ENDBRANCH  29  30
ENDBRANCH  12  28
TORSDOF 5
