REMARK  Name = ZINC08347109
REMARK  8 active torsions:
REMARK  status: ('A' for Active; 'I' for Inactive)
REMARK    1  A    between atoms: C_1  and  C_2
REMARK    2  A    between atoms: C_2  and  C_4
REMARK    3  A    between atoms: C_2  and  N_13
REMARK    4  A    between atoms: N_13  and  C_14
REMARK    5  A    between atoms: C_15  and  C_17
REMARK    6  A    between atoms: C_17  and  C_18
REMARK    7  A    between atoms: C_18  and  C_19
REMARK    8  A    between atoms: C_19  and  N_20
REMARK                            x       y       z     vdW  Elec       q    Type
REMARK                         _______ _______ _______ _____ _____    ______ ____
ROOT
ATOM      1  N   UNL     1       0.711  -0.489   1.189  0.00  0.00    -0.296 N 
ATOM      2  C   UNL     1       2.110  -0.118   1.409  0.00  0.00    +0.132 C 
ATOM      3  C   UNL     1       0.075  -1.278   2.078  0.00  0.00    +0.216 C 
ATOM      4  O   UNL     1      -1.084  -1.586   1.895  0.00  0.00    -0.276 OA
ENDROOT
BRANCH   1   6
ATOM      5  C   UNL     1      -0.019   1.526   0.010  0.00  0.00    +0.035 C 
ATOM      6  C   UNL     1       0.002  -0.004   0.002  0.00  0.00    +0.128 C 
BRANCH   6   7
ATOM      7  C   UNL     1       0.707  -0.490  -1.238  0.00  0.00    +0.100 A 
ATOM      8  N   UNL     1       1.986  -0.492  -1.479  0.00  0.00    -0.242 NA
ATOM      9  C   UNL     1       2.498  -0.958  -2.637  0.00  0.00    +0.079 A 
ATOM     10  C   UNL     1       3.840  -1.037  -3.066  0.00  0.00    +0.029 A 
ATOM     11  C   UNL     1       4.146  -1.548  -4.290  0.00  0.00    +0.002 A 
ATOM     12  C   UNL     1       3.160  -2.007  -5.154  0.00  0.00    +0.001 A 
ATOM     13  C   UNL     1       1.835  -1.947  -4.768  0.00  0.00    +0.017 A 
ATOM     14  C   UNL     1       1.515  -1.433  -3.534  0.00  0.00    +0.039 A 
ATOM     15  S   UNL     1       0.020  -1.160  -2.620  0.00  0.00    -0.070 S 
ENDBRANCH   6   7
ENDBRANCH   1   6
BRANCH   3  16
ATOM     16  C   UNL     1       0.804  -1.777   3.299  0.00  0.00    +0.098 C 
BRANCH  16  17
ATOM     17  C   UNL     1      -0.139  -2.644   4.136  0.00  0.00    +0.031 C 
BRANCH  17  18
ATOM     18  C   UNL     1       0.602  -3.151   5.376  0.00  0.00    +0.129 C 
BRANCH  18  19
ATOM     19  N   UNL     1      -0.300  -3.982   6.177  0.00  0.00    -0.274 N 
ATOM     20  C   UNL     1      -1.144  -3.538   7.195  0.00  0.00    +0.090 A 
ATOM     21  C   UNL     1      -1.397  -2.291   7.746  0.00  0.00    +0.030 A 
ATOM     22  C   UNL     1      -2.312  -2.167   8.773  0.00  0.00    +0.002 A 
ATOM     23  C   UNL     1      -2.976  -3.282   9.252  0.00  0.00    +0.004 A 
ATOM     24  C   UNL     1      -2.729  -4.528   8.709  0.00  0.00    +0.048 A 
ATOM     25  C   UNL     1      -1.813  -4.663   7.678  0.00  0.00    +0.157 A 
ATOM     26  O   UNL     1      -1.374  -5.729   6.964  0.00  0.00    -0.407 OA
ATOM     27  C   UNL     1      -0.471  -5.314   6.062  0.00  0.00    +0.421 A 
ATOM     28  O   UNL     1       0.106  -6.029   5.266  0.00  0.00    -0.223 OA
ENDBRANCH  18  19
ENDBRANCH  17  18
ENDBRANCH  16  17
ENDBRANCH   3  16
TORSDOF 6
