REMARK  Name = ZINC13503397
REMARK  14 active torsions:
REMARK  status: ('A' for Active; 'I' for Inactive)
REMARK    1  A    between atoms: C_1  and  C_2
REMARK    2  A    between atoms: C_2  and  O_3
REMARK    3  A    between atoms: O_3  and  C_4
REMARK    4  A    between atoms: C_11  and  C_16
REMARK    5  A    between atoms: C_16  and  C_18
REMARK    6  A    between atoms: C_16  and  N_26
REMARK    7  A    between atoms: N_22  and  C_23
REMARK    8  A    between atoms: C_23  and  C_24
REMARK    9  A    between atoms: C_23  and  C_25
REMARK   10  A    between atoms: N_26  and  C_27
REMARK   11  A    between atoms: N_26  and  C_35
REMARK   12  A    between atoms: C_27  and  C_28
REMARK   13  A    between atoms: C_28  and  C_29
REMARK   14  A    between atoms: C_35  and  C_36
REMARK                            x       y       z     vdW  Elec       q    Type
REMARK                         _______ _______ _______ _____ _____    ______ ____
ROOT
ATOM      1  C   UNL     1       0.085   0.014  -0.289  0.00  0.00    +0.163 C 
ENDROOT
BRANCH   1   9
ATOM      2  C   UNL     1      -3.527   4.990  -1.073  0.00  0.00    +0.121 A 
ATOM      3  C   UNL     1      -2.489   5.901  -1.260  0.00  0.00    +0.047 A 
ATOM      4  C   UNL     1      -1.176   5.486  -1.220  0.00  0.00    +0.030 A 
ATOM      5  C   UNL     1      -0.877   4.147  -0.992  0.00  0.00    +0.049 A 
ATOM      6  C   UNL     1      -1.923   3.224  -0.803  0.00  0.00    +0.002 A 
ATOM      7  C   UNL     1      -3.252   3.657  -0.846  0.00  0.00    +0.055 A 
ATOM      8  C   UNL     1      -1.594   1.816  -0.569  0.00  0.00    +0.021 A 
ATOM      9  C   UNL     1      -0.288   1.453  -0.532  0.00  0.00    +0.042 A 
ATOM     10  C   UNL     1       0.724   2.418  -0.727  0.00  0.00    +0.254 A 
ATOM     11  O   UNL     1       1.891   2.070  -0.695  0.00  0.00    -0.268 OA
ATOM     12  N   UNL     1       0.432   3.712  -0.948  0.00  0.00    -0.322 N 
ATOM     13  H   UNL     1       1.255   4.427  -1.094  0.00  0.00    +0.169 HD
BRANCH   2  14
ATOM     14  O   UNL     1      -4.817   5.417  -1.117  0.00  0.00    -0.492 OA
BRANCH  14  16
ATOM     15  C   UNL     1      -6.534   7.099  -1.370  0.00  0.00    +0.048 C 
ATOM     16  C   UNL     1      -5.032   6.810  -1.356  0.00  0.00    +0.225 C 
ENDBRANCH  14  16
ENDBRANCH   2  14
ENDBRANCH   1   9
BRANCH   1  17
ATOM     17  C   UNL     1       0.758  -0.545  -1.516  0.00  0.00    +0.173 A 
ATOM     18  N   UNL     1       2.023  -0.423  -1.839  0.00  0.00    -0.111 NA
ATOM     19  N   UNL     1       2.210  -1.038  -2.955  0.00  0.00    -0.023 NA
ATOM     20  N   UNL     1       1.098  -1.550  -3.353  0.00  0.00    -0.044 NA
ATOM     21  N   UNL     1       0.180  -1.272  -2.489  0.00  0.00    -0.225 N 
BRANCH  21  22
ATOM     22  C   UNL     1      -1.228  -1.671  -2.558  0.00  0.00    +0.105 C 
ATOM     23  C   UNL     1      -1.845  -1.143  -3.854  0.00  0.00    +0.032 C 
ATOM     24  C   UNL     1      -1.328  -3.197  -2.530  0.00  0.00    +0.032 C 
ENDBRANCH  21  22
ENDBRANCH   1  17
BRANCH   1  25
ATOM     25  N   UNL     1       1.004  -0.068   0.854  0.00  0.00    -0.284 NA
BRANCH  25  26
ATOM     26  C   UNL     1       1.503  -1.438   1.032  0.00  0.00    +0.090 C 
BRANCH  26  27
ATOM     27  C   UNL     1       0.320  -2.394   1.198  0.00  0.00    +0.050 C 
BRANCH  27  28
ATOM     28  C   UNL     1       0.831  -3.800   1.377  0.00  0.00    -0.046 A 
ATOM     29  C   UNL     1       1.057  -4.599   0.272  0.00  0.00    +0.003 A 
ATOM     30  C   UNL     1       1.532  -5.887   0.435  0.00  0.00    +0.000 A 
ATOM     31  C   UNL     1       1.770  -6.380   1.705  0.00  0.00    +0.000 A 
ATOM     32  C   UNL     1       1.538  -5.583   2.810  0.00  0.00    +0.000 A 
ATOM     33  C   UNL     1       1.069  -4.293   2.646  0.00  0.00    +0.003 A 
ENDBRANCH  27  28
ENDBRANCH  26  27
ENDBRANCH  25  26
BRANCH  25  34
ATOM     34  C   UNL     1       0.362   0.422   2.082  0.00  0.00    +0.127 C 
BRANCH  34  35
ATOM     35  C   UNL     1       1.414   0.682   3.129  0.00  0.00    +0.004 A 
ATOM     36  C   UNL     1       2.069   1.834   3.413  0.00  0.00    +0.012 A 
ATOM     37  C   UNL     1       3.005   1.839   4.431  0.00  0.00    +0.008 A 
ATOM     38  C   UNL     1       3.239   0.693   5.114  0.00  0.00    +0.045 A 
ATOM     39  S   UNL     1       2.114  -0.445   4.323  0.00  0.00    -0.100 S 
ENDBRANCH  34  35
ENDBRANCH  25  34
ENDBRANCH   1  25
TORSDOF 11
