REMARK  Name = ZINC08399520
REMARK  11 active torsions:
REMARK  status: ('A' for Active; 'I' for Inactive)
REMARK    1  A    between atoms: C_1  and  C_2
REMARK    2  A    between atoms: C_2  and  N_3
REMARK    3  A    between atoms: C_6  and  C_35
REMARK    4  A    between atoms: C_7  and  C_34
REMARK    5  A    between atoms: C_11  and  N_12
REMARK    6  A    between atoms: C_13  and  C_14
REMARK    7  A    between atoms: C_16  and  N_31
REMARK    8  A    between atoms: C_19  and  N_20
REMARK    9  A    between atoms: N_20  and  S_21
REMARK   10  A    between atoms: S_21  and  C_24
REMARK   11  A    between atoms: C_27  and  C_30
REMARK                            x       y       z     vdW  Elec       q    Type
REMARK                         _______ _______ _______ _____ _____    ______ ____
ROOT
ATOM      1  C   UNL     1      -3.016  -0.798   4.191  0.00  0.00    +0.020 A 
ATOM      2  C   UNL     1      -3.493  -1.105   5.457  0.00  0.00    +0.044 A 
ATOM      3  C   UNL     1      -4.845  -0.973   5.757  0.00  0.00    +0.127 A 
ATOM      4  C   UNL     1      -5.771  -0.534   4.819  0.00  0.00    +0.034 A 
ATOM      5  C   UNL     1      -5.396  -0.210   3.549  0.00  0.00    +0.029 A 
ATOM      6  C   UNL     1      -3.978  -0.321   3.168  0.00  0.00    +0.083 A 
ENDROOT
BRANCH   3   7
ATOM      7  N   UNL     1      -5.312  -1.312   7.120  0.00  0.00    +0.056 N 
ATOM      8  O   UNL     1      -4.452  -1.730   8.026  0.00  0.00    -0.126 OA
ATOM      9  O   UNL     1      -6.588  -1.194   7.427  0.00  0.00    -0.126 OA
ENDBRANCH   3   7
BRANCH   1  11
ATOM     10  N   UNL     1      -1.154  -0.638   2.674  0.00  0.00    -0.221 NA
ATOM     11  C   UNL     1      -1.591  -0.937   3.873  0.00  0.00    +0.124 C 
BRANCH  10  20
ATOM     12  N   UNL     1       0.711  -0.489   1.189  0.00  0.00    -0.310 N 
ATOM     13  C   UNL     1       2.069  -0.736   1.276  0.00  0.00    +0.068 A 
ATOM     14  C   UNL     1       3.120  -0.624   0.374  0.00  0.00    +0.031 A 
ATOM     15  C   UNL     1       4.400  -0.954   0.767  0.00  0.00    -0.045 A 
ATOM     16  C   UNL     1       4.644  -1.397   2.059  0.00  0.00    -0.045 A 
ATOM     17  C   UNL     1       3.611  -1.513   2.964  0.00  0.00    +0.031 A 
ATOM     18  C   UNL     1       2.316  -1.183   2.581  0.00  0.00    +0.066 A 
ATOM     19  N   UNL     1       1.099  -1.192   3.239  0.00  0.00    -0.324 N 
ATOM     20  C   UNL     1       0.152  -0.766   2.382  0.00  0.00    +0.209 A 
ATOM     21  C   UNL     1       6.048  -1.754   2.475  0.00  0.00    +0.044 C 
ATOM     22  C   UNL     1       5.539  -0.832  -0.211  0.00  0.00    +0.044 C 
ATOM     23  H   UNL     1       0.954  -1.456   4.160  0.00  0.00    +0.169 HD
BRANCH  12  25
ATOM     24  C   UNL     1      -0.019   1.526   0.010  0.00  0.00    +0.027 C 
ATOM     25  C   UNL     1       0.002  -0.004   0.002  0.00  0.00    +0.122 C 
ENDBRANCH  12  25
ENDBRANCH  10  20
ENDBRANCH   1  11
BRANCH   6  26
ATOM     26  N   UNL     1      -3.579  -0.013   1.961  0.00  0.00    -0.097 NA
BRANCH  26  27
ATOM     27  S   UNL     1      -4.673   0.517   0.837  0.00  0.00    +0.092 S 
ATOM     28  O   UNL     1      -5.541  -0.576   0.568  0.00  0.00    -0.148 OA
ATOM     29  O   UNL     1      -5.150   1.774   1.296  0.00  0.00    -0.148 OA
BRANCH  27  30
ATOM     30  C   UNL     1      -3.782   0.830  -0.651  0.00  0.00    +0.110 A 
ATOM     31  C   UNL     1      -3.240   2.080  -0.882  0.00  0.00    +0.029 A 
ATOM     32  C   UNL     1      -2.541   2.326  -2.049  0.00  0.00    +0.005 A 
ATOM     33  C   UNL     1      -2.384   1.321  -2.985  0.00  0.00    -0.050 A 
ATOM     34  C   UNL     1      -2.925   0.070  -2.753  0.00  0.00    +0.005 A 
ATOM     35  C   UNL     1      -3.620  -0.177  -1.584  0.00  0.00    +0.029 A 
ATOM     36  C   UNL     1      -1.622   1.589  -4.257  0.00  0.00    +0.044 C 
ENDBRANCH  27  30
ENDBRANCH  26  27
ENDBRANCH   6  26
TORSDOF 7
