REMARK  Name = ZINC12074054
REMARK  8 active torsions:
REMARK  status: ('A' for Active; 'I' for Inactive)
REMARK    1  A    between atoms: C_4  and  C_7
REMARK    2  A    between atoms: C_7  and  N_60
REMARK    3  A    between atoms: C_13  and  C_15
REMARK    4  A    between atoms: C_15  and  C_16
REMARK    5  A    between atoms: N_18  and  C_19
REMARK    6  A    between atoms: C_19  and  C_20
REMARK    7  A    between atoms: C_20  and  N_21
REMARK    8  A    between atoms: C_26  and  C_28
REMARK                            x       y       z     vdW  Elec       q    Type
REMARK                         _______ _______ _______ _____ _____    ______ ____
ROOT
ATOM      1  C   UNL     1      -1.139  -1.583   0.366  0.00  0.00    +0.212 C 
ATOM      2  O   UNL     1      -0.984  -0.538  -0.230  0.00  0.00    -0.276 OA
ATOM      3  N   UNL     1      -0.792  -2.748  -0.215  0.00  0.00    -0.314 N 
ATOM      4  H   UNL     1      -0.915  -3.584   0.262  0.00  0.00    +0.149 HD
ENDROOT
BRANCH   1   5
ATOM      5  C   UNL     1      -1.718  -1.578   1.757  0.00  0.00    +0.089 C 
BRANCH   5  11
ATOM      6  C   UNL     1      -0.875   2.031   2.361  0.00  0.00    -0.058 C 
ATOM      7  C   UNL     1      -1.633   2.598   1.159  0.00  0.00    +0.085 C 
ATOM      8  N   UNL     1      -2.805   1.776   0.874  0.00  0.00    -0.318 N 
ATOM      9  C   UNL     1      -2.947   0.528   1.332  0.00  0.00    +0.200 C 
ATOM     10  O   UNL     1      -3.939  -0.096   1.022  0.00  0.00    -0.278 OA
ATOM     11  C   UNL     1      -1.929  -0.134   2.217  0.00  0.00    +0.028 C 
ATOM     12  H   UNL     1      -3.513   2.151   0.327  0.00  0.00    +0.149 HD
ATOM     13  N   UNL     1      -0.648   0.592   2.121  0.00  0.00    +0.391 N 
ATOM     14  H   UNL     1      -0.261   0.466   1.178  0.00  0.00    -0.080 HD
BRANCH  13  15
ATOM     15  C   UNL     1       0.313   0.056   3.112  0.00  0.00    -0.042 C 
BRANCH  15  19
ATOM     16  C   UNL     1      -1.304   0.342   7.055  0.00  0.00    +0.000 A 
ATOM     17  C   UNL     1      -1.432  -0.834   6.339  0.00  0.00    +0.000 A 
ATOM     18  C   UNL     1      -0.912  -0.925   5.062  0.00  0.00    +0.002 A 
ATOM     19  C   UNL     1      -0.259   0.158   4.502  0.00  0.00    -0.064 A 
ATOM     20  C   UNL     1      -0.136   1.335   5.216  0.00  0.00    +0.002 A 
ATOM     21  C   UNL     1      -0.656   1.426   6.494  0.00  0.00    +0.000 A 
ENDBRANCH  15  19
ENDBRANCH  13  15
ENDBRANCH   5  11
ENDBRANCH   1   5
BRANCH   3  22
ATOM     22  C   UNL     1      -0.229  -2.753  -1.568  0.00  0.00    +0.127 C 
BRANCH  22  23
ATOM     23  C   UNL     1       0.076  -4.192  -1.988  0.00  0.00    +0.166 C 
BRANCH  23  24
ATOM     24  N   UNL     1       0.639  -4.197  -3.341  0.00  0.00    -0.227 N 
ATOM     25  C   UNL     1       1.973  -4.096  -3.495  0.00  0.00    +0.267 A 
ATOM     26  O   UNL     1       2.699  -4.003  -2.519  0.00  0.00    -0.266 OA
ATOM     27  C   UNL     1       2.525  -4.104  -4.795  0.00  0.00    +0.074 A 
ATOM     28  C   UNL     1       1.669  -4.206  -5.852  0.00  0.00    +0.035 A 
ATOM     29  C   UNL     1       0.284  -4.302  -5.584  0.00  0.00    +0.092 A 
ATOM     30  N   UNL     1      -0.153  -4.292  -4.347  0.00  0.00    -0.168 NA
BRANCH  29  31
ATOM     31  C   UNL     1      -0.680  -4.413  -6.707  0.00  0.00    +0.002 A 
ATOM     32  C   UNL     1      -0.222  -4.419  -8.023  0.00  0.00    +0.010 A 
ATOM     33  C   UNL     1      -1.122  -4.529  -9.063  0.00  0.00    +0.001 A 
ATOM     34  C   UNL     1      -2.477  -4.622  -8.802  0.00  0.00    +0.000 A 
ATOM     35  C   UNL     1      -2.938  -4.612  -7.497  0.00  0.00    +0.001 A 
ATOM     36  C   UNL     1      -2.046  -4.508  -6.449  0.00  0.00    +0.010 A 
ENDBRANCH  29  31
ENDBRANCH  23  24
ENDBRANCH  22  23
ENDBRANCH   3  22
TORSDOF 8
