REMARK  Name = ZINC36207158
REMARK  16 active torsions:
REMARK  status: ('A' for Active; 'I' for Inactive)
REMARK    1  A    between atoms: C_1  and  C_2
REMARK    2  A    between atoms: C_2  and  C_3
REMARK    3  A    between atoms: C_2  and  C_4
REMARK    4  A    between atoms: C_4  and  C_5
REMARK    5  A    between atoms: C_5  and  N_6
REMARK    6  A    between atoms: N_6  and  C_7
REMARK    7  A    between atoms: N_6  and  C_27
REMARK    8  A    between atoms: C_7  and  C_8
REMARK    9  A    between atoms: C_14  and  C_19
REMARK   10  A    between atoms: C_24  and  O_25
REMARK   11  A    between atoms: O_25  and  C_26
REMARK   12  A    between atoms: C_27  and  C_28
REMARK   13  A    between atoms: C_28  and  C_30
REMARK   14  A    between atoms: C_28  and  O_34
REMARK   15  A    between atoms: C_30  and  C_31
REMARK   16  A    between atoms: C_31  and  C_32
REMARK                            x       y       z     vdW  Elec       q    Type
REMARK                         _______ _______ _______ _____ _____    ______ ____
ROOT
ATOM      1  C   UNL     1      -1.018  -1.562   4.977  0.00  0.00    +0.094 A 
ATOM      2  N   UNL     1      -1.803  -1.652   6.082  0.00  0.00    -0.312 N 
ATOM      3  H   UNL     1      -1.614  -1.086   6.846  0.00  0.00    +0.170 HD
ATOM      4  C   UNL     1      -2.838  -2.511   6.136  0.00  0.00    +0.260 A 
ATOM      5  O   UNL     1      -3.534  -2.579   7.135  0.00  0.00    -0.267 OA
ATOM      6  C   UNL     1      -3.110  -3.342   5.003  0.00  0.00    +0.080 A 
ATOM      7  C   UNL     1      -4.160  -4.337   4.819  0.00  0.00    +0.007 A 
ATOM      8  C   UNL     1      -4.222  -5.010   3.645  0.00  0.00    +0.056 A 
ATOM      9  S   UNL     1      -2.861  -4.336   2.711  0.00  0.00    -0.076 S 
ATOM     10  C   UNL     1      -2.246  -3.179   3.907  0.00  0.00    +0.116 A 
ATOM     11  N   UNL     1      -1.245  -2.304   3.926  0.00  0.00    -0.229 NA
ENDROOT
BRANCH   7  12
ATOM     12  C   UNL     1      -5.140  -4.609   5.898  0.00  0.00    +0.025 A 
ATOM     13  C   UNL     1      -5.166  -5.854   6.522  0.00  0.00    +0.012 A 
ATOM     14  C   UNL     1      -6.080  -6.102   7.526  0.00  0.00    +0.001 A 
ATOM     15  C   UNL     1      -6.972  -5.118   7.915  0.00  0.00    +0.004 A 
ATOM     16  C   UNL     1      -6.955  -3.879   7.301  0.00  0.00    +0.046 A 
ATOM     17  C   UNL     1      -6.039  -3.615   6.296  0.00  0.00    +0.128 A 
BRANCH  17  18
ATOM     18  O   UNL     1      -6.017  -2.395   5.697  0.00  0.00    -0.495 OA
ATOM     19  C   UNL     1      -6.965  -1.430   6.156  0.00  0.00    +0.277 C 
ENDBRANCH  17  18
ENDBRANCH   7  12
BRANCH   1  20
ATOM     20  C   UNL     1       0.129  -0.586   4.962  0.00  0.00    -0.003 C 
BRANCH  20  21
ATOM     21  N   UNL     1       0.822  -0.665   3.669  0.00  0.00    +0.386 N 
ATOM     22  H   UNL     1       1.103  -1.618   3.495  0.00  0.00    -0.081 HD
BRANCH  21  23
ATOM     23  C   UNL     1      -0.082  -0.218   2.601  0.00  0.00    -0.078 C 
BRANCH  23  24
ATOM     24  C   UNL     1      -0.478   1.239   2.844  0.00  0.00    -0.016 C 
BRANCH  24  26
ATOM     25  C   UNL     1      -2.727   0.911   1.806  0.00  0.00    +0.007 C 
ATOM     26  C   UNL     1      -1.421   1.704   1.732  0.00  0.00    -0.019 C 
ATOM     27  C   UNL     1      -1.718   3.195   1.905  0.00  0.00    +0.007 C 
ENDBRANCH  24  26
ENDBRANCH  23  24
ENDBRANCH  21  23
BRANCH  21  28
ATOM     28  C   UNL     1       2.011   0.198   3.697  0.00  0.00    -0.047 C 
BRANCH  28  29
ATOM     29  C   UNL     1       2.798   0.024   2.396  0.00  0.00    +0.098 C 
BRANCH  29  30
ATOM     30  O   UNL     1       3.220  -1.336   2.274  0.00  0.00    -0.394 OA
ATOM     31  H   UNL     1       3.790  -1.638   2.995  0.00  0.00    +0.210 HD
ENDBRANCH  29  30
BRANCH  29  32
ATOM     32  C   UNL     1       4.024   0.939   2.416  0.00  0.00    +0.033 C 
BRANCH  32  33
ATOM     33  C   UNL     1       4.742   0.858   1.068  0.00  0.00    +0.029 C 
BRANCH  33  34
ATOM     34  C   UNL     1       5.950   1.759   1.087  0.00  0.00    -0.034 C 
ATOM     35  C   UNL     1       7.134   1.274   0.802  0.00  0.00    +0.004 C 
ENDBRANCH  33  34
ENDBRANCH  32  33
ENDBRANCH  29  32
ENDBRANCH  28  29
ENDBRANCH  21  28
ENDBRANCH  20  21
ENDBRANCH   1  20
TORSDOF 13
