REMARK  Name = ZINC13713383
REMARK  8 active torsions:
REMARK  status: ('A' for Active; 'I' for Inactive)
REMARK    1  A    between atoms: C_1  and  O_2
REMARK    2  A    between atoms: O_2  and  C_3
REMARK    3  A    between atoms: C_6  and  N_9
REMARK    4  A    between atoms: C_10  and  C_12
REMARK    5  A    between atoms: C_12  and  S_13
REMARK    6  A    between atoms: S_13  and  C_14
REMARK    7  A    between atoms: N_20  and  C_21
REMARK    8  A    between atoms: C_21  and  C_22
REMARK                            x       y       z     vdW  Elec       q    Type
REMARK                         _______ _______ _______ _____ _____    ______ ____
ROOT
ATOM      1  C   UNL     1       1.188  -0.674  -0.024  0.00  0.00    +0.173 A 
ATOM      2  N   UNL     1       2.341  -0.034  -0.042  0.00  0.00    -0.223 NA
ATOM      3  C   UNL     1       2.384   1.301  -0.048  0.00  0.00    +0.083 A 
ATOM      4  C   UNL     1       1.204   2.033  -0.029  0.00  0.00    +0.050 A 
ATOM      5  C   UNL     1      -0.016   1.347  -0.012  0.00  0.00    +0.259 A 
ATOM      6  O   UNL     1      -1.073   1.956  -0.004  0.00  0.00    -0.267 OA
ATOM      7  N   UNL     1       0.003  -0.004  -0.011  0.00  0.00    -0.280 N 
ATOM      8  C   UNL     1       1.252   3.534  -0.020  0.00  0.00    +0.007 C 
ATOM      9  C   UNL     1       1.353   4.065  -1.458  0.00  0.00    +0.012 C 
ATOM     10  C   UNL     1       0.098   4.932  -1.696  0.00  0.00    +0.001 C 
ATOM     11  C   UNL     1      -0.341   5.362  -0.274  0.00  0.00    +0.001 C 
ATOM     12  C   UNL     1      -0.057   4.094   0.571  0.00  0.00    +0.012 C 
ATOM     13  C   UNL     1       2.439   4.033   0.801  0.00  0.00    +0.047 C 
ATOM     14  C   UNL     1       3.706   3.362   0.338  0.00  0.00    -0.037 A 
ATOM     15  C   UNL     1       3.673   2.030  -0.081  0.00  0.00    +0.004 A 
ATOM     16  C   UNL     1       4.837   1.408  -0.519  0.00  0.00    +0.010 A 
ATOM     17  C   UNL     1       6.025   2.114  -0.534  0.00  0.00    +0.001 A 
ATOM     18  C   UNL     1       6.055   3.431  -0.115  0.00  0.00    +0.000 A 
ATOM     19  C   UNL     1       4.898   4.054   0.320  0.00  0.00    +0.004 A 
ENDROOT
BRANCH   1  20
ATOM     20  S   UNL     1       1.181  -2.436  -0.017  0.00  0.00    -0.078 S 
BRANCH  20  21
ATOM     21  C   UNL     1       2.962  -2.757  -0.039  0.00  0.00    +0.173 C 
BRANCH  21  23
ATOM     22  N   UNL     1       4.465  -4.723  -0.051  0.00  0.00    -0.285 N 
ATOM     23  C   UNL     1       3.204  -4.245  -0.036  0.00  0.00    +0.227 C 
ATOM     24  O   UNL     1       2.265  -5.012  -0.021  0.00  0.00    -0.275 OA
ATOM     25  H   UNL     1       5.214  -4.112  -0.131  0.00  0.00    +0.155 HD
BRANCH  22  29
ATOM     26  C   UNL     1       5.143  -8.826   0.246  0.00  0.00    +0.120 A 
ATOM     27  C   UNL     1       4.032  -8.355  -0.438  0.00  0.00    +0.047 A 
ATOM     28  C   UNL     1       3.807  -6.996  -0.537  0.00  0.00    +0.027 A 
ATOM     29  C   UNL     1       4.692  -6.101   0.049  0.00  0.00    +0.034 A 
ATOM     30  C   UNL     1       5.807  -6.574   0.729  0.00  0.00    +0.027 A 
ATOM     31  C   UNL     1       6.028  -7.933   0.832  0.00  0.00    +0.047 A 
BRANCH  26  33
ATOM     32  C   UNL     1       6.528 -10.579   1.061  0.00  0.00    +0.277 C 
ATOM     33  O   UNL     1       5.364 -10.164   0.342  0.00  0.00    -0.495 OA
ENDBRANCH  26  33
ENDBRANCH  22  29
ENDBRANCH  21  23
ENDBRANCH  20  21
ENDBRANCH   1  20
BRANCH   7  34
ATOM     34  C   UNL     1      -1.258  -0.750   0.004  0.00  0.00    +0.201 C 
BRANCH  34  35
ATOM     35  C   UNL     1      -1.706  -1.008  -1.412  0.00  0.00    +0.125 A 
ATOM     36  C   UNL     1      -1.379  -2.078  -2.158  0.00  0.00    +0.046 A 
ATOM     37  C   UNL     1      -2.015  -1.914  -3.410  0.00  0.00    +0.041 A 
ATOM     38  C   UNL     1      -2.685  -0.749  -3.357  0.00  0.00    +0.195 A 
ATOM     39  O   UNL     1      -2.494  -0.204  -2.145  0.00  0.00    -0.466 OA
ENDBRANCH  34  35
ENDBRANCH   7  34
TORSDOF 7
