REMARK  Name = ZINC40000422
REMARK  6 active torsions:
REMARK  status: ('A' for Active; 'I' for Inactive)
REMARK    1  A    between atoms: C_1  and  C_2
REMARK    2  A    between atoms: C_2  and  S_3
REMARK    3  A    between atoms: S_3  and  C_4
REMARK    4  A    between atoms: C_10  and  C_28
REMARK    5  A    between atoms: C_12  and  C_17
REMARK    6  A    between atoms: C_17  and  C_19
REMARK                            x       y       z     vdW  Elec       q    Type
REMARK                         _______ _______ _______ _____ _____    ______ ____
ROOT
ATOM      1  C   UNL     1      -1.578  -2.353   0.211  0.00  0.00    +0.160 A 
ATOM      2  N   UNL     1      -0.468  -3.075   0.151  0.00  0.00    -0.133 NA
ATOM      3  N   UNL     1      -0.494  -4.335   0.094  0.00  0.00    -0.125 NA
ATOM      4  C   UNL     1      -1.631  -5.013   0.091  0.00  0.00    +0.192 A 
ATOM      5  S   UNL     1      -2.801  -3.661   0.189  0.00  0.00    -0.024 S 
ATOM      6  N   UNL     1      -1.853  -6.384   0.034  0.00  0.00    -0.230 N 
ATOM      7  C   UNL     1      -0.820  -7.424  -0.033  0.00  0.00    +0.152 C 
ATOM      8  C   UNL     1      -1.554  -8.743  -0.078  0.00  0.00    +0.080 C 
ATOM      9  C   UNL     1      -2.877  -8.455  -0.039  0.00  0.00    +0.250 C 
ATOM     10  C   UNL     1      -3.053  -6.992   0.035  0.00  0.00    +0.293 C 
ATOM     11  O   UNL     1      -4.124  -6.420   0.088  0.00  0.00    -0.266 OA
ATOM     12  O   UNL     1      -3.879  -9.365  -0.062  0.00  0.00    -0.282 OA
ENDROOT
BRANCH   7  13
ATOM     13  C   UNL     1       0.012  -7.249  -1.277  0.00  0.00    -0.022 A 
ATOM     14  C   UNL     1      -0.602  -6.983  -2.487  0.00  0.00    +0.007 A 
ATOM     15  C   UNL     1       0.161  -6.823  -3.628  0.00  0.00    +0.020 A 
ATOM     16  C   UNL     1       1.538  -6.929  -3.560  0.00  0.00    +0.041 A 
ATOM     17  C   UNL     1       2.152  -7.196  -2.349  0.00  0.00    +0.020 A 
ATOM     18  C   UNL     1       1.389  -7.350  -1.207  0.00  0.00    +0.007 A 
ATOM     19 CL   UNL     1       2.497  -6.729  -4.994  0.00  0.00    -0.084 Cl
ENDBRANCH   7  13
BRANCH   8  20
ATOM     20  C   UNL     1      -0.952 -10.078  -0.149  0.00  0.00    +0.230 C 
ATOM     21  O   UNL     1      -1.113 -10.767  -1.141  0.00  0.00    -0.283 OA
BRANCH  20  22
ATOM     22  C   UNL     1      -0.153 -10.585   0.975  0.00  0.00    +0.176 A 
ATOM     23  C   UNL     1       0.532 -11.761   0.983  0.00  0.00    +0.061 A 
ATOM     24  C   UNL     1       1.172 -11.847   2.294  0.00  0.00    +0.021 A 
ATOM     25  C   UNL     1       1.998 -12.789   2.914  0.00  0.00    +0.011 A 
ATOM     26  C   UNL     1       2.441 -12.566   4.187  0.00  0.00    +0.001 A 
ATOM     27  C   UNL     1       2.078 -11.412   4.867  0.00  0.00    +0.004 A 
ATOM     28  C   UNL     1       1.264 -10.471   4.273  0.00  0.00    +0.047 A 
ATOM     29  C   UNL     1       0.801 -10.674   2.978  0.00  0.00    +0.136 A 
ATOM     30  O   UNL     1       0.017  -9.951   2.154  0.00  0.00    -0.452 OA
ENDBRANCH  20  22
ENDBRANCH   8  20
BRANCH   1  31
ATOM     31  S   UNL     1      -1.790  -0.606   0.296  0.00  0.00    -0.097 S 
BRANCH  31  33
ATOM     32  C   UNL     1      -0.134   1.571   0.344  0.00  0.00    +0.016 C 
ATOM     33  C   UNL     1      -0.096   0.043   0.274  0.00  0.00    +0.073 C 
ENDBRANCH  31  33
ENDBRANCH   1  31
TORSDOF 5
