REMARK  Name = ZINC39049407
REMARK  4 active torsions:
REMARK  status: ('A' for Active; 'I' for Inactive)
REMARK    1  A    between atoms: C_1  and  C_2
REMARK    2  A    between atoms: C_5  and  C_9
REMARK    3  A    between atoms: C_5  and  O_11
REMARK    4  A    between atoms: C_6  and  O_8
REMARK                            x       y       z     vdW  Elec       q    Type
REMARK                         _______ _______ _______ _____ _____    ______ ____
ROOT
ATOM      1  C   UNL     1      -0.018   1.503   0.010  0.00  0.00    +0.041 C 
ATOM      2  C   UNL     1       0.002  -0.004   0.002  0.00  0.00    -0.045 C 
ATOM      3  C   UNL     1       0.007  -0.737  -1.078  0.00  0.00    -0.021 C 
ATOM      4  C   UNL     1       0.029  -2.208  -0.738  0.00  0.00    +0.078 C 
ATOM      5  C   UNL     1       0.460  -2.262   0.747  0.00  0.00    +0.159 C 
ATOM      6  C   UNL     1       0.026  -0.865   1.243  0.00  0.00    +0.184 C 
ENDROOT
BRANCH   6   7
ATOM      7  O   UNL     1       0.970  -0.354   2.186  0.00  0.00    -0.384 OA
ATOM      8  H   UNL     1       0.773   0.540   2.495  0.00  0.00    +0.210 HD
ENDBRANCH   6   7
BRANCH   5   9
ATOM      9  C   UNL     1      -0.255  -3.329   1.466  0.00  0.00    -0.068 C 
ATOM     10  C   UNL     1      -0.826  -4.179   2.040  0.00  0.00    +0.007 C 
ENDBRANCH   5   9
BRANCH   5  11
ATOM     11  O   UNL     1       1.875  -2.426   0.865  0.00  0.00    -0.373 OA
ATOM     12  H   UNL     1       2.210  -3.245   0.474  0.00  0.00    +0.212 HD
ENDBRANCH   5  11
TORSDOF 3
