REMARK  Name = ZINC20617989
REMARK  8 active torsions:
REMARK  status: ('A' for Active; 'I' for Inactive)
REMARK    1  A    between atoms: C_1  and  C_2
REMARK    2  A    between atoms: C_2  and  C_3
REMARK    3  A    between atoms: N_9  and  C_10
REMARK    4  A    between atoms: C_10  and  C_11
REMARK    5  A    between atoms: C_11  and  C_12
REMARK    6  A    between atoms: C_12  and  N_13
REMARK    7  A    between atoms: C_14  and  C_16
REMARK    8  A    between atoms: C_19  and  N_22
REMARK                            x       y       z     vdW  Elec       q    Type
REMARK                         _______ _______ _______ _____ _____    ______ ____
ROOT
ATOM      1  C   UNL     1      -6.202   6.077  -5.470  0.00  0.00    +0.037 A 
ATOM      2  C   UNL     1      -5.806   7.099  -4.603  0.00  0.00    +0.015 A 
ATOM      3  C   UNL     1      -6.306   8.371  -4.766  0.00  0.00    +0.028 A 
ATOM      4  C   UNL     1      -7.215   8.637  -5.786  0.00  0.00    +0.067 A 
ATOM      5  C   UNL     1      -7.615   7.621  -6.648  0.00  0.00    +0.028 A 
ATOM      6  C   UNL     1      -7.115   6.348  -6.494  0.00  0.00    +0.015 A 
ENDROOT
BRANCH   4   7
ATOM      7  N   UNL     1      -7.724   9.924  -5.944  0.00  0.00    -0.226 NA
ATOM      8  C   UNL     1      -7.985  10.703  -4.838  0.00  0.00    +0.155 C 
ATOM      9  N   UNL     1      -8.391  11.933  -4.828  0.00  0.00    -0.318 N 
ATOM     10  C   UNL     1      -8.611  12.661  -3.593  0.00  0.00    +0.108 C 
ATOM     11  C   UNL     1      -7.752  13.948  -3.607  0.00  0.00    +0.189 C 
ATOM     12  S   UNL     1      -7.314  14.137  -1.829  0.00  0.00    -0.028 S 
ATOM     13  O   UNL     1      -8.384  14.746  -1.119  0.00  0.00    -0.174 OA
ATOM     14  O   UNL     1      -6.004  14.681  -1.734  0.00  0.00    -0.174 OA
ATOM     15  C   UNL     1      -7.259  12.336  -1.423  0.00  0.00    +0.182 C 
ATOM     16  C   UNL     1      -8.365  11.794  -2.349  0.00  0.00    +0.097 C 
ATOM     17  S   UNL     1      -7.841  10.222  -3.128  0.00  0.00    -0.084 S 
ATOM     18  H   UNL     1      -8.569  12.425  -5.796  0.00  0.00    +0.148 HD
ENDBRANCH   4   7
BRANCH   1  20
ATOM     19  N   UNL     1      -4.784   4.454  -4.314  0.00  0.00    -0.311 N 
ATOM     20  C   UNL     1      -5.663   4.714  -5.302  0.00  0.00    +0.244 C 
ATOM     21  O   UNL     1      -6.013   3.825  -6.054  0.00  0.00    -0.270 OA
ATOM     22  H   UNL     1      -4.468   5.258  -3.634  0.00  0.00    +0.149 HD
BRANCH  19  23
ATOM     23  C   UNL     1      -4.249   3.100  -4.147  0.00  0.00    +0.102 C 
BRANCH  23  24
ATOM     24  C   UNL     1      -3.280   3.078  -2.963  0.00  0.00    +0.000 C 
BRANCH  24  25
ATOM     25  C   UNL     1      -2.721   1.664  -2.789  0.00  0.00    -0.077 C 
BRANCH  25  31
ATOM     26  C   UNL     1      -2.467   2.074  -0.417  0.00  0.00    -0.069 C 
ATOM     27  C   UNL     1      -1.519   1.899   0.772  0.00  0.00    -0.015 C 
ATOM     28  C   UNL     1      -0.255   2.732   0.538  0.00  0.00    -0.003 C 
ATOM     29  C   UNL     1       0.398   2.294  -0.776  0.00  0.00    -0.019 C 
ATOM     30  C   UNL     1      -0.605   2.457  -1.919  0.00  0.00    -0.078 C 
ATOM     31  N   UNL     1      -1.795   1.641  -1.648  0.00  0.00    +0.382 N 
ATOM     32  H   UNL     1      -1.463   0.602  -1.502  0.00  0.00    -0.081 HD
BRANCH  26  34
ATOM     33  C   UNL     1      -4.482   1.751   1.025  0.00  0.00    +0.002 C 
ATOM     34  C   UNL     1      -3.723   1.228  -0.196  0.00  0.00    -0.019 C 
ENDBRANCH  26  34
ENDBRANCH  25  31
ENDBRANCH  24  25
ENDBRANCH  23  24
ENDBRANCH  19  23
ENDBRANCH   1  20
TORSDOF 7
