REMARK  Name = ZINC40212203
REMARK  11 active torsions:
REMARK  status: ('A' for Active; 'I' for Inactive)
REMARK    1  A    between atoms: C_8  and  C_26
REMARK    2  A    between atoms: N_9  and  C_10
REMARK    3  A    between atoms: C_10  and  C_11
REMARK    4  A    between atoms: N_13  and  C_14
REMARK    5  A    between atoms: N_13  and  C_20
REMARK    6  A    between atoms: C_26  and  C_27
REMARK    7  A    between atoms: C_27  and  C_28
REMARK    8  A    between atoms: C_28  and  C_29
REMARK    9  A    between atoms: C_29  and  C_30
REMARK   10  A    between atoms: C_30  and  N_31
REMARK   11  A    between atoms: C_32  and  C_34
REMARK                            x       y       z     vdW  Elec       q    Type
REMARK                         _______ _______ _______ _____ _____    ______ ____
ROOT
ATOM      1  C   UNL     1      -0.420  -0.213   0.506  0.00  0.00    +0.002 A 
ATOM      2  C   UNL     1       0.480   0.834   0.648  0.00  0.00    +0.002 A 
ATOM      3  C   UNL     1       1.832   0.620   0.487  0.00  0.00    +0.028 A 
ATOM      4  C   UNL     1       2.295  -0.653   0.180  0.00  0.00    +0.069 A 
ATOM      5  C   UNL     1       1.383  -1.712   0.036  0.00  0.00    +0.089 A 
ATOM      6  C   UNL     1       0.017  -1.471   0.204  0.00  0.00    +0.030 A 
ATOM      7  N   UNL     1       2.109  -2.821  -0.259  0.00  0.00    -0.232 NA
ATOM      8  C   UNL     1       3.373  -2.517  -0.304  0.00  0.00    +0.111 A 
ATOM      9  N   UNL     1       3.545  -1.194  -0.041  0.00  0.00    -0.319 N 
ENDROOT
BRANCH   9  10
ATOM     10  C   UNL     1       4.822  -0.475  -0.001  0.00  0.00    +0.219 C 
BRANCH  10  11
ATOM     11  C   UNL     1       5.379  -0.519   1.398  0.00  0.00    +0.236 C 
ATOM     12  O   UNL     1       4.638  -0.698   2.341  0.00  0.00    -0.274 OA
ATOM     13  N   UNL     1       6.702  -0.361   1.602  0.00  0.00    -0.294 N 
BRANCH  13  14
ATOM     14  C   UNL     1       7.274  -0.610   2.927  0.00  0.00    +0.076 C 
ATOM     15  C   UNL     1       6.892  -2.017   3.391  0.00  0.00    +0.022 C 
ATOM     16  C   UNL     1       7.489  -2.277   4.775  0.00  0.00    +0.002 C 
ATOM     17  C   UNL     1       6.946  -1.247   5.768  0.00  0.00    +0.000 C 
ATOM     18  C   UNL     1       7.328   0.159   5.303  0.00  0.00    +0.002 C 
ATOM     19  C   UNL     1       6.731   0.420   3.919  0.00  0.00    +0.022 C 
ENDBRANCH  13  14
BRANCH  13  20
ATOM     20  C   UNL     1       7.568   0.061   0.498  0.00  0.00    +0.076 C 
ATOM     21  C   UNL     1       6.896   1.202  -0.270  0.00  0.00    +0.022 C 
ATOM     22  C   UNL     1       7.801   1.643  -1.423  0.00  0.00    +0.002 C 
ATOM     23  C   UNL     1       8.035   0.462  -2.367  0.00  0.00    +0.000 C 
ATOM     24  C   UNL     1       8.706  -0.679  -1.600  0.00  0.00    +0.002 C 
ATOM     25  C   UNL     1       7.802  -1.120  -0.447  0.00  0.00    +0.022 C 
ENDBRANCH  13  20
ENDBRANCH  10  11
ENDBRANCH   9  10
BRANCH   8  26
ATOM     26  C   UNL     1       4.485  -3.490  -0.603  0.00  0.00    +0.074 C 
BRANCH  26  27
ATOM     27  C   UNL     1       4.740  -3.524  -2.112  0.00  0.00    +0.008 C 
BRANCH  27  28
ATOM     28  C   UNL     1       5.869  -4.511  -2.416  0.00  0.00    +0.002 C 
BRANCH  28  29
ATOM     29  C   UNL     1       6.124  -4.545  -3.924  0.00  0.00    +0.019 C 
BRANCH  29  30
ATOM     30  C   UNL     1       7.252  -5.533  -4.228  0.00  0.00    +0.104 C 
BRANCH  30  31
ATOM     31  N   UNL     1       7.497  -5.566  -5.672  0.00  0.00    -0.315 N 
ATOM     32  C   UNL     1       8.454  -6.370  -6.175  0.00  0.00    +0.216 C 
ATOM     33  O   UNL     1       9.112  -7.067  -5.433  0.00  0.00    -0.276 OA
ATOM     34  H   UNL     1       6.970  -5.008  -6.266  0.00  0.00    +0.149 HD
BRANCH  32  35
ATOM     35  C   UNL     1       8.705  -6.404  -7.661  0.00  0.00    +0.075 C 
ATOM     36  C   UNL     1       7.431  -6.847  -8.384  0.00  0.00    +0.013 C 
ATOM     37  C   UNL     1       7.687  -6.881  -9.892  0.00  0.00    +0.001 C 
ATOM     38  C   UNL     1       8.815  -7.868 -10.196  0.00  0.00    +0.000 C 
ATOM     39  C   UNL     1      10.089  -7.426  -9.473  0.00  0.00    +0.001 C 
ATOM     40  C   UNL     1       9.834  -7.391  -7.965  0.00  0.00    +0.013 C 
ENDBRANCH  32  35
ENDBRANCH  30  31
ENDBRANCH  29  30
ENDBRANCH  28  29
ENDBRANCH  27  28
ENDBRANCH  26  27
ENDBRANCH   8  26
TORSDOF 11
