REMARK  Name = ZINC54163298
REMARK  7 active torsions:
REMARK  status: ('A' for Active; 'I' for Inactive)
REMARK    1  A    between atoms: C_1  and  C_2
REMARK    2  A    between atoms: C_2  and  C_3
REMARK    3  A    between atoms: C_3  and  C_5
REMARK    4  A    between atoms: C_3  and  N_10
REMARK    5  A    between atoms: C_5  and  C_6
REMARK    6  A    between atoms: N_7  and  O_8
REMARK    7  A    between atoms: C_11  and  C_13
REMARK                            x       y       z     vdW  Elec       q    Type
REMARK                         _______ _______ _______ _____ _____    ______ ____
ROOT
ATOM      1  N   UNL     1       2.125  -0.091  -1.209  0.00  0.00    -0.308 N 
ATOM      2  C   UNL     1       2.487   1.134  -1.640  0.00  0.00    +0.246 C 
ATOM      3  O   UNL     1       1.647   1.901  -2.067  0.00  0.00    -0.270 OA
ATOM      4  H   UNL     1       2.795  -0.703  -0.868  0.00  0.00    +0.149 HD
ENDROOT
BRANCH   2   5
ATOM      5  C   UNL     1       3.906   1.544  -1.592  0.00  0.00    +0.056 A 
ATOM      6  C   UNL     1       4.875   0.663  -1.107  0.00  0.00    +0.029 A 
ATOM      7  C   UNL     1       6.198   1.052  -1.065  0.00  0.00    +0.019 A 
ATOM      8  C   UNL     1       6.567   2.313  -1.502  0.00  0.00    +0.017 A 
ATOM      9  C   UNL     1       5.613   3.191  -1.983  0.00  0.00    +0.022 A 
ATOM     10  C   UNL     1       4.285   2.812  -2.037  0.00  0.00    +0.053 A 
ATOM     11 CL   UNL     1       3.091   3.913  -2.649  0.00  0.00    -0.083 Cl
ATOM     12 BR   UNL     1       7.511  -0.140  -0.408  0.00  0.00    -0.050 Br
ENDBRANCH   2   5
BRANCH   1  13
ATOM     13  C   UNL     1       0.718  -0.497  -1.257  0.00  0.00    +0.080 C 
BRANCH  13  15
ATOM     14  C   UNL     1      -0.019   1.526   0.010  0.00  0.00    +0.006 C 
ATOM     15  C   UNL     1       0.002  -0.004   0.002  0.00  0.00    +0.019 C 
ENDBRANCH  13  15
BRANCH  13  16
ATOM     16  C   UNL     1       0.630  -2.023  -1.329  0.00  0.00    +0.096 C 
BRANCH  16  17
ATOM     17  C   UNL     1       1.227  -2.500  -2.628  0.00  0.00    +0.133 C 
ATOM     18  N   UNL     1       1.708  -1.647  -3.470  0.00  0.00    -0.077 NA
ATOM     19  N   UNL     1       1.260  -3.846  -2.917  0.00  0.00    -0.344 N 
ATOM     20  H   UNL     1       0.899  -4.487  -2.285  0.00  0.00    +0.144 HD
ATOM     21  H   UNL     1       1.644  -4.153  -3.753  0.00  0.00    +0.144 HD
BRANCH  18  22
ATOM     22  O   UNL     1       2.268  -2.095  -4.690  0.00  0.00    -0.408 OA
ATOM     23  H   UNL     1       2.602  -1.384  -5.254  0.00  0.00    +0.328 HD
ENDBRANCH  18  22
ENDBRANCH  16  17
ENDBRANCH  13  16
ENDBRANCH   1  13
TORSDOF 6
