REMARK  Name = ZINC55211811
REMARK  15 active torsions:
REMARK  status: ('A' for Active; 'I' for Inactive)
REMARK    1  A    between atoms: C_1  and  C_2
REMARK    2  A    between atoms: C_2  and  C_3
REMARK    3  A    between atoms: C_2  and  C_7
REMARK    4  A    between atoms: C_2  and  O_31
REMARK    5  A    between atoms: C_3  and  N_4
REMARK    6  A    between atoms: N_4  and  C_5
REMARK    7  A    between atoms: N_4  and  C_6
REMARK    8  A    between atoms: N_14  and  C_18
REMARK    9  A    between atoms: C_18  and  C_19
REMARK   10  A    between atoms: C_22  and  O_29
REMARK   11  A    between atoms: C_23  and  O_27
REMARK   12  A    between atoms: C_24  and  O_25
REMARK   13  A    between atoms: O_25  and  C_26
REMARK   14  A    between atoms: O_27  and  C_28
REMARK   15  A    between atoms: O_29  and  C_30
REMARK                            x       y       z     vdW  Elec       q    Type
REMARK                         _______ _______ _______ _____ _____    ______ ____
ROOT
ATOM      1  C   UNL     1      -1.774  -1.041   0.793  0.00  0.00    -0.018 A 
ATOM      2  C   UNL     1      -2.455  -1.210   1.985  0.00  0.00    +0.010 A 
ATOM      3  C   UNL     1      -3.808  -1.491   1.978  0.00  0.00    +0.046 A 
ATOM      4  C   UNL     1      -4.481  -1.598   0.769  0.00  0.00    +0.125 A 
ATOM      5  C   UNL     1      -3.799  -1.412  -0.418  0.00  0.00    +0.009 A 
ATOM      6  C   UNL     1      -2.447  -1.139  -0.412  0.00  0.00    +0.015 A 
ATOM      7  C   UNL     1      -4.557  -1.477  -1.730  0.00  0.00    +0.123 C 
ATOM      8  N   UNL     1      -4.997  -2.858  -1.954  0.00  0.00    -0.291 NA
ATOM      9  C   UNL     1      -6.253  -3.163  -1.274  0.00  0.00    +0.126 C 
ATOM     10  C   UNL     1      -6.133  -3.199   0.234  0.00  0.00    +0.244 C 
ATOM     11  O   UNL     1      -5.808  -1.901   0.749  0.00  0.00    -0.490 OA
ENDROOT
BRANCH   1  13
ATOM     12  C   UNL     1      -0.081   0.770   0.857  0.00  0.00    +0.044 C 
ATOM     13  C   UNL     1      -0.296  -0.744   0.808  0.00  0.00    +0.074 C 
BRANCH  13  14
ATOM     14  O   UNL     1       0.307  -1.272  -0.375  0.00  0.00    -0.386 OA
ATOM     15  H   UNL     1       0.210  -2.229  -0.472  0.00  0.00    +0.211 HD
ENDBRANCH  13  14
BRANCH  13  16
ATOM     16  C   UNL     1       0.342  -1.390   2.039  0.00  0.00    -0.040 C 
BRANCH  16  17
ATOM     17  N   UNL     1       1.748  -0.977   2.135  0.00  0.00    +0.378 N 
ATOM     18  C   UNL     1       2.321  -1.477   3.392  0.00  0.00    -0.096 C 
ATOM     19  C   UNL     1       2.500  -1.529   1.001  0.00  0.00    -0.096 C 
ATOM     20  H   UNL     1       1.805   0.031   2.118  0.00  0.00    -0.083 HD
ENDBRANCH  16  17
ENDBRANCH  13  16
ENDBRANCH   1  13
BRANCH   8  21
ATOM     21  C   UNL     1      -5.091  -3.155  -3.390  0.00  0.00    +0.123 C 
BRANCH  21  22
ATOM     22  C   UNL     1      -5.157  -4.647  -3.592  0.00  0.00    +0.012 A 
ATOM     23  C   UNL     1      -6.363  -5.248  -3.901  0.00  0.00    +0.012 A 
ATOM     24  C   UNL     1      -6.429  -6.616  -4.087  0.00  0.00    +0.050 A 
ATOM     25  C   UNL     1      -5.286  -7.391  -3.964  0.00  0.00    +0.165 A 
ATOM     26  C   UNL     1      -4.072  -6.790  -3.653  0.00  0.00    +0.204 A 
ATOM     27  C   UNL     1      -4.008  -5.413  -3.473  0.00  0.00    +0.170 A 
BRANCH  27  28
ATOM     28  O   UNL     1      -2.821  -4.820  -3.174  0.00  0.00    -0.491 OA
ATOM     29  C   UNL     1      -2.489  -4.694  -1.790  0.00  0.00    +0.277 C 
ENDBRANCH  27  28
BRANCH  26  30
ATOM     30  O   UNL     1      -2.947  -7.547  -3.532  0.00  0.00    -0.488 OA
ATOM     31  C   UNL     1      -2.171  -7.751  -4.714  0.00  0.00    +0.277 C 
ENDBRANCH  26  30
BRANCH  25  32
ATOM     32  O   UNL     1      -5.352  -8.737  -4.146  0.00  0.00    -0.491 OA
ATOM     33  C   UNL     1      -6.633  -9.286  -4.462  0.00  0.00    +0.277 C 
ENDBRANCH  25  32
ENDBRANCH  21  22
ENDBRANCH   8  21
TORSDOF 9
