REMARK  Name = ZINC59151621
REMARK  5 active torsions:
REMARK  status: ('A' for Active; 'I' for Inactive)
REMARK    1  A    between atoms: C_4  and  C_7
REMARK    2  A    between atoms: C_7  and  C_8
REMARK    3  A    between atoms: C_7  and  N_14
REMARK    4  A    between atoms: N_22  and  N_23
REMARK    5  A    between atoms: N_23  and  C_24
REMARK                            x       y       z     vdW  Elec       q    Type
REMARK                         _______ _______ _______ _____ _____    ______ ____
ROOT
ATOM      1  N   UNL     1       3.456  -1.875  -0.885  0.00  0.00    -0.254 N 
ATOM      2  C   UNL     1       4.242  -2.241  -1.971  0.00  0.00    +0.047 A 
ATOM      3  C   UNL     1       5.385  -1.669  -2.520  0.00  0.00    +0.024 A 
ATOM      4  C   UNL     1       5.984  -2.243  -3.623  0.00  0.00    +0.002 A 
ATOM      5  C   UNL     1       5.459  -3.389  -4.195  0.00  0.00    +0.001 A 
ATOM      6  C   UNL     1       4.326  -3.971  -3.664  0.00  0.00    +0.012 A 
ATOM      7  C   UNL     1       3.715  -3.401  -2.552  0.00  0.00    +0.028 A 
ATOM      8  C   UNL     1       2.519  -3.761  -1.756  0.00  0.00    +0.153 C 
ATOM      9  N   UNL     1       1.711  -4.781  -1.941  0.00  0.00    -0.177 NA
ATOM     10  C   UNL     1       2.436  -2.731  -0.707  0.00  0.00    +0.272 C 
ATOM     11  O   UNL     1       1.590  -2.665   0.167  0.00  0.00    -0.268 OA
ENDROOT
BRANCH   9  12
ATOM     12  N   UNL     1       0.705  -4.958  -1.154  0.00  0.00    -0.237 N 
ATOM     13  H   UNL     1       0.544  -4.339  -0.425  0.00  0.00    +0.174 HD
BRANCH  12  14
ATOM     14  C   UNL     1      -0.153  -6.041  -1.351  0.00  0.00    +0.048 A 
ATOM     15  C   UNL     1       0.079  -6.933  -2.392  0.00  0.00    +0.026 A 
ATOM     16  C   UNL     1      -0.772  -8.003  -2.584  0.00  0.00    +0.017 A 
ATOM     17  C   UNL     1      -1.854  -8.189  -1.742  0.00  0.00    +0.018 A 
ATOM     18  C   UNL     1      -2.088  -7.303  -0.705  0.00  0.00    +0.017 A 
ATOM     19  C   UNL     1      -1.238  -6.234  -0.503  0.00  0.00    +0.026 A 
ATOM     20 BR   UNL     1      -3.017  -9.656  -2.009  0.00  0.00    -0.050 Br
ENDBRANCH  12  14
ENDBRANCH   9  12
BRANCH   1  21
ATOM     21  C   UNL     1       3.711  -0.707  -0.038  0.00  0.00    +0.142 C 
BRANCH  21  25
ATOM     22  C   UNL     1       0.101   1.528   0.433  0.00  0.00    +0.000 A 
ATOM     23  C   UNL     1       1.006   1.448   1.476  0.00  0.00    +0.000 A 
ATOM     24  C   UNL     1       2.174   0.725   1.323  0.00  0.00    +0.006 A 
ATOM     25  C   UNL     1       2.437   0.081   0.129  0.00  0.00    -0.022 A 
ATOM     26  C   UNL     1       1.532   0.160  -0.913  0.00  0.00    +0.006 A 
ATOM     27  C   UNL     1       0.365   0.884  -0.761  0.00  0.00    +0.000 A 
ENDBRANCH  21  25
BRANCH  21  28
ATOM     28  C   UNL     1       4.200  -1.163   1.313  0.00  0.00    -0.022 A 
ATOM     29  C   UNL     1       3.789  -2.382   1.821  0.00  0.00    +0.006 A 
ATOM     30  C   UNL     1       4.238  -2.800   3.060  0.00  0.00    +0.000 A 
ATOM     31  C   UNL     1       5.096  -2.001   3.791  0.00  0.00    +0.000 A 
ATOM     32  C   UNL     1       5.508  -0.782   3.282  0.00  0.00    +0.000 A 
ATOM     33  C   UNL     1       5.063  -0.366   2.041  0.00  0.00    +0.006 A 
ENDBRANCH  21  28
ENDBRANCH   1  21
TORSDOF 5
