REMARK  Name = ZINC13446925
REMARK  14 active torsions:
REMARK  status: ('A' for Active; 'I' for Inactive)
REMARK    1  A    between atoms: C_1  and  N_2
REMARK    2  A    between atoms: N_2  and  C_3
REMARK    3  A    between atoms: C_8  and  C_9
REMARK    4  A    between atoms: C_9  and  O_11
REMARK    5  A    between atoms: O_11  and  C_12
REMARK    6  A    between atoms: C_13  and  C_15
REMARK    7  A    between atoms: C_15  and  S_16
REMARK    8  A    between atoms: S_16  and  C_17
REMARK    9  A    between atoms: C_21  and  C_33
REMARK   10  A    between atoms: N_27  and  C_28
REMARK   11  A    between atoms: C_28  and  C_29
REMARK   12  A    between atoms: C_29  and  C_30
REMARK   13  A    between atoms: C_30  and  O_31
REMARK   14  A    between atoms: O_31  and  C_32
REMARK                            x       y       z     vdW  Elec       q    Type
REMARK                         _______ _______ _______ _____ _____    ______ ____
ROOT
ATOM      1  C   UNL     1      -0.340   2.751   1.773  0.00  0.00    +0.173 A 
ATOM      2  N   UNL     1      -0.913   3.238   2.846  0.00  0.00    -0.223 NA
ATOM      3  C   UNL     1      -1.904   2.572   3.484  0.00  0.00    +0.080 A 
ATOM      4  C   UNL     1      -2.510   3.091   4.632  0.00  0.00    +0.043 A 
ATOM      5  C   UNL     1      -3.523   2.373   5.253  0.00  0.00    +0.065 A 
ATOM      6  C   UNL     1      -3.939   1.138   4.737  0.00  0.00    +0.016 A 
ATOM      7  C   UNL     1      -3.354   0.622   3.616  0.00  0.00    +0.016 A 
ATOM      8  C   UNL     1      -2.334   1.326   2.977  0.00  0.00    +0.065 A 
ATOM      9  C   UNL     1      -1.678   0.806   1.767  0.00  0.00    +0.262 A 
ATOM     10  O   UNL     1      -2.003  -0.261   1.281  0.00  0.00    -0.267 OA
ATOM     11  N   UNL     1      -0.698   1.558   1.213  0.00  0.00    -0.287 N 
ENDROOT
BRANCH   5  12
ATOM     12  C   UNL     1      -4.170   2.915   6.468  0.00  0.00    +0.387 C 
ATOM     13  O   UNL     1      -3.813   3.985   6.920  0.00  0.00    -0.241 OA
ATOM     14  O   UNL     1      -5.153   2.222   7.074  0.00  0.00    -0.241 OA
ENDBRANCH   5  12
BRANCH   1  15
ATOM     15  S   UNL     1       0.947   3.683   1.011  0.00  0.00    -0.078 S 
BRANCH  15  16
ATOM     16  C   UNL     1       1.002   5.110   2.124  0.00  0.00    +0.173 C 
BRANCH  16  19
ATOM     17  C   UNL     1       1.495   7.521   3.529  0.00  0.00    +0.138 C 
ATOM     18  N   UNL     1       2.286   7.214   2.335  0.00  0.00    -0.273 N 
ATOM     19  C   UNL     1       2.064   6.071   1.655  0.00  0.00    +0.230 C 
ATOM     20  O   UNL     1       2.719   5.817   0.667  0.00  0.00    -0.274 OA
BRANCH  18  21
ATOM     21  C   UNL     1       3.267   8.102   1.902  0.00  0.00    +0.050 A 
ATOM     22  C   UNL     1       2.949   9.107   0.998  0.00  0.00    +0.024 A 
ATOM     23  C   UNL     1       3.922   9.990   0.575  0.00  0.00    +0.002 A 
ATOM     24  C   UNL     1       5.223   9.875   1.037  0.00  0.00    +0.001 A 
ATOM     25  C   UNL     1       5.559   8.881   1.930  0.00  0.00    +0.017 A 
ATOM     26  C   UNL     1       4.584   7.982   2.372  0.00  0.00    +0.080 A 
BRANCH  26  27
ATOM     27  C   UNL     1       4.936   6.916   3.326  0.00  0.00    +0.341 C 
ATOM     28  O   UNL     1       4.086   6.137   3.708  0.00  0.00    -0.245 OA
BRANCH  27  29
ATOM     29  O   UNL     1       6.202   6.805   3.776  0.00  0.00    -0.464 OA
ATOM     30  C   UNL     1       6.477   5.731   4.714  0.00  0.00    +0.280 C 
ENDBRANCH  27  29
ENDBRANCH  26  27
ENDBRANCH  18  21
ENDBRANCH  16  19
ENDBRANCH  15  16
ENDBRANCH   1  15
BRANCH  11  31
ATOM     31  C   UNL     1      -0.013   1.086   0.008  0.00  0.00    +0.129 C 
BRANCH  31  32
ATOM     32  C   UNL     1      -0.753   1.593  -1.232  0.00  0.00    +0.050 C 
BRANCH  32  33
ATOM     33  C   UNL     1      -0.037   1.099  -2.490  0.00  0.00    +0.161 C 
BRANCH  33  34
ATOM     34  O   UNL     1      -0.728   1.573  -3.648  0.00  0.00    -0.383 OA
ATOM     35  C   UNL     1      -0.138   1.166  -4.884  0.00  0.00    +0.193 C 
ENDBRANCH  33  34
ENDBRANCH  32  33
ENDBRANCH  31  32
ENDBRANCH  11  31
TORSDOF 11
