REMARK  Name = ZINC64945324
REMARK  12 active torsions:
REMARK  status: ('A' for Active; 'I' for Inactive)
REMARK    1  A    between atoms: C_1  and  C_2
REMARK    2  A    between atoms: C_2  and  O_3
REMARK    3  A    between atoms: O_3  and  C_4
REMARK    4  A    between atoms: C_4  and  C_6
REMARK    5  A    between atoms: C_6  and  N_7
REMARK    6  A    between atoms: N_7  and  C_8
REMARK    7  A    between atoms: C_8  and  C_9
REMARK    8  A    between atoms: C_12  and  C_14
REMARK    9  A    between atoms: C_14  and  C_15
REMARK   10  A    between atoms: C_15  and  C_16
REMARK   11  A    between atoms: C_18  and  C_21
REMARK   12  A    between atoms: C_25  and  C_27
REMARK                            x       y       z     vdW  Elec       q    Type
REMARK                         _______ _______ _______ _____ _____    ______ ____
ROOT
ATOM      1  C   UNL     1      -2.652  -6.058  -1.172  0.00  0.00    +0.105 C 
ENDROOT
BRANCH   1   3
ATOM      2  N   UNL     1      -2.784  -3.888   0.008  0.00  0.00    -0.290 N 
ATOM      3  C   UNL     1      -2.751  -4.554  -1.163  0.00  0.00    +0.217 C 
ATOM      4  O   UNL     1      -2.801  -3.944  -2.210  0.00  0.00    -0.276 OA
BRANCH   2   5
ATOM      5  C   UNL     1      -2.881  -2.427   0.017  0.00  0.00    +0.228 C 
BRANCH   5   6
ATOM      6  C   UNL     1      -1.496  -1.832   0.006  0.00  0.00    +0.325 C 
ATOM      7  O   UNL     1      -0.528  -2.555  -0.007  0.00  0.00    -0.249 OA
BRANCH   6   8
ATOM      8  O   UNL     1      -1.339  -0.499   0.012  0.00  0.00    -0.464 OA
BRANCH   8  10
ATOM      9  C   UNL     1      -0.019   1.526   0.010  0.00  0.00    +0.048 C 
ATOM     10  C   UNL     1       0.002  -0.004   0.002  0.00  0.00    +0.229 C 
ENDBRANCH   8  10
ENDBRANCH   6   8
ENDBRANCH   5   6
ENDBRANCH   2   5
BRANCH   2  11
ATOM     11  C   UNL     1      -2.724  -4.626   1.272  0.00  0.00    +0.112 C 
BRANCH  11  12
ATOM     12  C   UNL     1      -4.142  -4.978   1.725  0.00  0.00    +0.006 C 
ATOM     13  C   UNL     1      -4.637  -4.366   3.038  0.00  0.00    +0.005 C 
ATOM     14  C   UNL     1      -4.289  -5.854   2.971  0.00  0.00    +0.005 C 
ENDBRANCH  11  12
ENDBRANCH   2  11
ENDBRANCH   1   3
BRANCH   1  15
ATOM     15  C   UNL     1      -2.632  -6.559  -2.618  0.00  0.00    +0.108 C 
BRANCH  15  16
ATOM     16  C   UNL     1      -2.533  -8.063  -2.627  0.00  0.00    +0.228 A 
ATOM     17  N   UNL     1      -3.537  -8.892  -2.627  0.00  0.00    -0.191 NA
ATOM     18  C   UNL     1      -3.088 -10.160  -2.636  0.00  0.00    +0.202 A 
ATOM     19  N   UNL     1      -1.778 -10.140  -2.642  0.00  0.00    -0.056 NA
ATOM     20  O   UNL     1      -1.397  -8.772  -2.642  0.00  0.00    -0.338 OA
BRANCH  18  21
ATOM     21  C   UNL     1      -3.935 -11.378  -2.639  0.00  0.00    +0.023 A 
ATOM     22  C   UNL     1      -5.324 -11.264  -2.638  0.00  0.00    +0.014 A 
ATOM     23  C   UNL     1      -6.108 -12.399  -2.641  0.00  0.00    +0.039 A 
ATOM     24  C   UNL     1      -5.516 -13.652  -2.645  0.00  0.00    +0.126 A 
ATOM     25  C   UNL     1      -4.136 -13.770  -2.646  0.00  0.00    -0.015 A 
ATOM     26  C   UNL     1      -3.344 -12.640  -2.649  0.00  0.00    +0.018 A 
ATOM     27  C   UNL     1      -3.497 -15.136  -2.650  0.00  0.00    +0.047 C 
ATOM     28  F   UNL     1      -6.287 -14.761  -2.648  0.00  0.00    -0.205 F 
ENDBRANCH  18  21
ENDBRANCH  15  16
ENDBRANCH   1  15
TORSDOF 10
