REMARK  Name = ZINC41000737
REMARK  19 active torsions:
REMARK  status: ('A' for Active; 'I' for Inactive)
REMARK    1  A    between atoms: C_1  and  C_2
REMARK    2  A    between atoms: C_2  and  C_3
REMARK    3  A    between atoms: C_3  and  C_4
REMARK    4  A    between atoms: C_4  and  C_5
REMARK    5  A    between atoms: C_5  and  C_6
REMARK    6  A    between atoms: C_6  and  O_7
REMARK    7  A    between atoms: O_7  and  C_8
REMARK    8  A    between atoms: C_11  and  C_14
REMARK    9  A    between atoms: C_16  and  C_30
REMARK   10  A    between atoms: C_17  and  C_29
REMARK   11  A    between atoms: C_22  and  S_24
REMARK   12  A    between atoms: S_24  and  C_25
REMARK   13  A    between atoms: C_25  and  C_26
REMARK   14  A    between atoms: C_26  and  C_27
REMARK   15  A    between atoms: C_27  and  C_28
REMARK   16  A    between atoms: C_30  and  O_32
REMARK   17  A    between atoms: O_32  and  C_33
REMARK   18  A    between atoms: C_33  and  C_34
REMARK   19  A    between atoms: C_34  and  C_35
REMARK                            x       y       z     vdW  Elec       q    Type
REMARK                         _______ _______ _______ _____ _____    ______ ____
ROOT
ATOM      1  C   UNL     1       2.605 -10.000  -4.405  0.00  0.00    +0.179 C 
ATOM      2  C   UNL     1       1.927 -10.289  -5.717  0.00  0.00    +0.082 C 
ATOM      3  C   UNL     1       2.579 -10.760  -6.791  0.00  0.00    +0.020 C 
ATOM      4  N   UNL     1       3.925 -11.026  -6.770  0.00  0.00    -0.287 N 
ATOM      5  C   UNL     1       4.553 -11.047  -5.532  0.00  0.00    +0.219 A 
ATOM      6  N   UNL     1       3.948 -10.575  -4.414  0.00  0.00    -0.220 N 
ATOM      7  N   UNL     1       4.847 -10.757  -3.365  0.00  0.00    -0.141 NA
ATOM      8  C   UNL     1       5.924 -11.309  -3.881  0.00  0.00    +0.210 A 
ATOM      9  N   UNL     1       5.739 -11.480  -5.198  0.00  0.00    -0.187 NA
ATOM     10  C   UNL     1       1.808 -11.005  -8.063  0.00  0.00    +0.061 C 
ATOM     11  H   UNL     1       4.419 -11.193  -7.588  0.00  0.00    +0.155 HD
ENDROOT
BRANCH   1  15
ATOM     12  C   UNL     1       2.872  -5.773  -3.838  0.00  0.00    +0.121 A 
ATOM     13  C   UNL     1       2.180  -6.554  -2.924  0.00  0.00    +0.046 A 
ATOM     14  C   UNL     1       2.095  -7.920  -3.110  0.00  0.00    +0.009 A 
ATOM     15  C   UNL     1       2.699  -8.509  -4.205  0.00  0.00    -0.018 A 
ATOM     16  C   UNL     1       3.390  -7.733  -5.117  0.00  0.00    +0.009 A 
ATOM     17  C   UNL     1       3.473  -6.365  -4.939  0.00  0.00    +0.046 A 
BRANCH  12  18
ATOM     18  O   UNL     1       2.957  -4.428  -3.658  0.00  0.00    -0.492 OA
BRANCH  18  19
ATOM     19  C   UNL     1       2.314  -3.887  -2.502  0.00  0.00    +0.229 C 
BRANCH  19  20
ATOM     20  C   UNL     1       2.516  -2.371  -2.469  0.00  0.00    +0.041 C 
BRANCH  20  21
ATOM     21  C   UNL     1       1.828  -1.791  -1.232  0.00  0.00    +0.003 C 
BRANCH  21  22
ATOM     22  C   UNL     1       2.030  -0.275  -1.199  0.00  0.00    -0.000 C 
BRANCH  22  24
ATOM     23  C   UNL     1       1.545   1.821   0.071  0.00  0.00    +0.004 C 
ATOM     24  C   UNL     1       1.342   0.305   0.039  0.00  0.00    -0.003 C 
ENDBRANCH  22  24
ENDBRANCH  21  22
ENDBRANCH  20  21
ENDBRANCH  19  20
ENDBRANCH  18  19
ENDBRANCH  12  18
ENDBRANCH   1  15
BRANCH   2  25
ATOM     25  C   UNL     1       0.538 -10.053  -5.823  0.00  0.00    +0.339 C 
ATOM     26  O   UNL     1      -0.251 -10.814  -5.293  0.00  0.00    -0.245 OA
BRANCH  25  27
ATOM     27  O   UNL     1       0.085  -8.985  -6.513  0.00  0.00    -0.461 OA
BRANCH  27  28
ATOM     28  C   UNL     1      -1.331  -8.808  -6.579  0.00  0.00    +0.232 C 
BRANCH  28  29
ATOM     29  C   UNL     1      -1.651  -7.554  -7.395  0.00  0.00    +0.038 C 
ATOM     30  C   UNL     1      -3.168  -7.365  -7.466  0.00  0.00    +0.007 C 
ENDBRANCH  28  29
ENDBRANCH  27  28
ENDBRANCH  25  27
ENDBRANCH   2  25
BRANCH   8  31
ATOM     31  S   UNL     1       7.377 -11.750  -2.987  0.00  0.00    -0.084 S 
BRANCH  31  32
ATOM     32  C   UNL     1       8.474 -12.451  -4.250  0.00  0.00    +0.077 C 
BRANCH  32  33
ATOM     33  C   UNL     1       9.790 -12.882  -3.599  0.00  0.00    +0.011 C 
BRANCH  33  34
ATOM     34  C   UNL     1      10.716 -13.473  -4.664  0.00  0.00    -0.003 C 
ATOM     35  C   UNL     1      12.032 -13.904  -4.014  0.00  0.00    +0.004 C 
ENDBRANCH  33  34
ENDBRANCH  32  33
ENDBRANCH  31  32
ENDBRANCH   8  31
TORSDOF 15
