REMARK  Name = ZINC15971903
REMARK  11 active torsions:
REMARK  status: ('A' for Active; 'I' for Inactive)
REMARK    1  A    between atoms: C_1  and  C_2
REMARK    2  A    between atoms: C_12  and  C_22
REMARK    3  A    between atoms: C_15  and  C_18
REMARK    4  A    between atoms: C_18  and  C_19
REMARK    5  A    between atoms: C_19  and  C_20
REMARK    6  A    between atoms: C_19  and  C_21
REMARK    7  A    between atoms: N_24  and  C_25
REMARK    8  A    between atoms: C_27  and  O_33
REMARK    9  A    between atoms: C_30  and  O_31
REMARK   10  A    between atoms: O_31  and  C_32
REMARK   11  A    between atoms: O_33  and  C_34
REMARK                            x       y       z     vdW  Elec       q    Type
REMARK                         _______ _______ _______ _____ _____    ______ ____
ROOT
ATOM      1  C   UNL     1       0.024   1.560   0.109  0.00  0.00    +0.046 C 
ATOM      2  C   UNL     1       0.025   0.053   0.077  0.00  0.00    -0.028 A 
ATOM      3  C   UNL     1       0.007  -0.609  -1.133  0.00  0.00    +0.025 A 
ATOM      4  C   UNL     1       0.008  -1.992  -1.173  0.00  0.00    +0.042 A 
ATOM      5  C   UNL     1       0.026  -2.715   0.008  0.00  0.00    +0.027 A 
ATOM      6  C   UNL     1       0.043  -2.057   1.217  0.00  0.00    +0.005 A 
ATOM      7  C   UNL     1       0.049  -0.667   1.269  0.00  0.00    +0.042 A 
ATOM      8  N   UNL     1       0.078  -0.233   2.596  0.00  0.00    -0.283 N 
ATOM      9  C   UNL     1       0.095  -1.260   3.466  0.00  0.00    +0.243 C 
ATOM     10  O   UNL     1       0.121  -1.183   4.676  0.00  0.00    -0.273 OA
ATOM     11  C   UNL     1       0.064  -2.525   2.647  0.00  0.00    +0.135 C 
ATOM     12  C   UNL     1       1.306  -3.379   2.931  0.00  0.00    +0.110 C 
ATOM     13  C   UNL     1       0.750  -4.728   3.447  0.00  0.00    +0.034 C 
ATOM     14  C   UNL     1      -0.668  -4.351   3.946  0.00  0.00    +0.056 C 
ATOM     15  N   UNL     1      -1.123  -3.340   2.957  0.00  0.00    -0.296 NA
ATOM     16 CL   UNL     1      -0.015  -2.819  -2.699  0.00  0.00    -0.084 Cl
ATOM     17  H   UNL     1       0.084   0.700   2.861  0.00  0.00    +0.155 HD
ATOM     18  H   UNL     1      -1.863  -2.769   3.337  0.00  0.00    +0.123 HD
ENDROOT
BRANCH  12  19
ATOM     19  C   UNL     1       2.100  -3.585   1.667  0.00  0.00    +0.223 C 
ATOM     20  O   UNL     1       1.933  -4.585   1.002  0.00  0.00    -0.275 OA
ATOM     21  N   UNL     1       2.996  -2.658   1.275  0.00  0.00    -0.282 N 
ATOM     22  H   UNL     1       3.173  -1.886   1.837  0.00  0.00    +0.155 HD
BRANCH  21  23
ATOM     23  C   UNL     1       3.674  -2.808   0.058  0.00  0.00    +0.079 A 
ATOM     24  C   UNL     1       3.854  -4.071  -0.485  0.00  0.00    +0.072 A 
ATOM     25  C   UNL     1       4.524  -4.217  -1.690  0.00  0.00    +0.122 A 
ATOM     26  C   UNL     1       5.014  -3.100  -2.352  0.00  0.00    +0.049 A 
ATOM     27  C   UNL     1       4.836  -1.840  -1.812  0.00  0.00    +0.051 A 
ATOM     28  C   UNL     1       4.162  -1.688  -0.612  0.00  0.00    +0.141 A 
BRANCH  28  29
ATOM     29  O   UNL     1       3.982  -0.447  -0.084  0.00  0.00    -0.493 OA
ATOM     30  C   UNL     1       4.509   0.655  -0.825  0.00  0.00    +0.277 C 
ENDBRANCH  28  29
BRANCH  25  31
ATOM     31  O   UNL     1       4.702  -5.455  -2.223  0.00  0.00    -0.495 OA
ATOM     32  C   UNL     1       5.402  -5.531  -3.467  0.00  0.00    +0.277 C 
ENDBRANCH  25  31
ENDBRANCH  21  23
ENDBRANCH  12  19
BRANCH  14  33
ATOM     33  C   UNL     1      -1.587  -5.575   3.934  0.00  0.00    +0.021 C 
BRANCH  33  34
ATOM     34  C   UNL     1      -2.938  -5.204   4.547  0.00  0.00    -0.016 C 
ATOM     35  C   UNL     1      -3.898  -6.389   4.421  0.00  0.00    +0.007 C 
ATOM     36  C   UNL     1      -2.750  -4.854   6.024  0.00  0.00    +0.007 C 
ENDBRANCH  33  34
ENDBRANCH  14  33
TORSDOF 6
