REMARK  Name = ZINC14474759
REMARK  6 active torsions:
REMARK  status: ('A' for Active; 'I' for Inactive)
REMARK    1  A    between atoms: C_1  and  C_2
REMARK    2  A    between atoms: C_2  and  C_3
REMARK    3  A    between atoms: C_3  and  C_4
REMARK    4  A    between atoms: N_6  and  C_7
REMARK    5  A    between atoms: C_20  and  C_23
REMARK    6  A    between atoms: C_28  and  O_29
REMARK                            x       y       z     vdW  Elec       q    Type
REMARK                         _______ _______ _______ _____ _____    ______ ____
ROOT
ATOM      1  C   UNL     1      -2.589   0.873   0.190  0.00  0.00    +0.034 A 
ATOM      2  C   UNL     1      -2.359   2.243   0.200  0.00  0.00    +0.025 A 
ATOM      3  C   UNL     1      -1.063   2.717   0.163  0.00  0.00    +0.025 A 
ATOM      4  C   UNL     1       0.003   1.828   0.110  0.00  0.00    +0.031 A 
ATOM      5  C   UNL     1      -0.219   0.460   0.099  0.00  0.00    -0.018 A 
ATOM      6  C   UNL     1      -1.524  -0.011   0.140  0.00  0.00    +0.029 A 
ATOM      7  C   UNL     1       0.900  -0.532   0.045  0.00  0.00    +0.049 C 
ATOM      8  C   UNL     1       1.120  -1.189   1.387  0.00  0.00    -0.023 C 
ATOM      9  C   UNL     1       2.384  -1.419   1.588  0.00  0.00    -0.030 C 
ATOM     10  C   UNL     1       3.203  -0.924   0.411  0.00  0.00    +0.033 C 
ATOM     11  C   UNL     1       2.263   0.114  -0.270  0.00  0.00    +0.029 C 
ATOM     12  C   UNL     1       2.406   1.431   0.497  0.00  0.00    +0.108 C 
ATOM     13  N   UNL     1       1.312   2.329   0.074  0.00  0.00    -0.336 N 
ATOM     14  H   UNL     1       1.487   3.243  -0.201  0.00  0.00    +0.147 HD
ENDROOT
BRANCH  12  15
ATOM     15  C   UNL     1       2.337   1.163   1.978  0.00  0.00    +0.014 A 
ATOM     16  C   UNL     1       1.117   1.179   2.628  0.00  0.00    +0.009 A 
ATOM     17  C   UNL     1       1.053   0.928   3.986  0.00  0.00    +0.001 A 
ATOM     18  C   UNL     1       2.209   0.671   4.699  0.00  0.00    +0.004 A 
ATOM     19  C   UNL     1       3.431   0.659   4.056  0.00  0.00    +0.046 A 
ATOM     20  C   UNL     1       3.498   0.905   2.692  0.00  0.00    +0.122 A 
BRANCH  20  21
ATOM     21  O   UNL     1       4.699   0.895   2.057  0.00  0.00    -0.506 OA
ATOM     22  H   UNL     1       5.140   1.755   2.034  0.00  0.00    +0.292 HD
ENDBRANCH  20  21
ENDBRANCH  12  15
BRANCH   1  25
ATOM     23  C   UNL     1      -4.892   1.059  -0.384  0.00  0.00    +0.217 C 
ATOM     24  O   UNL     1      -4.634   2.035  -1.057  0.00  0.00    -0.275 OA
ATOM     25  N   UNL     1      -3.902   0.384   0.232  0.00  0.00    -0.285 N 
ATOM     26  H   UNL     1      -4.098  -0.440   0.705  0.00  0.00    +0.155 HD
BRANCH  23  27
ATOM     27  C   UNL     1      -6.321   0.602  -0.238  0.00  0.00    +0.096 C 
BRANCH  27  29
ATOM     28  C   UNL     1      -8.689   1.070  -0.883  0.00  0.00    +0.004 C 
ATOM     29  C   UNL     1      -7.239   1.534  -1.031  0.00  0.00    +0.006 C 
ENDBRANCH  27  29
ENDBRANCH  23  27
ENDBRANCH   1  25
TORSDOF 5
