REMARK  Name = ZINC45238192
REMARK  4 active torsions:
REMARK  status: ('A' for Active; 'I' for Inactive)
REMARK    1  A    between atoms: C_1  and  N_2
REMARK    2  A    between atoms: N_2  and  C_3
REMARK    3  A    between atoms: N_5  and  C_6
REMARK    4  A    between atoms: C_11  and  O_15
REMARK                            x       y       z     vdW  Elec       q    Type
REMARK                         _______ _______ _______ _____ _____    ______ ____
ROOT
ATOM      1  C   UNL     1       0.063   1.322  -2.315  0.00  0.00    +0.195 A 
ATOM      2  N   UNL     1       0.193   2.145  -1.294  0.00  0.00    -0.221 NA
ATOM      3  C   UNL     1       0.374   3.473  -1.453  0.00  0.00    +0.081 A 
ATOM      4  C   UNL     1       0.525   4.459  -0.450  0.00  0.00    +0.032 A 
ATOM      5  C   UNL     1       0.701   5.767  -0.777  0.00  0.00    +0.047 A 
ATOM      6  C   UNL     1       0.740   6.188  -2.103  0.00  0.00    +0.118 A 
ATOM      7  C   UNL     1       0.596   5.251  -3.116  0.00  0.00    +0.062 A 
ATOM      8  C   UNL     1       0.418   3.929  -2.791  0.00  0.00    +0.044 A 
ATOM      9  S   UNL     1       0.203   2.426  -3.713  0.00  0.00    -0.048 S 
ENDROOT
BRANCH   1  14
ATOM     10  C   UNL     1      -1.518   0.972   0.176  0.00  0.00    +0.129 C 
ATOM     11  N   UNL     1      -0.397   0.048  -0.012  0.00  0.00    -0.327 N 
ATOM     12  C   UNL     1       0.600  -0.120   1.048  0.00  0.00    +0.129 C 
ATOM     13  C   UNL     1      -0.282  -0.656  -1.174  0.00  0.00    +0.186 C 
ATOM     14  N   UNL     1      -0.123  -0.025  -2.307  0.00  0.00    -0.215 NA
ENDBRANCH   1  14
BRANCH   6  15
ATOM     15  O   UNL     1       0.916   7.503  -2.402  0.00  0.00    -0.507 OA
ATOM     16  H   UNL     1       1.842   7.763  -2.502  0.00  0.00    +0.292 HD
ENDBRANCH   6  15
TORSDOF 2
