REMARK  Name = ZINC09284235
REMARK  9 active torsions:
REMARK  status: ('A' for Active; 'I' for Inactive)
REMARK    1  A    between atoms: C_4  and  N_30
REMARK    2  A    between atoms: C_6  and  C_7
REMARK    3  A    between atoms: N_9  and  C_10
REMARK    4  A    between atoms: C_10  and  C_11
REMARK    5  A    between atoms: C_11  and  O_13
REMARK    6  A    between atoms: O_13  and  C_14
REMARK    7  A    between atoms: C_14  and  C_15
REMARK    8  A    between atoms: N_17  and  C_18
REMARK    9  A    between atoms: C_19  and  C_28
REMARK                            x       y       z     vdW  Elec       q    Type
REMARK                         _______ _______ _______ _____ _____    ______ ____
ROOT
ATOM      1  O   UNL     1       4.825   1.751  -0.035  0.00  0.00    -0.454 OA
ENDROOT
BRANCH   1   2
ATOM      2  C   UNL     1       3.554   2.181  -0.020  0.00  0.00    +0.325 C 
ATOM      3  O   UNL     1       3.317   3.365  -0.011  0.00  0.00    -0.249 OA
BRANCH   2   4
ATOM      4  C   UNL     1       2.422   1.186  -0.015  0.00  0.00    +0.225 C 
BRANCH   4   7
ATOM      5  C   UNL     1      -0.014   1.211   0.009  0.00  0.00    +0.245 C 
ATOM      6  O   UNL     1       0.002  -0.004   0.002  0.00  0.00    -0.270 OA
ATOM      7  N   UNL     1       1.143   1.901   0.001  0.00  0.00    -0.301 N 
ATOM      8  H   UNL     1       1.130   2.871   0.007  0.00  0.00    +0.150 HD
BRANCH   5  14
ATOM      9  C   UNL     1      -1.326   3.329   0.032  0.00  0.00    +0.014 A 
ATOM     10  C   UNL     1      -2.533   3.996   0.035  0.00  0.00    +0.023 A 
ATOM     11  C   UNL     1      -3.721   3.285   0.037  0.00  0.00    +0.071 A 
ATOM     12  C   UNL     1      -3.706   1.900   0.030  0.00  0.00    +0.145 A 
ATOM     13  C   UNL     1      -2.506   1.221   0.021  0.00  0.00    +0.047 A 
ATOM     14  C   UNL     1      -1.304   1.933   0.019  0.00  0.00    +0.039 A 
ATOM     15 CL   UNL     1      -5.236   4.132   0.048  0.00  0.00    -0.081 Cl
BRANCH  12  16
ATOM     16  N   UNL     1      -4.980   1.147   0.032  0.00  0.00    +0.058 N 
ATOM     17  O   UNL     1      -4.968  -0.071   0.025  0.00  0.00    -0.126 OA
ATOM     18  O   UNL     1      -6.041   1.745   0.040  0.00  0.00    -0.126 OA
ENDBRANCH  12  16
ENDBRANCH   5  14
ENDBRANCH   4   7
ENDBRANCH   2   4
ENDBRANCH   1   2
BRANCH   1  19
ATOM     19  C   UNL     1       5.864   2.765  -0.039  0.00  0.00    +0.328 C 
BRANCH  19  20
ATOM     20  C   UNL     1       7.216   2.099  -0.056  0.00  0.00    +0.255 C 
ATOM     21  O   UNL     1       7.296   0.889  -0.063  0.00  0.00    -0.272 OA
ATOM     22  N   UNL     1       8.336   2.848  -0.062  0.00  0.00    -0.276 N 
ATOM     23  H   UNL     1       8.273   3.816  -0.056  0.00  0.00    +0.155 HD
BRANCH  22  24
ATOM     24  C   UNL     1       9.582   2.235  -0.077  0.00  0.00    +0.090 A 
ATOM     25  C   UNL     1      10.833   2.828  -0.092  0.00  0.00    +0.084 A 
ATOM     26  C   UNL     1      11.998   1.954  -0.099  0.00  0.00    -0.018 A 
ATOM     27  C   UNL     1      11.718   0.632  -0.108  0.00  0.00    -0.004 A 
ATOM     28  S   UNL     1       9.948   0.542  -0.091  0.00  0.00    -0.077 S 
ATOM     29  C   UNL     1      12.686  -0.508  -0.142  0.00  0.00    +0.043 C 
ATOM     30  C   UNL     1      13.765  -0.288   0.927  0.00  0.00    +0.005 C 
ATOM     31  C   UNL     1      14.907   0.508   0.303  0.00  0.00    +0.001 C 
ATOM     32  C   UNL     1      14.361   1.476  -0.745  0.00  0.00    +0.005 C 
ATOM     33  C   UNL     1      13.424   2.490  -0.097  0.00  0.00    +0.037 C 
BRANCH  25  34
ATOM     34  C   UNL     1      10.977   4.253  -0.095  0.00  0.00    +0.102 C 
ATOM     35  N   UNL     1      11.091   5.383  -0.098  0.00  0.00    -0.191 NA
ENDBRANCH  25  34
ENDBRANCH  22  24
ENDBRANCH  19  20
ENDBRANCH   1  19
TORSDOF 9
