REMARK  Name = ZINC45615277
REMARK  7 active torsions:
REMARK  status: ('A' for Active; 'I' for Inactive)
REMARK    1  A    between atoms: C_1  and  N_2
REMARK    2  A    between atoms: C_6  and  C_7
REMARK    3  A    between atoms: C_7  and  C_9
REMARK    4  A    between atoms: C_7  and  N_17
REMARK    5  A    between atoms: C_12  and  O_15
REMARK    6  A    between atoms: O_15  and  C_16
REMARK    7  A    between atoms: C_25  and  C_27
REMARK                            x       y       z     vdW  Elec       q    Type
REMARK                         _______ _______ _______ _____ _____    ______ ____
ROOT
ATOM      1  N   UNL     1      -0.742  -1.296   3.336  0.00  0.00    -0.315 N 
ATOM      2  C   UNL     1      -2.115  -1.159   3.437  0.00  0.00    +0.132 A 
ATOM      3  C   UNL     1      -2.884  -2.126   4.145  0.00  0.00    +0.051 A 
ATOM      4  C   UNL     1      -2.426  -3.334   4.832  0.00  0.00    -0.025 A 
ATOM      5  C   UNL     1      -3.368  -4.090   5.433  0.00  0.00    -0.004 A 
ATOM      6  S   UNL     1      -4.900  -3.253   5.126  0.00  0.00    -0.073 S 
ATOM      7  C   UNL     1      -4.273  -1.885   4.186  0.00  0.00    +0.114 A 
ATOM      8  N   UNL     1      -4.810  -0.834   3.602  0.00  0.00    -0.220 NA
ATOM      9  C   UNL     1      -4.044   0.035   2.955  0.00  0.00    +0.164 A 
ATOM     10  N   UNL     1      -2.726  -0.127   2.884  0.00  0.00    -0.212 NA
ATOM     11  C   UNL     1      -3.159  -5.364   6.194  0.00  0.00    +0.043 C 
ATOM     12  C   UNL     1      -1.752  -5.892   5.879  0.00  0.00    +0.005 C 
ATOM     13  C   UNL     1      -0.753  -4.739   6.016  0.00  0.00    +0.005 C 
ATOM     14  C   UNL     1      -0.955  -3.738   4.878  0.00  0.00    +0.037 C 
ATOM     15  H   UNL     1      -0.307  -2.094   3.675  0.00  0.00    +0.148 HD
ENDROOT
BRANCH   9  16
ATOM     16  C   UNL     1      -4.668   1.212   2.305  0.00  0.00    +0.037 A 
ATOM     17  C   UNL     1      -6.050   1.413   2.375  0.00  0.00    +0.014 A 
ATOM     18  C   UNL     1      -6.584   2.527   1.752  0.00  0.00    +0.020 A 
ATOM     19  C   UNL     1      -5.741   3.399   1.085  0.00  0.00    +0.111 A 
ATOM     20  N   UNL     1      -4.441   3.183   1.036  0.00  0.00    -0.263 NA
ATOM     21  C   UNL     1      -3.886   2.140   1.618  0.00  0.00    +0.122 A 
ENDBRANCH   9  16
BRANCH   1  22
ATOM     22  C   UNL     1       0.056  -0.235   2.716  0.00  0.00    +0.167 C 
BRANCH  22  28
ATOM     23  C   UNL     1       0.078   2.002   0.573  0.00  0.00    +0.150 C 
ATOM     24  N   UNL     1       0.081   0.563   0.302  0.00  0.00    -0.337 N 
ATOM     25  C   UNL     1       0.099  -0.032  -0.931  0.00  0.00    +0.104 A 
ATOM     26  C   UNL     1       0.096  -1.362  -0.723  0.00  0.00    +0.102 A 
ATOM     27  N   UNL     1       0.076  -1.574   0.602  0.00  0.00    -0.348 N 
ATOM     28  C   UNL     1       0.072  -0.426   1.222  0.00  0.00    +0.112 A 
ATOM     29  H   UNL     1       0.069  -2.444   1.031  0.00  0.00    +0.167 HD
ENDBRANCH  22  28
BRANCH  22  30
ATOM     30  C   UNL     1       1.466  -0.293   3.245  0.00  0.00    -0.020 A 
ATOM     31  C   UNL     1       2.082  -1.516   3.437  0.00  0.00    +0.009 A 
ATOM     32  C   UNL     1       3.374  -1.572   3.921  0.00  0.00    +0.046 A 
ATOM     33  C   UNL     1       4.055  -0.400   4.215  0.00  0.00    +0.120 A 
ATOM     34  C   UNL     1       3.435   0.826   4.022  0.00  0.00    +0.046 A 
ATOM     35  C   UNL     1       2.145   0.877   3.532  0.00  0.00    +0.009 A 
BRANCH  33  36
ATOM     36  O   UNL     1       5.326  -0.453   4.693  0.00  0.00    -0.495 OA
ATOM     37  C   UNL     1       5.965   0.794   4.974  0.00  0.00    +0.277 C 
ENDBRANCH  33  36
ENDBRANCH  22  30
ENDBRANCH   1  22
TORSDOF 5
