REMARK  Name = ZINC20190859
REMARK  13 active torsions:
REMARK  status: ('A' for Active; 'I' for Inactive)
REMARK    1  A    between atoms: C_1  and  C_2
REMARK    2  A    between atoms: C_2  and  S_3
REMARK    3  A    between atoms: S_3  and  C_4
REMARK    4  A    between atoms: C_4  and  C_5
REMARK    5  A    between atoms: C_5  and  O_6
REMARK    6  A    between atoms: O_6  and  C_7
REMARK    7  A    between atoms: C_7  and  C_9
REMARK    8  A    between atoms: C_10  and  C_38
REMARK    9  A    between atoms: C_14  and  C_16
REMARK   10  A    between atoms: C_28  and  C_34
REMARK   11  A    between atoms: C_30  and  C_33
REMARK   12  A    between atoms: C_34  and  O_36
REMARK   13  A    between atoms: O_36  and  C_37
REMARK                            x       y       z     vdW  Elec       q    Type
REMARK                         _______ _______ _______ _____ _____    ______ ____
ROOT
ATOM      1  C   UNL     1       3.874   4.757  -3.210  0.00  0.00    +0.065 C 
ATOM      2  C   UNL     1       4.995   4.024  -3.096  0.00  0.00    +0.016 C 
ATOM      3  N   UNL     1       4.969   2.813  -2.462  0.00  0.00    -0.321 N 
ATOM      4  C   UNL     1       3.951   2.499  -1.601  0.00  0.00    +0.016 C 
ATOM      5  C   UNL     1       2.780   3.167  -1.653  0.00  0.00    +0.025 C 
ATOM      6  C   UNL     1       2.566   4.271  -2.658  0.00  0.00    +0.093 C 
ATOM      7  C   UNL     1       1.727   2.854  -0.775  0.00  0.00    +0.176 C 
ATOM      8  O   UNL     1       0.690   3.485  -0.839  0.00  0.00    -0.291 OA
ATOM      9  C   UNL     1       1.861   1.753   0.241  0.00  0.00    +0.171 C 
ATOM     10  C   UNL     1       2.844   0.704  -0.289  0.00  0.00    +0.013 C 
ATOM     11  C   UNL     1       4.174   1.396  -0.596  0.00  0.00    +0.055 C 
ATOM     12  C   UNL     1       2.285   0.075  -1.567  0.00  0.00    +0.009 C 
ATOM     13  C   UNL     1       6.289   4.540  -3.671  0.00  0.00    +0.061 C 
ATOM     14  H   UNL     1       5.770   2.081  -2.642  0.00  0.00    +0.152 HD
ENDROOT
BRANCH   6  15
ATOM     15  C   UNL     1       1.714   3.752  -3.788  0.00  0.00    -0.027 A 
ATOM     16  C   UNL     1       2.156   2.723  -4.562  0.00  0.00    +0.005 A 
ATOM     17  C   UNL     1       1.383   2.230  -5.611  0.00  0.00    +0.001 A 
ATOM     18  C   UNL     1       0.162   2.764  -5.892  0.00  0.00    +0.008 A 
ATOM     19  C   UNL     1      -0.327   3.827  -5.116  0.00  0.00    -0.018 A 
ATOM     20  C   UNL     1       0.457   4.325  -4.045  0.00  0.00    -0.014 A 
ATOM     21  C   UNL     1      -0.029   5.394  -3.273  0.00  0.00    +0.009 A 
ATOM     22  C   UNL     1      -1.249   5.927  -3.555  0.00  0.00    +0.001 A 
ATOM     23  C   UNL     1      -2.024   5.434  -4.604  0.00  0.00    +0.001 A 
ATOM     24  C   UNL     1      -1.582   4.404  -5.377  0.00  0.00    +0.008 A 
ENDBRANCH   6  15
BRANCH   1  25
ATOM     25  C   UNL     1       3.928   6.011  -3.863  0.00  0.00    +0.338 C 
ATOM     26  O   UNL     1       5.001   6.474  -4.203  0.00  0.00    -0.245 OA
BRANCH  25  27
ATOM     27  O   UNL     1       2.790   6.693  -4.109  0.00  0.00    -0.460 OA
BRANCH  27  28
ATOM     28  C   UNL     1       2.919   7.952  -4.772  0.00  0.00    +0.243 C 
BRANCH  28  29
ATOM     29  C   UNL     1       1.534   8.573  -4.963  0.00  0.00    +0.110 C 
BRANCH  29  30
ATOM     30  S   UNL     1       1.698  10.171  -5.804  0.00  0.00    -0.158 S 
BRANCH  30  32
ATOM     31  C   UNL     1      -0.017  12.126  -6.654  0.00  0.00    +0.015 C 
ATOM     32  C   UNL     1      -0.010  10.767  -5.952  0.00  0.00    +0.066 C 
ENDBRANCH  30  32
ENDBRANCH  29  30
ENDBRANCH  28  29
ENDBRANCH  27  28
ENDBRANCH  25  27
ENDBRANCH   1  25
BRANCH   9  33
ATOM     33  C   UNL     1       0.516   1.113   0.472  0.00  0.00    +0.318 C 
ATOM     34  O   UNL     1       0.360  -0.063   0.246  0.00  0.00    -0.250 OA
BRANCH  33  35
ATOM     35  O   UNL     1      -0.510   1.852   0.923  0.00  0.00    -0.467 OA
ATOM     36  C   UNL     1      -1.777   1.171   1.116  0.00  0.00    +0.280 C 
ENDBRANCH  33  35
ENDBRANCH   9  33
TORSDOF 9
