REMARK  Name = ZINC60204054
REMARK  7 active torsions:
REMARK  status: ('A' for Active; 'I' for Inactive)
REMARK    1  A    between atoms: C_1  and  C_2
REMARK    2  A    between atoms: C_5  and  N_9
REMARK    3  A    between atoms: C_10  and  C_12
REMARK    4  A    between atoms: C_12  and  N_13
REMARK    5  A    between atoms: C_14  and  C_16
REMARK    6  A    between atoms: C_16  and  C_17
REMARK    7  A    between atoms: C_17  and  C_18
REMARK                            x       y       z     vdW  Elec       q    Type
REMARK                         _______ _______ _______ _____ _____    ______ ____
ROOT
ATOM      1  N   UNL     1      -0.234  -6.825  -2.571  0.00  0.00    -0.307 N 
ATOM      2  C   UNL     1      -0.329  -8.147  -2.818  0.00  0.00    +0.214 C 
ATOM      3  O   UNL     1      -0.333  -8.937  -1.897  0.00  0.00    -0.276 OA
ATOM      4  H   UNL     1      -0.231  -6.193  -3.307  0.00  0.00    +0.149 HD
ENDROOT
BRANCH   1   5
ATOM      5  C   UNL     1      -0.136  -6.343  -1.191  0.00  0.00    +0.200 C 
BRANCH   5   7
ATOM      6  N   UNL     1       0.057  -4.171  -0.023  0.00  0.00    -0.283 N 
ATOM      7  C   UNL     1      -0.042  -4.839  -1.190  0.00  0.00    +0.234 C 
ATOM      8  O   UNL     1      -0.055  -4.230  -2.238  0.00  0.00    -0.274 OA
ATOM      9  H   UNL     1       0.149  -4.660   0.809  0.00  0.00    +0.155 HD
BRANCH   6  14
ATOM     10  C   UNL     1      -0.064   1.502   0.016  0.00  0.00    +0.044 C 
ATOM     11  C   UNL     1      -0.031  -0.005   0.006  0.00  0.00    -0.049 A 
ATOM     12  C   UNL     1      -0.622  -0.701  -1.033  0.00  0.00    +0.005 A 
ATOM     13  C   UNL     1      -0.594  -2.082  -1.045  0.00  0.00    +0.025 A 
ATOM     14  C   UNL     1       0.028  -2.772  -0.014  0.00  0.00    +0.052 A 
ATOM     15  C   UNL     1       0.621  -2.070   1.029  0.00  0.00    +0.062 A 
ATOM     16  C   UNL     1       0.595  -0.688   1.032  0.00  0.00    +0.025 A 
ATOM     17 CL   UNL     1       1.401  -2.928   2.321  0.00  0.00    -0.082 Cl
ENDBRANCH   6  14
ENDBRANCH   5   7
ENDBRANCH   1   5
BRANCH   2  18
ATOM     18  C   UNL     1      -0.429  -8.643  -4.237  0.00  0.00    +0.100 C 
BRANCH  18  19
ATOM     19  C   UNL     1      -0.525 -10.170  -4.238  0.00  0.00    +0.046 C 
BRANCH  19  20
ATOM     20  C   UNL     1      -0.626 -10.666  -5.658  0.00  0.00    -0.022 A 
ATOM     21  C   UNL     1      -1.755 -10.944  -6.328  0.00  0.00    +0.087 A 
ATOM     22  N   UNL     1      -1.454 -11.370  -7.593  0.00  0.00    -0.360 N 
ATOM     23  H   UNL     1      -2.105 -11.630  -8.264  0.00  0.00    +0.165 HD
ATOM     24  C   UNL     1      -0.088 -11.376  -7.772  0.00  0.00    +0.047 A 
ATOM     25  C   UNL     1       0.490 -10.929  -6.570  0.00  0.00    +0.003 A 
ATOM     26  C   UNL     1       1.878 -10.826  -6.461  0.00  0.00    +0.010 A 
ATOM     27  C   UNL     1       2.668 -11.157  -7.525  0.00  0.00    +0.001 A 
ATOM     28  C   UNL     1       2.103 -11.595  -8.714  0.00  0.00    +0.002 A 
ATOM     29  C   UNL     1       0.736 -11.713  -8.841  0.00  0.00    +0.026 A 
ENDBRANCH  19  20
ENDBRANCH  18  19
ENDBRANCH   2  18
TORSDOF 6
