REMARK  Name = ZINC24214844
REMARK  9 active torsions:
REMARK  status: ('A' for Active; 'I' for Inactive)
REMARK    1  A    between atoms: C_1  and  C_2
REMARK    2  A    between atoms: C_3  and  C_14
REMARK    3  A    between atoms: C_4  and  C_13
REMARK    4  A    between atoms: N_5  and  C_7
REMARK    5  A    between atoms: N_21  and  C_22
REMARK    6  A    between atoms: C_22  and  C_23
REMARK    7  A    between atoms: N_25  and  C_26
REMARK    8  A    between atoms: C_31  and  C_32
REMARK    9  A    between atoms: C_32  and  C_33
REMARK                            x       y       z     vdW  Elec       q    Type
REMARK                         _______ _______ _______ _____ _____    ______ ____
ROOT
ATOM      1  C   UNL     1      -0.037   1.123  -0.076  0.00  0.00    +0.054 C 
ATOM      2  C   UNL     1      -1.499   0.827   0.107  0.00  0.00    +0.204 C 
ATOM      3  O   UNL     1      -1.901  -0.290  -0.139  0.00  0.00    -0.277 OA
ATOM      4  N   UNL     1      -2.376   1.746   0.524  0.00  0.00    -0.318 N 
ATOM      5  C   UNL     1      -1.989   3.107   0.885  0.00  0.00    +0.085 C 
ATOM      6  C   UNL     1      -0.618   3.435   0.291  0.00  0.00    -0.058 C 
ATOM      7  N   UNL     1       0.319   2.355   0.641  0.00  0.00    +0.397 N 
ATOM      8  H   UNL     1      -3.431   1.439   0.589  0.00  0.00    +0.149 HD
ATOM      9  H   UNL     1       0.245   2.162   1.721  0.00  0.00    -0.079 HD
ENDROOT
BRANCH   1  12
ATOM     10  C   UNL     1       0.468   0.478   2.985  0.00  0.00    +0.068 C 
ATOM     11  C   UNL     1       1.001  -0.309   1.816  0.00  0.00    +0.063 A 
ATOM     12  C   UNL     1       0.777  -0.024   0.464  0.00  0.00    -0.009 A 
ATOM     13  C   UNL     1       1.416  -0.963  -0.271  0.00  0.00    +0.044 A 
ATOM     14  N   UNL     1       2.030  -1.809   0.586  0.00  0.00    -0.237 N 
ATOM     15  N   UNL     1       1.751  -1.379   1.889  0.00  0.00    -0.171 NA
ATOM     16  C   UNL     1       1.442  -1.048  -1.776  0.00  0.00    +0.066 C 
BRANCH  14  17
ATOM     17  C   UNL     1       2.804  -2.923   0.232  0.00  0.00    +0.066 A 
ATOM     18  C   UNL     1       2.724  -4.091   0.979  0.00  0.00    +0.028 A 
ATOM     19  C   UNL     1       3.485  -5.189   0.625  0.00  0.00    +0.002 A 
ATOM     20  C   UNL     1       4.333  -5.121  -0.464  0.00  0.00    +0.000 A 
ATOM     21  C   UNL     1       4.419  -3.958  -1.206  0.00  0.00    +0.002 A 
ATOM     22  C   UNL     1       3.658  -2.859  -0.861  0.00  0.00    +0.028 A 
ENDBRANCH  14  17
ENDBRANCH   1  12
BRANCH   7  23
ATOM     23  C   UNL     1       1.706   2.748   0.355  0.00  0.00    +0.020 C 
BRANCH  23  24
ATOM     24  C   UNL     1       1.836   3.107  -1.102  0.00  0.00    +0.201 C 
ATOM     25  O   UNL     1       0.892   2.961  -1.850  0.00  0.00    -0.278 OA
ATOM     26  N   UNL     1       3.002   3.590  -1.576  0.00  0.00    -0.287 N 
ATOM     27  H   UNL     1       3.875   3.668  -0.911  0.00  0.00    +0.155 HD
BRANCH  26  28
ATOM     28  C   UNL     1       3.102   3.991  -2.912  0.00  0.00    +0.037 A 
ATOM     29  C   UNL     1       2.270   3.429  -3.872  0.00  0.00    +0.023 A 
ATOM     30  C   UNL     1       2.367   3.832  -5.189  0.00  0.00    +0.002 A 
ATOM     31  C   UNL     1       3.299   4.785  -5.556  0.00  0.00    +0.000 A 
ATOM     32  C   UNL     1       4.133   5.343  -4.604  0.00  0.00    +0.006 A 
ATOM     33  C   UNL     1       4.037   4.948  -3.283  0.00  0.00    -0.022 A 
BRANCH  33  34
ATOM     34  C   UNL     1       4.947   5.556  -2.247  0.00  0.00    +0.072 C 
BRANCH  34  35
ATOM     35  C   UNL     1       6.212   4.743  -2.150  0.00  0.00    -0.043 A 
ATOM     36  C   UNL     1       6.277   3.667  -1.284  0.00  0.00    +0.004 A 
ATOM     37  C   UNL     1       7.436   2.918  -1.199  0.00  0.00    +0.000 A 
ATOM     38  C   UNL     1       8.533   3.251  -1.972  0.00  0.00    +0.000 A 
ATOM     39  C   UNL     1       8.469   4.330  -2.833  0.00  0.00    +0.000 A 
ATOM     40  C   UNL     1       7.308   5.076  -2.922  0.00  0.00    +0.004 A 
ENDBRANCH  34  35
ENDBRANCH  33  34
ENDBRANCH  26  28
ENDBRANCH  23  24
ENDBRANCH   7  23
TORSDOF 7
