REMARK  Name = ZINC21556789
REMARK  12 active torsions:
REMARK  status: ('A' for Active; 'I' for Inactive)
REMARK    1  A    between atoms: C_1  and  N_2
REMARK    2  A    between atoms: N_2  and  C_3
REMARK    3  A    between atoms: N_2  and  C_4
REMARK    4  A    between atoms: C_4  and  C_6
REMARK    5  A    between atoms: C_4  and  C_27
REMARK    6  A    between atoms: C_6  and  N_7
REMARK    7  A    between atoms: C_8  and  C_10
REMARK    8  A    between atoms: C_12  and  S_21
REMARK    9  A    between atoms: C_15  and  N_16
REMARK   10  A    between atoms: S_21  and  N_24
REMARK   11  A    between atoms: N_24  and  C_25
REMARK   12  A    between atoms: N_24  and  C_26
REMARK                            x       y       z     vdW  Elec       q    Type
REMARK                         _______ _______ _______ _____ _____    ______ ____
ROOT
ATOM      1  N   UNL     1      -1.797   1.744   0.629  0.00  0.00    -0.313 N 
ATOM      2  C   UNL     1      -1.776   1.039  -0.520  0.00  0.00    +0.246 C 
ATOM      3  O   UNL     1      -0.746   0.507  -0.888  0.00  0.00    -0.270 OA
ATOM      4  H   UNL     1      -2.728   2.225   0.962  0.00  0.00    +0.149 HD
ENDROOT
BRANCH   2   5
ATOM      5  C   UNL     1      -3.001   0.912  -1.330  0.00  0.00    +0.060 A 
ATOM      6  C   UNL     1      -4.156   1.613  -0.973  0.00  0.00    +0.043 A 
ATOM      7  C   UNL     1      -5.297   1.491  -1.734  0.00  0.00    +0.106 A 
ATOM      8  C   UNL     1      -5.308   0.675  -2.854  0.00  0.00    +0.030 A 
ATOM      9  C   UNL     1      -4.176  -0.024  -3.220  0.00  0.00    +0.026 A 
ATOM     10  C   UNL     1      -3.013   0.091  -2.468  0.00  0.00    +0.042 A 
BRANCH  10  11
ATOM     11  N   UNL     1      -1.871  -0.607  -2.838  0.00  0.00    -0.329 N 
ATOM     12  C   UNL     1      -2.168  -2.049  -3.031  0.00  0.00    +0.105 C 
ATOM     13  C   UNL     1      -0.992  -2.538  -3.913  0.00  0.00    +0.020 C 
ATOM     14  C   UNL     1      -0.752  -1.342  -4.863  0.00  0.00    +0.020 C 
ATOM     15  C   UNL     1      -1.352  -0.124  -4.136  0.00  0.00    +0.105 C 
ENDBRANCH  10  11
BRANCH   7  16
ATOM     16  S   UNL     1      -6.752   2.376  -1.280  0.00  0.00    +0.060 S 
ATOM     17  O   UNL     1      -7.849   1.669  -1.842  0.00  0.00    -0.153 OA
ATOM     18  O   UNL     1      -6.649   2.641   0.112  0.00  0.00    -0.153 OA
BRANCH  16  19
ATOM     19  N   UNL     1      -6.691   3.843  -2.047  0.00  0.00    -0.183 NA
ATOM     20  C   UNL     1      -7.276   3.997  -3.381  0.00  0.00    +0.131 C 
ATOM     21  C   UNL     1      -6.053   4.987  -1.390  0.00  0.00    +0.131 C 
ENDBRANCH  16  19
ENDBRANCH   7  16
ENDBRANCH   2   5
BRANCH   1  22
ATOM     22  C   UNL     1      -0.579   1.870   1.433  0.00  0.00    +0.094 C 
BRANCH  22  23
ATOM     23  C   UNL     1      -0.816   2.876   2.562  0.00  0.00    -0.020 C 
BRANCH  23  24
ATOM     24  C   UNL     1       0.375   2.883   3.486  0.00  0.00    -0.041 A 
ATOM     25  C   UNL     1       1.290   3.917   3.427  0.00  0.00    +0.003 A 
ATOM     26  C   UNL     1       2.379   3.925   4.278  0.00  0.00    +0.000 A 
ATOM     27  C   UNL     1       2.559   2.895   5.182  0.00  0.00    +0.001 A 
ATOM     28  C   UNL     1       1.648   1.858   5.238  0.00  0.00    +0.020 A 
ATOM     29  C   UNL     1       0.554   1.851   4.390  0.00  0.00    +0.043 A 
ATOM     30 CL   UNL     1      -0.591   0.548   4.460  0.00  0.00    -0.083 Cl
ENDBRANCH  23  24
BRANCH  23  32
ATOM     31  C   UNL     1      -0.085   4.440   0.864  0.00  0.00    -0.096 C 
ATOM     32  N   UNL     1      -1.000   4.217   1.991  0.00  0.00    +0.382 N 
ATOM     33  C   UNL     1      -2.396   4.429   1.586  0.00  0.00    -0.096 C 
ATOM     34  H   UNL     1      -0.759   4.953   2.772  0.00  0.00    -0.082 HD
ENDBRANCH  23  32
ENDBRANCH  22  23
ENDBRANCH   1  22
TORSDOF 8
