REMARK  Name = ZINC36304735
REMARK  16 active torsions:
REMARK  status: ('A' for Active; 'I' for Inactive)
REMARK    1  A    between atoms: C_1  and  C_2
REMARK    2  A    between atoms: C_6  and  O_8
REMARK    3  A    between atoms: O_8  and  C_9
REMARK    4  A    between atoms: C_10  and  C_21
REMARK    5  A    between atoms: C_11  and  C_20
REMARK    6  A    between atoms: N_13  and  C_14
REMARK    7  A    between atoms: C_21  and  N_22
REMARK    8  A    between atoms: N_22  and  C_23
REMARK    9  A    between atoms: N_22  and  C_29
REMARK   10  A    between atoms: C_23  and  C_24
REMARK   11  A    between atoms: C_29  and  C_30
REMARK   12  A    between atoms: C_30  and  C_32
REMARK   13  A    between atoms: C_30  and  O_37
REMARK   14  A    between atoms: C_32  and  O_33
REMARK   15  A    between atoms: O_33  and  C_34
REMARK   16  A    between atoms: C_34  and  C_35
REMARK                            x       y       z     vdW  Elec       q    Type
REMARK                         _______ _______ _______ _____ _____    ______ ____
ROOT
ATOM      1  C   UNL     1      -0.361  -4.838   1.699  0.00  0.00    +0.225 A 
ATOM      2  C   UNL     1       0.037  -5.307   2.911  0.00  0.00    +0.021 A 
ATOM      3  C   UNL     1       0.596  -6.574   2.719  0.00  0.00    +0.065 A 
ATOM      4  N   UNL     1       0.540  -6.863   1.444  0.00  0.00    -0.168 NA
ATOM      5  N   UNL     1      -0.064  -5.791   0.775  0.00  0.00    -0.200 N 
ATOM      6  C   UNL     1       1.168  -7.458   3.798  0.00  0.00    +0.068 C 
ENDROOT
BRANCH   5   7
ATOM      7  C   UNL     1      -0.315  -5.713  -0.602  0.00  0.00    +0.069 A 
ATOM      8  C   UNL     1      -1.507  -5.170  -1.063  0.00  0.00    +0.028 A 
ATOM      9  C   UNL     1      -1.751  -5.094  -2.420  0.00  0.00    +0.002 A 
ATOM     10  C   UNL     1      -0.809  -5.559  -3.320  0.00  0.00    +0.000 A 
ATOM     11  C   UNL     1       0.379  -6.100  -2.865  0.00  0.00    +0.002 A 
ATOM     12  C   UNL     1       0.631  -6.173  -1.509  0.00  0.00    +0.028 A 
ENDBRANCH   5   7
BRANCH   1  13
ATOM     13  O   UNL     1      -0.953  -3.641   1.456  0.00  0.00    -0.438 OA
BRANCH  13  19
ATOM     14  C   UNL     1      -0.542   0.977  -0.071  0.00  0.00    +0.044 C 
ATOM     15  C   UNL     1       0.076  -0.340   0.324  0.00  0.00    -0.047 A 
ATOM     16  C   UNL     1       1.450  -0.494   0.299  0.00  0.00    +0.003 A 
ATOM     17  C   UNL     1       2.020  -1.700   0.661  0.00  0.00    +0.004 A 
ATOM     18  C   UNL     1       1.218  -2.756   1.049  0.00  0.00    +0.046 A 
ATOM     19  C   UNL     1      -0.161  -2.604   1.075  0.00  0.00    +0.131 A 
ATOM     20  C   UNL     1      -0.731  -1.391   0.716  0.00  0.00    +0.049 A 
ENDBRANCH  13  19
ENDBRANCH   1  13
BRANCH   2  21
ATOM     21  C   UNL     1      -0.099  -4.588   4.229  0.00  0.00    -0.035 C 
BRANCH  21  22
ATOM     22  N   UNL     1      -1.459  -4.779   4.752  0.00  0.00    +0.389 N 
ATOM     23  H   UNL     1      -2.130  -4.455   4.072  0.00  0.00    -0.081 HD
BRANCH  22  24
ATOM     24  C   UNL     1      -1.616  -4.015   5.997  0.00  0.00    -0.003 C 
BRANCH  24  25
ATOM     25  C   UNL     1      -1.396  -2.550   5.718  0.00  0.00    +0.089 A 
ATOM     26  C   UNL     1      -2.356  -1.649   5.442  0.00  0.00    +0.042 A 
ATOM     27  C   UNL     1      -1.708  -0.407   5.250  0.00  0.00    +0.041 A 
ATOM     28  C   UNL     1      -0.392  -0.624   5.420  0.00  0.00    +0.195 A 
ATOM     29  O   UNL     1      -0.209  -1.922   5.709  0.00  0.00    -0.470 OA
ENDBRANCH  24  25
ENDBRANCH  22  24
BRANCH  22  30
ATOM     30  C   UNL     1      -1.684  -6.206   5.021  0.00  0.00    -0.044 C 
BRANCH  30  31
ATOM     31  C   UNL     1      -3.158  -6.433   5.364  0.00  0.00    +0.124 C 
BRANCH  31  32
ATOM     32  O   UNL     1      -3.448  -5.844   6.633  0.00  0.00    -0.391 OA
ATOM     33  H   UNL     1      -2.926  -6.205   7.363  0.00  0.00    +0.210 HD
ENDBRANCH  31  32
BRANCH  31  34
ATOM     34  C   UNL     1      -3.441  -7.936   5.423  0.00  0.00    +0.190 C 
BRANCH  34  35
ATOM     35  O   UNL     1      -4.839  -8.149   5.627  0.00  0.00    -0.365 OA
BRANCH  35  36
ATOM     36  C   UNL     1      -5.213  -9.526   5.697  0.00  0.00    +0.248 C 
BRANCH  36  37
ATOM     37  C   UNL     1      -6.666  -9.630   5.909  0.00  0.00    -0.077 C 
ATOM     38  C   UNL     1      -7.825  -9.713   6.077  0.00  0.00    +0.006 C 
ENDBRANCH  36  37
ENDBRANCH  35  36
ENDBRANCH  34  35
ENDBRANCH  31  34
ENDBRANCH  30  31
ENDBRANCH  22  30
ENDBRANCH  21  22
ENDBRANCH   2  21
TORSDOF 14
