REMARK  Name = ZINC22976633
REMARK  11 active torsions:
REMARK  status: ('A' for Active; 'I' for Inactive)
REMARK    1  A    between atoms: C_1  and  C_2
REMARK    2  A    between atoms: C_7  and  N_12
REMARK    3  A    between atoms: C_9  and  C_11
REMARK    4  A    between atoms: N_12  and  C_13
REMARK    5  A    between atoms: C_13  and  N_15
REMARK    6  A    between atoms: N_15  and  N_16
REMARK    7  A    between atoms: C_17  and  C_19
REMARK    8  A    between atoms: C_19  and  C_20
REMARK    9  A    between atoms: C_20  and  C_22
REMARK   10  A    between atoms: C_20  and  N_23
REMARK   11  A    between atoms: C_24  and  C_26
REMARK                            x       y       z     vdW  Elec       q    Type
REMARK                         _______ _______ _______ _____ _____    ______ ____
ROOT
ATOM      1  N   UNL     1      -2.962   1.276  -2.297  0.00  0.00    -0.235 N 
ATOM      2  C   UNL     1      -2.126   0.973  -1.285  0.00  0.00    +0.231 C 
ATOM      3  O   UNL     1      -2.477   0.203  -0.417  0.00  0.00    -0.274 OA
ATOM      4  H   UNL     1      -2.643   1.975  -3.084  0.00  0.00    +0.173 HD
ENDROOT
BRANCH   1   5
ATOM      5  N   UNL     1      -4.239   0.700  -2.347  0.00  0.00    -0.246 N 
ATOM      6  H   UNL     1      -4.558   0.001  -1.560  0.00  0.00    +0.172 HD
BRANCH   5   7
ATOM      7  C   UNL     1      -5.075   1.003  -3.360  0.00  0.00    +0.147 C 
ATOM      8  S   UNL     1      -6.635   0.300  -3.421  0.00  0.00    -0.017 S 
BRANCH   7   9
ATOM      9  N   UNL     1      -4.684   1.860  -4.324  0.00  0.00    -0.322 N 
ATOM     10  H   UNL     1      -3.682   2.312  -4.285  0.00  0.00    +0.148 HD
BRANCH   9  16
ATOM     11  C   UNL     1      -4.918   3.409  -9.013  0.00  0.00    +0.008 C 
ATOM     12  C   UNL     1      -5.731   2.971  -7.793  0.00  0.00    -0.009 C 
ATOM     13  C   UNL     1      -6.660   4.108  -7.364  0.00  0.00    +0.003 C 
ATOM     14  C   UNL     1      -7.473   3.670  -6.144  0.00  0.00    +0.002 C 
ATOM     15  C   UNL     1      -6.523   3.326  -4.995  0.00  0.00    +0.022 C 
ATOM     16  C   UNL     1      -5.594   2.189  -5.424  0.00  0.00    +0.075 C 
ATOM     17  C   UNL     1      -4.781   2.627  -6.644  0.00  0.00    +0.009 C 
ATOM     18  C   UNL     1      -3.852   1.490  -7.073  0.00  0.00    +0.009 C 
ENDBRANCH   9  16
ENDBRANCH   7   9
ENDBRANCH   5   7
ENDBRANCH   1   5
BRANCH   2  19
ATOM     19  C   UNL     1      -0.753   1.593  -1.232  0.00  0.00    +0.119 C 
BRANCH  19  20
ATOM     20  C   UNL     1      -0.013   1.086   0.008  0.00  0.00    +0.079 C 
ATOM     21  C   UNL     1       1.423   1.615  -0.003  0.00  0.00    +0.028 C 
BRANCH  20  22
ATOM     22  N   UNL     1      -0.698   1.558   1.213  0.00  0.00    -0.308 N 
ATOM     23  C   UNL     1      -0.575   0.877   2.369  0.00  0.00    +0.244 C 
ATOM     24  O   UNL     1       0.104  -0.130   2.412  0.00  0.00    -0.270 OA
ATOM     25  H   UNL     1      -1.314   2.469   1.175  0.00  0.00    +0.149 HD
BRANCH  23  26
ATOM     26  C   UNL     1      -1.267   1.353   3.586  0.00  0.00    +0.037 A 
ATOM     27  C   UNL     1      -2.044   2.512   3.542  0.00  0.00    +0.013 A 
ATOM     28  C   UNL     1      -2.692   2.949   4.679  0.00  0.00    +0.001 A 
ATOM     29  C   UNL     1      -2.563   2.247   5.864  0.00  0.00    +0.000 A 
ATOM     30  C   UNL     1      -1.790   1.101   5.916  0.00  0.00    +0.001 A 
ATOM     31  C   UNL     1      -1.142   0.650   4.785  0.00  0.00    +0.013 A 
ENDBRANCH  23  26
ENDBRANCH  20  22
ENDBRANCH  19  20
ENDBRANCH   2  19
TORSDOF 8
