REMARK  Name = ZINC16011997
REMARK  3 active torsions:
REMARK  status: ('A' for Active; 'I' for Inactive)
REMARK    1  A    between atoms: C_4  and  C_7
REMARK    2  A    between atoms: C_7  and  C_8
REMARK    3  A    between atoms: N_16  and  C_19
REMARK                            x       y       z     vdW  Elec       q    Type
REMARK                         _______ _______ _______ _____ _____    ______ ____
ROOT
ATOM      1  C   UNL     1       4.224  -0.849   1.397  0.00  0.00    +0.072 C 
ATOM      2  C   UNL     1       5.630  -1.441   1.420  0.00  0.00    +0.108 C 
ATOM      3  C   UNL     1       5.244  -2.905   0.992  0.00  0.00    +0.123 C 
ATOM      4  C   UNL     1       6.522  -3.455   0.611  0.00  0.00    +0.233 C 
ATOM      5  O   UNL     1       6.896  -4.603   0.725  0.00  0.00    -0.274 OA
ATOM      6  N   UNL     1       7.223  -2.394   0.091  0.00  0.00    -0.210 N 
ATOM      7  C   UNL     1       6.606  -1.177   0.317  0.00  0.00    +0.232 C 
ATOM      8  O   UNL     1       6.802  -0.126  -0.254  0.00  0.00    -0.274 OA
ATOM      9  C   UNL     1       4.019  -3.221   1.719  0.00  0.00    +0.136 C 
ATOM     10  N   UNL     1       3.448  -1.898   2.148  0.00  0.00    -0.295 NA
ATOM     11  C   UNL     1       2.977  -3.951   0.910  0.00  0.00    +0.003 A 
ATOM     12  C   UNL     1       2.363  -3.683  -0.293  0.00  0.00    +0.008 A 
ATOM     13  C   UNL     1       1.418  -4.560  -0.797  0.00  0.00    +0.000 A 
ATOM     14  C   UNL     1       1.093  -5.703  -0.090  0.00  0.00    +0.002 A 
ATOM     15  C   UNL     1       1.707  -5.975   1.115  0.00  0.00    +0.023 A 
ATOM     16  C   UNL     1       2.660  -5.098   1.629  0.00  0.00    +0.039 A 
ATOM     17  N   UNL     1       3.407  -5.150   2.807  0.00  0.00    -0.283 N 
ATOM     18  C   UNL     1       4.227  -4.092   2.937  0.00  0.00    +0.243 C 
ATOM     19  O   UNL     1       4.988  -3.878   3.856  0.00  0.00    -0.273 OA
ATOM     20  H   UNL     1       3.544  -1.776   3.144  0.00  0.00    +0.124 HD
ATOM     21  H   UNL     1       3.343  -5.868   3.457  0.00  0.00    +0.155 HD
ENDROOT
BRANCH   6  22
ATOM     22  C   UNL     1       8.444  -2.525  -0.587  0.00  0.00    +0.044 A 
ATOM     23  C   UNL     1       9.007  -3.781  -0.768  0.00  0.00    +0.025 A 
ATOM     24  C   UNL     1      10.209  -3.908  -1.436  0.00  0.00    +0.022 A 
ATOM     25  C   UNL     1      10.853  -2.784  -1.924  0.00  0.00    +0.041 A 
ATOM     26  C   UNL     1      10.294  -1.531  -1.744  0.00  0.00    +0.022 A 
ATOM     27  C   UNL     1       9.089  -1.400  -1.082  0.00  0.00    +0.025 A 
ATOM     28 CL   UNL     1      12.364  -2.947  -2.763  0.00  0.00    -0.084 Cl
ENDBRANCH   6  22
BRANCH   1  29
ATOM     29  C   UNL     1       3.711  -0.707  -0.038  0.00  0.00    +0.054 C 
BRANCH  29  33
ATOM     30  C   UNL     1      -0.183   1.047   0.008  0.00  0.00    +0.000 A 
ATOM     31  C   UNL     1       0.938   1.854   0.029  0.00  0.00    +0.000 A 
ATOM     32  C   UNL     1       2.199   1.287   0.015  0.00  0.00    +0.004 A 
ATOM     33  C   UNL     1       2.337  -0.088  -0.021  0.00  0.00    -0.046 A 
ATOM     34  C   UNL     1       1.215  -0.896  -0.042  0.00  0.00    +0.004 A 
ATOM     35  C   UNL     1      -0.045  -0.328  -0.029  0.00  0.00    +0.000 A 
ENDBRANCH  29  33
ENDBRANCH   1  29
TORSDOF 3
