REMARK  Name = ZINC39675411
REMARK  14 active torsions:
REMARK  status: ('A' for Active; 'I' for Inactive)
REMARK    1  A    between atoms: C_1  and  C_2
REMARK    2  A    between atoms: C_4  and  C_11
REMARK    3  A    between atoms: N_5  and  C_7
REMARK    4  A    between atoms: C_7  and  C_8
REMARK    5  A    between atoms: C_7  and  C_9
REMARK    6  A    between atoms: C_7  and  C_10
REMARK    7  A    between atoms: C_15  and  C_24
REMARK    8  A    between atoms: N_26  and  C_27
REMARK    9  A    between atoms: C_27  and  C_29
REMARK   10  A    between atoms: C_27  and  C_30
REMARK   11  A    between atoms: C_30  and  C_31
REMARK   12  A    between atoms: C_31  and  C_32
REMARK   13  A    between atoms: C_35  and  O_38
REMARK   14  A    between atoms: O_38  and  C_39
REMARK                            x       y       z     vdW  Elec       q    Type
REMARK                         _______ _______ _______ _____ _____    ______ ____
ROOT
ATOM      1  C   UNL     1      -0.442  -2.423  -1.370  0.00  0.00    +0.265 C 
ATOM      2  O   UNL     1      -0.517  -2.515  -2.580  0.00  0.00    -0.268 OA
ATOM      3  N   UNL     1      -0.204  -3.520  -0.624  0.00  0.00    -0.295 N 
ATOM      4  C   UNL     1      -0.215  -3.634   0.853  0.00  0.00    +0.121 C 
ATOM      5  C   UNL     1      -0.875  -5.002   1.135  0.00  0.00    +0.100 C 
ATOM      6  C   UNL     1      -0.647  -5.820  -0.148  0.00  0.00    -0.004 C 
ATOM      7  C   UNL     1       0.120  -4.888  -1.097  0.00  0.00    +0.115 C 
ATOM      8  C   UNL     1      -1.984  -6.212  -0.769  0.00  0.00    -0.010 C 
ATOM      9  C   UNL     1      -1.731  -7.072  -2.011  0.00  0.00    -0.082 C 
ATOM     10  N   UNL     1      -0.974  -8.271  -1.632  0.00  0.00    +0.379 N 
ATOM     11  C   UNL     1       0.348  -7.888  -1.121  0.00  0.00    -0.082 C 
ATOM     12  C   UNL     1       0.183  -7.063   0.158  0.00  0.00    -0.010 C 
ATOM     13  H   UNL     1      -1.478  -8.773  -0.916  0.00  0.00    -0.086 HD
ATOM     14  H   UNL     1      -0.862  -8.866  -2.440  0.00  0.00    -0.086 HD
ENDROOT
BRANCH   1  18
ATOM     15  C   UNL     1      -0.620   1.352   2.013  0.00  0.00    +0.067 C 
ATOM     16  C   UNL     1      -0.692   0.543   0.743  0.00  0.00    +0.061 A 
ATOM     17  C   UNL     1      -0.407  -0.818   0.617  0.00  0.00    +0.057 A 
ATOM     18  C   UNL     1      -0.609  -1.114  -0.720  0.00  0.00    +0.124 A 
ATOM     19  N   UNL     1      -0.995   0.054  -1.314  0.00  0.00    -0.254 N 
ATOM     20  N   UNL     1      -1.037   0.992  -0.438  0.00  0.00    -0.175 NA
BRANCH  19  21
ATOM     21  C   UNL     1      -1.318   0.211  -2.735  0.00  0.00    +0.056 C 
ATOM     22  C   UNL     1      -2.423  -0.774  -3.119  0.00  0.00    +0.036 C 
ATOM     23  C   UNL     1      -1.796   1.641  -2.994  0.00  0.00    +0.036 C 
ATOM     24  C   UNL     1      -0.070  -0.069  -3.575  0.00  0.00    +0.036 C 
ENDBRANCH  19  21
ENDBRANCH   1  18
BRANCH   5  25
ATOM     25  C   UNL     1      -2.350  -4.829   1.394  0.00  0.00    +0.218 C 
ATOM     26  O   UNL     1      -2.970  -3.964   0.814  0.00  0.00    -0.275 OA
ATOM     27  N   UNL     1      -2.979  -5.637   2.271  0.00  0.00    -0.312 N 
ATOM     28  H   UNL     1      -2.471  -6.280   2.788  0.00  0.00    +0.149 HD
BRANCH  27  29
ATOM     29  C   UNL     1      -4.431  -5.542   2.442  0.00  0.00    +0.070 C 
ATOM     30  C   UNL     1      -5.124  -6.466   1.437  0.00  0.00    +0.028 C 
BRANCH  29  31
ATOM     31  C   UNL     1      -4.806  -5.963   3.864  0.00  0.00    +0.026 C 
BRANCH  31  32
ATOM     32  C   UNL     1      -4.128  -5.028   4.868  0.00  0.00    +0.037 C 
BRANCH  32  33
ATOM     33  C   UNL     1      -4.400  -5.512   6.269  0.00  0.00    -0.047 A 
ATOM     34  C   UNL     1      -5.460  -4.990   6.986  0.00  0.00    +0.007 A 
ATOM     35  C   UNL     1      -5.711  -5.433   8.271  0.00  0.00    +0.046 A 
ATOM     36  C   UNL     1      -4.898  -6.402   8.840  0.00  0.00    +0.120 A 
ATOM     37  C   UNL     1      -3.835  -6.925   8.118  0.00  0.00    +0.046 A 
ATOM     38  C   UNL     1      -3.592  -6.483   6.832  0.00  0.00    +0.007 A 
BRANCH  36  39
ATOM     39  O   UNL     1      -5.143  -6.838  10.104  0.00  0.00    -0.495 OA
ATOM     40  C   UNL     1      -4.265  -7.838  10.626  0.00  0.00    +0.277 C 
ENDBRANCH  36  39
ENDBRANCH  32  33
ENDBRANCH  31  32
ENDBRANCH  29  31
ENDBRANCH  27  29
ENDBRANCH   5  25
TORSDOF 8
