REMARK  Name = ZINC16045713
REMARK  9 active torsions:
REMARK  status: ('A' for Active; 'I' for Inactive)
REMARK    1  A    between atoms: C_3  and  C_6
REMARK    2  A    between atoms: C_6  and  C_8
REMARK    3  A    between atoms: C_6  and  N_54
REMARK    4  A    between atoms: C_8  and  N_9
REMARK    5  A    between atoms: C_10  and  C_12
REMARK    6  A    between atoms: C_12  and  N_13
REMARK    7  A    between atoms: N_13  and  C_14
REMARK    8  A    between atoms: C_17  and  C_23
REMARK    9  A    between atoms: C_19  and  N_20
REMARK                            x       y       z     vdW  Elec       q    Type
REMARK                         _______ _______ _______ _____ _____    ______ ____
ROOT
ATOM      1  N   UNL     1      -5.053   6.070   5.822  0.00  0.00    -0.315 N 
ATOM      2  C   UNL     1      -3.746   6.112   5.499  0.00  0.00    +0.230 C 
ATOM      3  O   UNL     1      -2.941   6.564   6.286  0.00  0.00    -0.274 OA
ATOM      4  H   UNL     1      -5.697   5.709   5.192  0.00  0.00    +0.149 HD
ENDROOT
BRANCH   1   5
ATOM      5  C   UNL     1      -5.503   6.570   7.123  0.00  0.00    +0.096 C 
BRANCH   5   6
ATOM      6  C   UNL     1      -7.020   6.408   7.236  0.00  0.00    +0.016 C 
BRANCH   6  12
ATOM      7  C   UNL     1      -7.256   8.479   6.004  0.00  0.00    -0.078 C 
ATOM      8  C   UNL     1      -7.834   9.098   4.729  0.00  0.00    -0.019 C 
ATOM      9  C   UNL     1      -9.362   8.996   4.765  0.00  0.00    -0.004 C 
ATOM     10  C   UNL     1      -9.764   7.526   4.912  0.00  0.00    -0.019 C 
ATOM     11  C   UNL     1      -9.130   6.952   6.181  0.00  0.00    -0.078 C 
ATOM     12  N   UNL     1      -7.659   7.058   6.073  0.00  0.00    +0.387 N 
ATOM     13  H   UNL     1      -7.354   6.583   5.216  0.00  0.00    -0.081 HD
ENDBRANCH   6  12
BRANCH   6  16
ATOM     14  C   UNL     1      -8.311   7.340  10.560  0.00  0.00    +0.041 A 
ATOM     15  C   UNL     1      -7.988   6.369   9.584  0.00  0.00    +0.043 A 
ATOM     16  C   UNL     1      -7.498   7.033   8.521  0.00  0.00    +0.093 A 
ATOM     17  O   UNL     1      -7.502   8.346   8.803  0.00  0.00    -0.469 OA
ATOM     18  C   UNL     1      -7.999   8.539  10.035  0.00  0.00    +0.195 A 
ENDBRANCH   6  16
ENDBRANCH   5   6
ENDBRANCH   1   5
BRANCH   2  19
ATOM     19  C   UNL     1      -3.283   5.598   4.160  0.00  0.00    +0.197 C 
BRANCH  19  20
ATOM     20  N   UNL     1      -1.831   5.753   4.052  0.00  0.00    -0.334 N 
ATOM     21  H   UNL     1      -1.328   6.140   4.786  0.00  0.00    +0.147 HD
BRANCH  20  22
ATOM     22  C   UNL     1      -1.169   5.344   2.892  0.00  0.00    +0.058 A 
ATOM     23  C   UNL     1      -1.896   4.894   1.797  0.00  0.00    +0.026 A 
ATOM     24  C   UNL     1      -1.238   4.495   0.650  0.00  0.00    +0.014 A 
ATOM     25  C   UNL     1       0.143   4.533   0.594  0.00  0.00    +0.057 A 
ATOM     26  C   UNL     1       0.870   4.981   1.682  0.00  0.00    +0.047 A 
ATOM     27  C   UNL     1       0.218   5.387   2.830  0.00  0.00    +0.147 A 
BRANCH  25  28
ATOM     28  C   UNL     1       0.857   4.092  -0.657  0.00  0.00    +0.417 C 
ATOM     29  F   UNL     1       1.137   2.723  -0.576  0.00  0.00    -0.166 F 
ATOM     30  F   UNL     1       2.054   4.805  -0.787  0.00  0.00    -0.166 F 
ATOM     31  F   UNL     1       0.044   4.337  -1.769  0.00  0.00    -0.166 F 
ENDBRANCH  25  28
BRANCH  27  32
ATOM     32  N   UNL     1       0.997   5.865   3.994  0.00  0.00    +0.058 N 
ATOM     33  O   UNL     1       2.203   6.011   3.902  0.00  0.00    -0.126 OA
ATOM     34  O   UNL     1       0.433   6.114   5.045  0.00  0.00    -0.126 OA
ENDBRANCH  27  32
ENDBRANCH  20  22
ENDBRANCH  19  20
ENDBRANCH   2  19
TORSDOF 9
