REMARK  Name = ZINC16632252
REMARK  9 active torsions:
REMARK  status: ('A' for Active; 'I' for Inactive)
REMARK    1  A    between atoms: C_1  and  C_2
REMARK    2  A    between atoms: C_2  and  C_3
REMARK    3  A    between atoms: C_3  and  N_4
REMARK    4  A    between atoms: N_4  and  C_5
REMARK    5  A    between atoms: C_5  and  C_6
REMARK    6  A    between atoms: N_8  and  C_9
REMARK    7  A    between atoms: C_14  and  C_15
REMARK    8  A    between atoms: C_16  and  C_18
REMARK    9  A    between atoms: C_18  and  N_19
REMARK                            x       y       z     vdW  Elec       q    Type
REMARK                         _______ _______ _______ _____ _____    ______ ____
ROOT
ATOM      1  N   UNL     1       3.599   1.729   0.091  0.00  0.00    -0.291 N 
ATOM      2  C   UNL     1       4.168   2.073  -1.081  0.00  0.00    +0.234 C 
ATOM      3  O   UNL     1       3.734   1.623  -2.121  0.00  0.00    -0.274 OA
ENDROOT
BRANCH   1   4
ATOM      4  C   UNL     1       4.123   2.272   1.347  0.00  0.00    +0.108 C 
BRANCH   4   6
ATOM      5  C   UNL     1       5.753   1.907   3.204  0.00  0.00    +0.005 C 
ATOM      6  C   UNL     1       5.206   1.340   1.893  0.00  0.00    +0.016 C 
ENDBRANCH   4   6
ENDBRANCH   1   4
BRANCH   1   7
ATOM      7  C   UNL     1       2.456   0.813   0.110  0.00  0.00    +0.203 C 
BRANCH   7   8
ATOM      8  C   UNL     1       1.177   1.603   0.009  0.00  0.00    +0.235 C 
ATOM      9  O   UNL     1       1.216   2.813  -0.071  0.00  0.00    -0.274 OA
ATOM     10  N   UNL     1      -0.011   0.966   0.007  0.00  0.00    -0.284 N 
ATOM     11  H   UNL     1      -0.041  -0.004  -0.012  0.00  0.00    +0.155 HD
BRANCH  10  12
ATOM     12  C   UNL     1      -1.200   1.703   0.028  0.00  0.00    +0.036 A 
ATOM     13  C   UNL     1      -1.214   2.988   0.553  0.00  0.00    +0.023 A 
ATOM     14  C   UNL     1      -2.388   3.715   0.567  0.00  0.00    +0.002 A 
ATOM     15  C   UNL     1      -3.552   3.159   0.069  0.00  0.00    +0.000 A 
ATOM     16  C   UNL     1      -3.544   1.878  -0.450  0.00  0.00    +0.005 A 
ATOM     17  C   UNL     1      -2.371   1.148  -0.471  0.00  0.00    -0.029 A 
ATOM     18  C   UNL     1      -2.363  -0.249  -1.036  0.00  0.00    +0.045 C 
ENDBRANCH  10  12
ENDBRANCH   7   8
ENDBRANCH   1   7
BRANCH   2  19
ATOM     19  C   UNL     1       5.343   3.015  -1.101  0.00  0.00    +0.213 C 
BRANCH  19  20
ATOM     20  N   UNL     1       5.776   3.228  -2.484  0.00  0.00    -0.215 N 
ATOM     21  C   UNL     1       6.701   2.474  -3.114  0.00  0.00    +0.252 C 
ATOM     22  O   UNL     1       7.309   1.528  -2.662  0.00  0.00    -0.272 OA
ATOM     23  C   UNL     1       6.817   3.057  -4.503  0.00  0.00    +0.144 C 
ATOM     24  C   UNL     1       8.236   3.560  -4.749  0.00  0.00    +0.081 C 
ATOM     25  C   UNL     1       8.376   3.902  -6.239  0.00  0.00    +0.232 C 
ATOM     26  O   UNL     1       8.209   2.702  -6.996  0.00  0.00    -0.492 OA
ATOM     27  C   UNL     1       7.135   1.917  -6.724  0.00  0.00    +0.126 A 
ATOM     28  C   UNL     1       6.427   2.039  -5.539  0.00  0.00    +0.027 A 
ATOM     29  C   UNL     1       5.342   1.214  -5.298  0.00  0.00    +0.010 A 
ATOM     30  C   UNL     1       4.959   0.273  -6.234  0.00  0.00    +0.001 A 
ATOM     31  C   UNL     1       5.661   0.152  -7.420  0.00  0.00    +0.004 A 
ATOM     32  C   UNL     1       6.745   0.971  -7.665  0.00  0.00    +0.046 A 
ATOM     33  N   UNL     1       5.868   4.177  -4.502  0.00  0.00    -0.281 N 
ATOM     34  C   UNL     1       5.307   4.199  -3.278  0.00  0.00    +0.310 C 
ATOM     35  O   UNL     1       4.469   5.008  -2.933  0.00  0.00    -0.252 OA
ATOM     36  H   UNL     1       5.682   4.782  -5.237  0.00  0.00    +0.152 HD
ENDBRANCH  19  20
ENDBRANCH   2  19
TORSDOF 7
