REMARK  Name = ZINC06108723
REMARK  4 active torsions:
REMARK  status: ('A' for Active; 'I' for Inactive)
REMARK    1  A    between atoms: C_3  and  C_6
REMARK    2  A    between atoms: C_8  and  C_11
REMARK    3  A    between atoms: C_11  and  S_12
REMARK    4  A    between atoms: S_12  and  C_13
REMARK                            x       y       z     vdW  Elec       q    Type
REMARK                         _______ _______ _______ _____ _____    ______ ____
ROOT
ATOM      1  C   UNL     1      -2.971  -6.583   1.419  0.00  0.00    +0.191 A 
ATOM      2  N   UNL     1      -3.094  -7.015   0.169  0.00  0.00    -0.207 NA
ATOM      3  C   UNL     1      -3.562  -8.218  -0.116  0.00  0.00    +0.129 A 
ATOM      4  C   UNL     1      -3.948  -9.084   0.946  0.00  0.00    +0.051 A 
ATOM      5  C   UNL     1      -4.487 -10.444   0.869  0.00  0.00    -0.025 A 
ATOM      6  C   UNL     1      -4.775 -11.054   2.035  0.00  0.00    -0.004 A 
ATOM      7  S   UNL     1      -4.354  -9.876   3.291  0.00  0.00    -0.073 S 
ATOM      8  C   UNL     1      -3.790  -8.560   2.244  0.00  0.00    +0.115 A 
ATOM      9  N   UNL     1      -3.310  -7.348   2.448  0.00  0.00    -0.215 NA
ATOM     10  C   UNL     1      -5.332 -12.432   2.225  0.00  0.00    +0.043 C 
ATOM     11  C   UNL     1      -5.881 -12.923   0.877  0.00  0.00    +0.005 C 
ATOM     12  C   UNL     1      -4.831 -12.658  -0.206  0.00  0.00    +0.005 C 
ATOM     13  C   UNL     1      -4.718 -11.155  -0.462  0.00  0.00    +0.037 C 
ATOM     14  N   UNL     1      -3.674  -8.632  -1.431  0.00  0.00    -0.343 N 
ATOM     15  H   UNL     1      -3.203  -8.153  -2.131  0.00  0.00    +0.144 HD
ATOM     16  H   UNL     1      -4.223  -9.400  -1.652  0.00  0.00    +0.144 HD
ENDROOT
BRANCH   1  17
ATOM     17  S   UNL     1      -2.339  -4.965   1.716  0.00  0.00    -0.080 S 
BRANCH  17  18
ATOM     18  C   UNL     1      -2.055  -4.420   0.014  0.00  0.00    +0.136 C 
BRANCH  18  21
ATOM     19  C   UNL     1      -0.101  -1.375   0.056  0.00  0.00    +0.234 A 
ATOM     20  N   UNL     1      -0.199  -2.687   0.064  0.00  0.00    -0.213 NA
ATOM     21  C   UNL     1      -1.498  -3.020   0.020  0.00  0.00    +0.090 A 
ATOM     22  C   UNL     1      -2.216  -1.883  -0.015  0.00  0.00    +0.221 A 
ATOM     23  O   UNL     1      -1.341  -0.856   0.012  0.00  0.00    -0.443 OA
BRANCH  19  26
ATOM     24  C   UNL     1       2.619   1.253   0.130  0.00  0.00    +0.008 A 
ATOM     25  C   UNL     1       1.334   0.763   0.088  0.00  0.00    +0.021 A 
ATOM     26  C   UNL     1       1.151  -0.607   0.093  0.00  0.00    +0.074 A 
ATOM     27  S   UNL     1       2.834  -1.200   0.160  0.00  0.00    -0.092 S 
ATOM     28  C   UNL     1       3.661   0.382   0.175  0.00  0.00    +0.046 A 
ENDBRANCH  19  26
ENDBRANCH  18  21
ENDBRANCH  17  18
ENDBRANCH   1  17
TORSDOF 4
