REMARK  Name = ZINC06193801
REMARK  12 active torsions:
REMARK  status: ('A' for Active; 'I' for Inactive)
REMARK    1  A    between atoms: C_1  and  C_2
REMARK    2  A    between atoms: C_2  and  N_67
REMARK    3  A    between atoms: C_3  and  C_4
REMARK    4  A    between atoms: C_3  and  N_67
REMARK    5  A    between atoms: C_10  and  C_12
REMARK    6  A    between atoms: C_10  and  C_25
REMARK    7  A    between atoms: C_10  and  N_67
REMARK    8  A    between atoms: C_18  and  C_24
REMARK    9  A    between atoms: N_29  and  C_30
REMARK   10  A    between atoms: C_30  and  C_31
REMARK   11  A    between atoms: C_34  and  O_37
REMARK   12  A    between atoms: O_37  and  C_38
REMARK                            x       y       z     vdW  Elec       q    Type
REMARK                         _______ _______ _______ _____ _____    ______ ____
ROOT
ATOM      1  C   UNL     1       0.237  -2.109   5.596  0.00  0.00    +0.039 C 
ENDROOT
BRANCH   1   2
ATOM      2  C   UNL     1      -0.032  -1.025   4.584  0.00  0.00    +0.011 A 
ATOM      3  C   UNL     1      -0.262  -1.353   3.288  0.00  0.00    +0.017 A 
ATOM      4  C   UNL     1      -0.521  -0.277   2.330  0.00  0.00    -0.001 A 
ATOM      5  C   UNL     1      -0.764  -0.552   0.980  0.00  0.00    +0.010 A 
ATOM      6  C   UNL     1      -1.001   0.475   0.112  0.00  0.00    +0.001 A 
ATOM      7  C   UNL     1      -1.009   1.790   0.557  0.00  0.00    +0.005 A 
ATOM      8  C   UNL     1      -0.766   2.085   1.881  0.00  0.00    -0.026 A 
ATOM      9  C   UNL     1      -0.521   1.056   2.784  0.00  0.00    +0.052 A 
ATOM     10  N   UNL     1      -0.280   1.322   4.115  0.00  0.00    -0.322 N 
ATOM     11  H   UNL     1      -0.280   2.269   4.436  0.00  0.00    +0.169 HD
ATOM     12  C   UNL     1      -0.045   0.327   4.988  0.00  0.00    +0.251 A 
ATOM     13  O   UNL     1       0.164   0.599   6.158  0.00  0.00    -0.268 OA
ATOM     14  C   UNL     1      -0.771   3.517   2.350  0.00  0.00    +0.046 C 
ENDBRANCH   1   2
BRANCH   1  15
ATOM     15  C   UNL     1      -0.835  -2.086   6.654  0.00  0.00    +0.143 A 
ATOM     16  N   UNL     1      -0.955  -1.216   7.627  0.00  0.00    -0.115 NA
ATOM     17  N   UNL     1      -1.996  -1.532   8.318  0.00  0.00    -0.023 NA
ATOM     18  N   UNL     1      -2.539  -2.585   7.815  0.00  0.00    -0.044 NA
ATOM     19  N   UNL     1      -1.852  -2.957   6.788  0.00  0.00    -0.226 N 
BRANCH  19  20
ATOM     20  C   UNL     1      -2.127  -4.112   5.929  0.00  0.00    +0.182 C 
BRANCH  20  21
ATOM     21  C   UNL     1      -1.522  -5.349   6.541  0.00  0.00    -0.026 A 
ATOM     22  C   UNL     1      -0.229  -5.716   6.220  0.00  0.00    +0.009 A 
ATOM     23  C   UNL     1       0.330  -6.847   6.784  0.00  0.00    +0.046 A 
ATOM     24  C   UNL     1      -0.412  -7.620   7.665  0.00  0.00    +0.120 A 
ATOM     25  C   UNL     1      -1.712  -7.252   7.982  0.00  0.00    +0.046 A 
ATOM     26  C   UNL     1      -2.264  -6.117   7.419  0.00  0.00    +0.009 A 
BRANCH  24  27
ATOM     27  O   UNL     1       0.133  -8.735   8.217  0.00  0.00    -0.495 OA
ATOM     28  C   UNL     1       1.476  -9.053   7.846  0.00  0.00    +0.277 C 
ENDBRANCH  24  27
ENDBRANCH  20  21
ENDBRANCH  19  20
ENDBRANCH   1  15
BRANCH   1  29
ATOM     29  N   UNL     1       1.546  -1.856   6.234  0.00  0.00    +0.392 N 
ATOM     30  H   UNL     1       1.510  -0.953   6.721  0.00  0.00    -0.080 HD
BRANCH  29  32
ATOM     31  C   UNL     1       2.587  -0.427   4.548  0.00  0.00    -0.017 C 
ATOM     32  C   UNL     1       2.607  -1.807   5.207  0.00  0.00    -0.080 C 
ENDBRANCH  29  32
BRANCH  29  33
ATOM     33  C   UNL     1       1.843  -2.920   7.217  0.00  0.00    -0.042 C 
BRANCH  33  34
ATOM     34  C   UNL     1       1.085  -2.628   8.486  0.00  0.00    -0.064 A 
ATOM     35  C   UNL     1       1.450  -1.555   9.278  0.00  0.00    +0.002 A 
ATOM     36  C   UNL     1       0.752  -1.284  10.440  0.00  0.00    +0.000 A 
ATOM     37  C   UNL     1      -0.305  -2.092  10.816  0.00  0.00    +0.000 A 
ATOM     38  C   UNL     1      -0.666  -3.168  10.027  0.00  0.00    +0.000 A 
ATOM     39  C   UNL     1       0.028  -3.436   8.862  0.00  0.00    +0.002 A 
ENDBRANCH  33  34
ENDBRANCH  29  33
ENDBRANCH   1  29
TORSDOF 9
