REMARK  Name = ZINC60030526
REMARK  7 active torsions:
REMARK  status: ('A' for Active; 'I' for Inactive)
REMARK    1  A    between atoms: C_4  and  C_7
REMARK    2  A    between atoms: C_7  and  C_8
REMARK    3  A    between atoms: C_8  and  C_9
REMARK    4  A    between atoms: C_14  and  C_15
REMARK    5  A    between atoms: N_17  and  C_18
REMARK    6  A    between atoms: C_18  and  C_19
REMARK    7  A    between atoms: N_23  and  C_25
REMARK                            x       y       z     vdW  Elec       q    Type
REMARK                         _______ _______ _______ _____ _____    ______ ____
ROOT
ATOM      1  C   UNL     1       6.648   0.461   0.948  0.00  0.00    +0.244 C 
ATOM      2  O   UNL     1       5.602   1.072   1.051  0.00  0.00    -0.270 OA
ATOM      3  N   UNL     1       7.783   1.117   0.637  0.00  0.00    -0.311 N 
ATOM      4  H   UNL     1       8.618   0.630   0.554  0.00  0.00    +0.149 HD
ENDROOT
BRANCH   1  10
ATOM      5  C   UNL     1       5.486  -1.700   1.380  0.00  0.00    -0.035 A 
ATOM      6  C   UNL     1       5.518  -3.065   1.575  0.00  0.00    +0.004 A 
ATOM      7  C   UNL     1       6.724  -3.741   1.560  0.00  0.00    +0.000 A 
ATOM      8  C   UNL     1       7.907  -3.054   1.351  0.00  0.00    +0.001 A 
ATOM      9  C   UNL     1       7.890  -1.689   1.155  0.00  0.00    +0.013 A 
ATOM     10  C   UNL     1       6.675  -1.001   1.163  0.00  0.00    +0.040 A 
BRANCH   5  11
ATOM     11  C   UNL     1       4.171  -0.965   1.397  0.00  0.00    +0.040 C 
BRANCH  11  12
ATOM     12  C   UNL     1       3.732  -0.671  -0.040  0.00  0.00    +0.040 C 
BRANCH  12  16
ATOM     13  C   UNL     1       0.004   1.412   0.004  0.00  0.00    +0.000 A 
ATOM     14  C   UNL     1       1.191   2.119   0.033  0.00  0.00    +0.000 A 
ATOM     15  C   UNL     1       2.398   1.445   0.019  0.00  0.00    +0.003 A 
ATOM     16  C   UNL     1       2.417   0.064  -0.024  0.00  0.00    -0.047 A 
ATOM     17  C   UNL     1       1.230  -0.644  -0.052  0.00  0.00    +0.003 A 
ATOM     18  C   UNL     1       0.023   0.031  -0.039  0.00  0.00    +0.000 A 
ENDBRANCH  12  16
ENDBRANCH  11  12
ENDBRANCH   5  11
ENDBRANCH   1  10
BRANCH   3  19
ATOM     19  C   UNL     1       7.757   2.567   0.423  0.00  0.00    +0.109 C 
BRANCH  19  20
ATOM     20  C   UNL     1       9.166   3.058   0.086  0.00  0.00    +0.025 C 
ATOM     21  C   UNL     1       9.607   2.547  -1.310  0.00  0.00    +0.025 C 
ATOM     22  C   UNL     1      10.631   3.630  -1.730  0.00  0.00    +0.105 C 
ATOM     23  N   UNL     1      10.076   4.895  -1.214  0.00  0.00    -0.330 N 
ATOM     24  C   UNL     1       9.183   4.592  -0.082  0.00  0.00    +0.110 C 
BRANCH  23  25
ATOM     25  C   UNL     1      10.353   6.170  -1.714  0.00  0.00    +0.030 A 
ATOM     26  C   UNL     1       9.768   7.288  -1.133  0.00  0.00    +0.026 A 
ATOM     27  C   UNL     1      10.043   8.547  -1.628  0.00  0.00    +0.040 A 
ATOM     28  C   UNL     1      10.903   8.696  -2.703  0.00  0.00    +0.124 A 
ATOM     29  C   UNL     1      11.488   7.584  -3.284  0.00  0.00    +0.040 A 
ATOM     30  C   UNL     1      11.219   6.323  -2.789  0.00  0.00    +0.026 A 
ATOM     31  F   UNL     1      11.171   9.929  -3.187  0.00  0.00    -0.205 F 
ENDBRANCH  23  25
ENDBRANCH  19  20
ENDBRANCH   3  19
TORSDOF 7
