REMARK  Name = ZINC00623313
REMARK  3 active torsions:
REMARK  status: ('A' for Active; 'I' for Inactive)
REMARK    1  A    between atoms: C_4  and  C_7
REMARK    2  A    between atoms: C_8  and  N_17
REMARK    3  A    between atoms: C_18  and  C_20
REMARK                            x       y       z     vdW  Elec       q    Type
REMARK                         _______ _______ _______ _____ _____    ______ ____
ROOT
ATOM      1  C   UNL     1       3.654  -1.093  -0.493  0.00  0.00    +0.112 A 
ATOM      2  C   UNL     1       3.967  -1.887   0.591  0.00  0.00    +0.138 A 
ATOM      3  N   UNL     1       5.319  -1.788   0.775  0.00  0.00    -0.286 N 
ATOM      4  C   UNL     1       6.168  -2.352   1.688  0.00  0.00    +0.114 A 
ATOM      5  C   UNL     1       7.491  -2.086   1.653  0.00  0.00    +0.058 A 
ATOM      6  C   UNL     1       8.015  -1.223   0.673  0.00  0.00    +0.025 A 
ATOM      7  C   UNL     1       7.184  -0.655  -0.241  0.00  0.00    +0.048 A 
ATOM      8  C   UNL     1       5.803  -0.941  -0.194  0.00  0.00    +0.140 A 
ATOM      9  N   UNL     1       4.791  -0.540  -0.947  0.00  0.00    -0.226 NA
ATOM     10 CL   UNL     1       8.550  -2.811   2.821  0.00  0.00    -0.082 Cl
ENDROOT
BRANCH   1  14
ATOM     11  C   UNL     1      -0.229  -0.513  -2.124  0.00  0.00    +0.000 A 
ATOM     12  C   UNL     1       0.681   0.529  -2.125  0.00  0.00    +0.001 A 
ATOM     13  C   UNL     1       1.943   0.347  -1.597  0.00  0.00    +0.010 A 
ATOM     14  C   UNL     1       2.300  -0.890  -1.062  0.00  0.00    +0.004 A 
ATOM     15  C   UNL     1       1.378  -1.937  -1.064  0.00  0.00    +0.010 A 
ATOM     16  C   UNL     1       0.119  -1.742  -1.595  0.00  0.00    +0.001 A 
ENDBRANCH   1  14
BRANCH   2  17
ATOM     17  N   UNL     1       3.077  -2.643   1.353  0.00  0.00    -0.265 N 
ATOM     18  C   UNL     1       3.141  -3.989   1.324  0.00  0.00    +0.256 C 
ATOM     19  O   UNL     1       4.031  -4.543   0.704  0.00  0.00    -0.269 OA
ATOM     20  H   UNL     1       2.413  -2.201   1.903  0.00  0.00    +0.157 HD
BRANCH  18  21
ATOM     21  C   UNL     1       2.139  -4.786   2.038  0.00  0.00    +0.074 A 
ATOM     22  C   UNL     1       2.029  -6.165   2.139  0.00  0.00    +0.021 A 
ATOM     23  C   UNL     1       0.972  -6.625   2.887  0.00  0.00    +0.008 A 
ATOM     24  C   UNL     1       0.131  -5.730   3.461  0.00  0.00    +0.046 A 
ATOM     25  S   UNL     1       0.750  -4.235   3.010  0.00  0.00    -0.092 S 
ENDBRANCH  18  21
ENDBRANCH   2  17
TORSDOF 3
