REMARK  Name = ZINC19537673
REMARK  8 active torsions:
REMARK  status: ('A' for Active; 'I' for Inactive)
REMARK    1  A    between atoms: C_1  and  C_2
REMARK    2  A    between atoms: C_3  and  N_9
REMARK    3  A    between atoms: C_10  and  C_12
REMARK    4  A    between atoms: C_13  and  N_14
REMARK    5  A    between atoms: C_13  and  C_27
REMARK    6  A    between atoms: N_14  and  N_15
REMARK    7  A    between atoms: C_16  and  C_18
REMARK    8  A    between atoms: C_22  and  N_24
REMARK                            x       y       z     vdW  Elec       q    Type
REMARK                         _______ _______ _______ _____ _____    ______ ____
ROOT
ATOM      1  C   UNL     1      -4.989  -3.087   0.005  0.00  0.00    +0.087 C 
ATOM      2  C   UNL     1      -3.692  -2.320   0.002  0.00  0.00    +0.024 C 
ATOM      3  C   UNL     1      -2.764  -2.413  -1.181  0.00  0.00    +0.062 C 
ENDROOT
BRANCH   1   5
ATOM      4  N   UNL     1      -6.204  -4.627  -1.502  0.00  0.00    -0.282 N 
ATOM      5  C   UNL     1      -5.117  -3.862  -1.281  0.00  0.00    +0.243 C 
ATOM      6  O   UNL     1      -4.241  -3.797  -2.118  0.00  0.00    -0.270 OA
ATOM      7  H   UNL     1      -6.955  -4.758  -0.708  0.00  0.00    +0.155 HD
BRANCH   4  10
ATOM      8  C   UNL     1      -7.797  -6.982  -1.603  0.00  0.00    +0.047 C 
ATOM      9  C   UNL     1      -7.149  -6.406  -2.834  0.00  0.00    -0.011 A 
ATOM     10  C   UNL     1      -6.379  -5.254  -2.740  0.00  0.00    +0.038 A 
ATOM     11  C   UNL     1      -5.778  -4.729  -3.877  0.00  0.00    +0.023 A 
ATOM     12  C   UNL     1      -5.952  -5.350  -5.098  0.00  0.00    +0.003 A 
ATOM     13  C   UNL     1      -6.723  -6.494  -5.191  0.00  0.00    +0.020 A 
ATOM     14  C   UNL     1      -7.324  -7.020  -4.060  0.00  0.00    +0.046 A 
ATOM     15 CL   UNL     1      -8.292  -8.456  -4.181  0.00  0.00    -0.083 Cl
ENDBRANCH   4  10
ENDBRANCH   1   5
BRANCH   2  16
ATOM     16  N   UNL     1      -3.378  -1.588   1.005  0.00  0.00    -0.268 N 
ATOM     17  H   UNL     1      -4.056  -1.520   1.869  0.00  0.00    +0.170 HD
BRANCH  16  18
ATOM     18  N   UNL     1      -2.173  -0.875   1.003  0.00  0.00    -0.233 N 
ATOM     19  C   UNL     1      -1.843  -0.105   2.059  0.00  0.00    +0.260 C 
ATOM     20  O   UNL     1      -2.592  -0.030   3.014  0.00  0.00    -0.269 OA
ATOM     21  H   UNL     1      -1.495  -0.943   0.139  0.00  0.00    +0.173 HD
BRANCH  19  22
ATOM     22  C   UNL     1      -0.571   0.647   2.056  0.00  0.00    +0.040 A 
ATOM     23  C   UNL     1       0.291   0.563   0.961  0.00  0.00    +0.013 A 
ATOM     24  C   UNL     1       1.474   1.272   0.963  0.00  0.00    +0.003 A 
ATOM     25  C   UNL     1       1.810   2.062   2.049  0.00  0.00    +0.033 A 
ATOM     26  C   UNL     1       0.963   2.145   3.139  0.00  0.00    +0.127 A 
ATOM     27  C   UNL     1      -0.224   1.442   3.150  0.00  0.00    +0.045 A 
BRANCH  26  28
ATOM     28  N   UNL     1       1.330   2.992   4.296  0.00  0.00    +0.056 N 
ATOM     29  O   UNL     1       2.377   3.614   4.288  0.00  0.00    -0.126 OA
ATOM     30  O   UNL     1       0.585   3.067   5.257  0.00  0.00    -0.126 OA
ENDBRANCH  26  28
ENDBRANCH  19  22
ENDBRANCH  16  18
ENDBRANCH   2  16
TORSDOF 6
