REMARK  Name = ZINC64020933
REMARK  8 active torsions:
REMARK  status: ('A' for Active; 'I' for Inactive)
REMARK    1  A    between atoms: C_1  and  N_2
REMARK    2  A    between atoms: N_2  and  C_3
REMARK    3  A    between atoms: C_3  and  C_4
REMARK    4  A    between atoms: C_10  and  C_12
REMARK    5  A    between atoms: C_12  and  N_13
REMARK    6  A    between atoms: N_13  and  C_14
REMARK    7  A    between atoms: N_13  and  C_15
REMARK    8  A    between atoms: C_15  and  C_16
REMARK                            x       y       z     vdW  Elec       q    Type
REMARK                         _______ _______ _______ _____ _____    ______ ____
ROOT
ATOM      1  C   UNL     1       0.554   1.789  -0.194  0.00  0.00    +0.132 C 
ATOM      2  N   UNL     1       0.448   0.332  -0.087  0.00  0.00    -0.301 N 
ATOM      3  C   UNL     1       0.284  -0.415  -1.197  0.00  0.00    +0.199 C 
ATOM      4  O   UNL     1       0.196  -1.622  -1.108  0.00  0.00    -0.278 OA
ENDROOT
BRANCH   2   5
ATOM      5  C   UNL     1       0.521  -0.314   1.226  0.00  0.00    +0.149 C 
BRANCH   5   6
ATOM      6  C   UNL     1      -0.864  -0.423   1.810  0.00  0.00    +0.008 A 
ATOM      7  C   UNL     1      -1.764  -1.429   1.688  0.00  0.00    +0.014 A 
ATOM      8  C   UNL     1      -2.990  -1.312   2.318  0.00  0.00    +0.028 A 
ATOM      9  C   UNL     1      -3.254  -0.194   3.040  0.00  0.00    +0.078 A 
ATOM     10  S   UNL     1      -1.742   0.736   2.846  0.00  0.00    -0.080 S 
ATOM     11 CL   UNL     1      -4.687   0.223   3.926  0.00  0.00    -0.076 Cl
ENDBRANCH   5   6
ENDBRANCH   2   5
BRANCH   3  12
ATOM     12  C   UNL     1       0.209   0.248  -2.547  0.00  0.00    +0.018 C 
BRANCH  12  13
ATOM     13  N   UNL     1       0.030  -0.774  -3.587  0.00  0.00    +0.384 N 
ATOM     14  C   UNL     1       1.221  -1.632  -3.640  0.00  0.00    -0.096 C 
ATOM     15  H   UNL     1      -0.779  -1.336  -3.369  0.00  0.00    -0.082 HD
BRANCH  13  16
ATOM     16  C   UNL     1      -0.163  -0.121  -4.888  0.00  0.00    -0.075 C 
BRANCH  16  17
ATOM     17  C   UNL     1      -1.483   0.652  -4.881  0.00  0.00    -0.028 C 
ATOM     18  C   UNL     1      -2.670  -0.330  -4.785  0.00  0.00    +0.002 C 
ATOM     19  C   UNL     1      -3.759   0.303  -5.686  0.00  0.00    +0.000 C 
ATOM     20  C   UNL     1      -2.936   0.876  -6.866  0.00  0.00    +0.000 C 
ATOM     21  C   UNL     1      -1.652   1.419  -6.204  0.00  0.00    +0.002 C 
ENDBRANCH  16  17
ENDBRANCH  13  16
ENDBRANCH  12  13
ENDBRANCH   3  12
TORSDOF 6
