REMARK  Name = ZINC13500209
REMARK  15 active torsions:
REMARK  status: ('A' for Active; 'I' for Inactive)
REMARK    1  A    between atoms: C_1  and  C_2
REMARK    2  A    between atoms: C_4  and  C_37
REMARK    3  A    between atoms: C_9  and  C_14
REMARK    4  A    between atoms: C_14  and  N_15
REMARK    5  A    between atoms: N_15  and  C_16
REMARK    6  A    between atoms: N_15  and  C_23
REMARK    7  A    between atoms: C_16  and  C_17
REMARK    8  A    between atoms: C_23  and  C_25
REMARK    9  A    between atoms: C_23  and  C_34
REMARK   10  A    between atoms: N_29  and  C_30
REMARK   11  A    between atoms: C_30  and  C_31
REMARK   12  A    between atoms: C_30  and  C_32
REMARK   13  A    between atoms: C_30  and  C_33
REMARK   14  A    between atoms: C_34  and  C_35
REMARK   15  A    between atoms: C_34  and  C_36
REMARK                            x       y       z     vdW  Elec       q    Type
REMARK                         _______ _______ _______ _____ _____    ______ ____
ROOT
ATOM      1  N   UNL     1      -0.635  -5.282   2.975  0.00  0.00    -0.284 NA
ENDROOT
BRANCH   1   2
ATOM      2  C   UNL     1       0.505  -4.389   3.220  0.00  0.00    +0.126 C 
BRANCH   2  11
ATOM      3  C   UNL     1      -0.048   1.676  -1.085  0.00  0.00    +0.044 C 
ATOM      4  C   UNL     1       0.476   0.285  -0.834  0.00  0.00    -0.050 A 
ATOM      5  C   UNL     1       1.281  -0.328  -1.785  0.00  0.00    +0.008 A 
ATOM      6  C   UNL     1       1.772  -1.599  -1.577  0.00  0.00    -0.026 A 
ATOM      7  C   UNL     1       1.459  -2.276  -0.403  0.00  0.00    +0.052 A 
ATOM      8  C   UNL     1       0.643  -1.651   0.559  0.00  0.00    -0.001 A 
ATOM      9  C   UNL     1       0.160  -0.358   0.328  0.00  0.00    +0.013 A 
ATOM     10  C   UNL     1       0.319  -2.371   1.792  0.00  0.00    +0.020 A 
ATOM     11  C   UNL     1       0.819  -3.620   1.962  0.00  0.00    +0.031 A 
ATOM     12  C   UNL     1       1.633  -4.202   0.967  0.00  0.00    +0.254 A 
ATOM     13  O   UNL     1       2.072  -5.325   1.141  0.00  0.00    -0.268 OA
ATOM     14  N   UNL     1       1.936  -3.548  -0.168  0.00  0.00    -0.322 N 
ATOM     15  H   UNL     1       2.498  -3.977  -0.832  0.00  0.00    +0.169 HD
ATOM     16  C   UNL     1       2.643  -2.253  -2.618  0.00  0.00    +0.046 C 
ENDBRANCH   2  11
ENDBRANCH   1   2
BRANCH   1  17
ATOM     17  C   UNL     1      -0.737  -6.306   4.025  0.00  0.00    +0.120 C 
BRANCH  17  18
ATOM     18  C   UNL     1      -1.736  -7.354   3.609  0.00  0.00    -0.033 A 
ATOM     19  C   UNL     1      -2.892  -7.536   4.345  0.00  0.00    +0.005 A 
ATOM     20  C   UNL     1      -3.810  -8.498   3.964  0.00  0.00    +0.000 A 
ATOM     21  C   UNL     1      -3.571  -9.276   2.847  0.00  0.00    +0.000 A 
ATOM     22  C   UNL     1      -2.416  -9.093   2.111  0.00  0.00    +0.000 A 
ATOM     23  C   UNL     1      -1.501  -8.129   2.489  0.00  0.00    +0.005 A 
ENDBRANCH  17  18
ENDBRANCH   1  17
BRANCH   1  24
ATOM     24  C   UNL     1      -1.886  -4.521   2.860  0.00  0.00    +0.130 C 
BRANCH  24  25
ATOM     25  C   UNL     1      -2.910  -5.345   2.123  0.00  0.00    +0.169 A 
ATOM     26  N   UNL     1      -3.932  -5.975   2.649  0.00  0.00    -0.112 NA
ATOM     27  N   UNL     1      -4.570  -6.563   1.696  0.00  0.00    -0.023 NA
ATOM     28  N   UNL     1      -3.980  -6.325   0.577  0.00  0.00    -0.043 NA
ATOM     29  N   UNL     1      -2.956  -5.573   0.798  0.00  0.00    -0.222 N 
BRANCH  29  30
ATOM     30  C   UNL     1      -2.016  -5.065  -0.205  0.00  0.00    +0.059 C 
ATOM     31  C   UNL     1      -0.630  -5.662   0.045  0.00  0.00    +0.036 C 
ATOM     32  C   UNL     1      -2.498  -5.462  -1.602  0.00  0.00    +0.036 C 
ATOM     33  C   UNL     1      -1.940  -3.540  -0.107  0.00  0.00    +0.036 C 
ENDBRANCH  29  30
ENDBRANCH  24  25
BRANCH  24  34
ATOM     34  C   UNL     1      -2.410  -4.186   4.258  0.00  0.00    +0.008 C 
ATOM     35  C   UNL     1      -1.335  -3.426   5.037  0.00  0.00    +0.009 C 
ATOM     36  C   UNL     1      -3.663  -3.317   4.138  0.00  0.00    +0.009 C 
ENDBRANCH  24  34
ENDBRANCH   1  24
TORSDOF 8
