REMARK  Name = ZINC41511284
REMARK  9 active torsions:
REMARK  status: ('A' for Active; 'I' for Inactive)
REMARK    1  A    between atoms: C_1  and  C_2
REMARK    2  A    between atoms: C_4  and  O_31
REMARK    3  A    between atoms: C_5  and  C_22
REMARK    4  A    between atoms: C_11  and  C_12
REMARK    5  A    between atoms: C_15  and  C_18
REMARK    6  A    between atoms: C_18  and  C_19
REMARK    7  A    between atoms: C_18  and  C_20
REMARK    8  A    between atoms: C_22  and  N_23
REMARK    9  A    between atoms: C_28  and  C_30
REMARK                            x       y       z     vdW  Elec       q    Type
REMARK                         _______ _______ _______ _____ _____    ______ ____
ROOT
ATOM      1  C   UNL     1       0.373   1.463  -0.007  0.00  0.00    +0.045 C 
ATOM      2  C   UNL     1       0.066  -0.013  -0.002  0.00  0.00    -0.033 A 
ATOM      3  C   UNL     1      -0.152  -0.671  -1.179  0.00  0.00    +0.050 A 
ATOM      4  C   UNL     1      -0.436  -2.034  -1.175  0.00  0.00    +0.122 A 
ATOM      5  C   UNL     1      -0.500  -2.738   0.017  0.00  0.00    +0.020 A 
ATOM      6  C   UNL     1      -0.280  -2.084   1.222  0.00  0.00    +0.145 A 
ATOM      7  C   UNL     1       0.010  -0.710   1.206  0.00  0.00    +0.071 A 
ATOM      8  C   UNL     1       0.198  -0.308   2.612  0.00  0.00    +0.232 C 
ATOM      9  O   UNL     1       0.460   0.802   3.042  0.00  0.00    -0.283 OA
ATOM     10  C   UNL     1      -0.004  -1.548   3.379  0.00  0.00    +0.176 C 
ATOM     11  C   UNL     1       0.069  -1.676   4.727  0.00  0.00    +0.058 C 
ATOM     12  O   UNL     1      -0.285  -2.534   2.496  0.00  0.00    -0.451 OA
ENDROOT
BRANCH  11  13
ATOM     13  C   UNL     1      -0.017  -3.007   5.344  0.00  0.00    -0.021 A 
ATOM     14  C   UNL     1      -0.004  -4.156   4.545  0.00  0.00    +0.008 A 
ATOM     15  C   UNL     1      -0.085  -5.401   5.131  0.00  0.00    +0.004 A 
ATOM     16  C   UNL     1      -0.180  -5.516   6.508  0.00  0.00    -0.045 A 
ATOM     17  C   UNL     1      -0.195  -4.386   7.306  0.00  0.00    +0.004 A 
ATOM     18  C   UNL     1      -0.108  -3.134   6.735  0.00  0.00    +0.008 A 
BRANCH  16  19
ATOM     19  C   UNL     1      -0.269  -6.881   7.140  0.00  0.00    +0.013 C 
ATOM     20  C   UNL     1       0.914  -7.081   8.090  0.00  0.00    +0.012 C 
ATOM     21  C   UNL     1      -1.578  -6.996   7.924  0.00  0.00    +0.012 C 
ENDBRANCH  16  19
ENDBRANCH  11  13
BRANCH   4  22
ATOM     22  O   UNL     1      -0.653  -2.679  -2.350  0.00  0.00    -0.506 OA
ATOM     23  H   UNL     1       0.147  -3.045  -2.751  0.00  0.00    +0.292 HD
ENDBRANCH   4  22
BRANCH   5  24
ATOM     24  C   UNL     1      -0.809  -4.213   0.005  0.00  0.00    -0.035 C 
BRANCH  24  25
ATOM     25  N   UNL     1       0.443  -4.974  -0.093  0.00  0.00    +0.384 N 
ATOM     26  C   UNL     1       1.086  -4.693  -1.383  0.00  0.00    -0.078 C 
ATOM     27  C   UNL     1       2.430  -5.421  -1.457  0.00  0.00    -0.019 C 
ATOM     28  C   UNL     1       2.197  -6.928  -1.319  0.00  0.00    -0.003 C 
ATOM     29  C   UNL     1       1.460  -7.202  -0.004  0.00  0.00    -0.016 C 
ATOM     30  C   UNL     1       0.152  -6.409   0.016  0.00  0.00    -0.071 C 
ATOM     31  C   UNL     1      -0.588  -6.680   1.327  0.00  0.00    -0.013 C 
ATOM     32  H   UNL     1       1.062  -4.700   0.655  0.00  0.00    -0.081 HD
ENDBRANCH  24  25
ENDBRANCH   5  24
TORSDOF 5
