REMARK  Name = ZINC08807506
REMARK  8 active torsions:
REMARK  status: ('A' for Active; 'I' for Inactive)
REMARK    1  A    between atoms: C_1  and  C_2
REMARK    2  A    between atoms: C_2  and  N_3
REMARK    3  A    between atoms: C_11  and  S_12
REMARK    4  A    between atoms: S_12  and  C_13
REMARK    5  A    between atoms: C_13  and  C_14
REMARK    6  A    between atoms: N_16  and  C_17
REMARK    7  A    between atoms: C_21  and  N_24
REMARK    8  A    between atoms: C_22  and  C_23
REMARK                            x       y       z     vdW  Elec       q    Type
REMARK                         _______ _______ _______ _____ _____    ______ ____
ROOT
ATOM      1  C   UNL     1       3.131   5.440   3.549  0.00  0.00    +0.227 C 
ATOM      2  O   UNL     1       3.047   6.250   2.650  0.00  0.00    -0.275 OA
ATOM      3  N   UNL     1       4.132   5.532   4.447  0.00  0.00    -0.285 N 
ATOM      4  H   UNL     1       4.158   4.931   5.208  0.00  0.00    +0.155 HD
ENDROOT
BRANCH   3   5
ATOM      5  C   UNL     1       5.134   6.495   4.282  0.00  0.00    +0.038 A 
ATOM      6  C   UNL     1       5.351   7.066   3.035  0.00  0.00    +0.024 A 
ATOM      7  C   UNL     1       6.340   8.017   2.875  0.00  0.00    +0.004 A 
ATOM      8  C   UNL     1       7.114   8.400   3.956  0.00  0.00    +0.033 A 
ATOM      9  C   UNL     1       6.900   7.833   5.199  0.00  0.00    +0.131 A 
ATOM     10  C   UNL     1       5.909   6.885   5.366  0.00  0.00    +0.001 A 
ATOM     11  C   UNL     1       5.672   6.272   6.722  0.00  0.00    +0.048 C 
BRANCH   9  12
ATOM     12  N   UNL     1       7.731   8.245   6.352  0.00  0.00    +0.057 N 
ATOM     13  O   UNL     1       8.507   9.177   6.241  0.00  0.00    -0.126 OA
ATOM     14  O   UNL     1       7.638   7.652   7.412  0.00  0.00    -0.126 OA
ENDBRANCH   9  12
ENDBRANCH   3   5
BRANCH   1  15
ATOM     15  C   UNL     1       2.117   4.331   3.662  0.00  0.00    +0.173 C 
BRANCH  15  16
ATOM     16  S   UNL     1       0.911   4.478   2.320  0.00  0.00    -0.078 S 
BRANCH  16  25
ATOM     17  N   UNL     1      -1.224   2.730   1.966  0.00  0.00    -0.319 N 
ATOM     18  C   UNL     1      -1.757   1.607   2.578  0.00  0.00    +0.069 A 
ATOM     19  C   UNL     1      -2.854   0.800   2.317  0.00  0.00    +0.028 A 
ATOM     20  C   UNL     1      -3.126  -0.276   3.137  0.00  0.00    +0.002 A 
ATOM     21  C   UNL     1      -2.309  -0.556   4.223  0.00  0.00    +0.002 A 
ATOM     22  C   UNL     1      -1.210   0.230   4.492  0.00  0.00    +0.030 A 
ATOM     23  C   UNL     1      -0.924   1.326   3.673  0.00  0.00    +0.090 A 
ATOM     24  N   UNL     1       0.051   2.272   3.688  0.00  0.00    -0.222 NA
ATOM     25  C   UNL     1      -0.122   3.098   2.686  0.00  0.00    +0.170 A 
BRANCH  17  27
ATOM     26  C   UNL     1      -1.104   2.795  -0.476  0.00  0.00    +0.027 C 
ATOM     27  C   UNL     1      -1.747   3.401   0.773  0.00  0.00    +0.121 C 
ENDBRANCH  17  27
ENDBRANCH  16  25
ENDBRANCH  15  16
ENDBRANCH   1  15
TORSDOF 6
