REMARK  Name = ZINC36028152
REMARK  11 active torsions:
REMARK  status: ('A' for Active; 'I' for Inactive)
REMARK    1  A    between atoms: C_1  and  C_2
REMARK    2  A    between atoms: C_2  and  C_3
REMARK    3  A    between atoms: C_3  and  C_5
REMARK    4  A    between atoms: C_3  and  C_6
REMARK    5  A    between atoms: N_10  and  C_29
REMARK    6  A    between atoms: N_15  and  S_18
REMARK    7  A    between atoms: S_18  and  C_21
REMARK    8  A    between atoms: C_29  and  C_30
REMARK    9  A    between atoms: C_30  and  C_31
REMARK   10  A    between atoms: C_31  and  O_32
REMARK   11  A    between atoms: O_32  and  C_33
REMARK                            x       y       z     vdW  Elec       q    Type
REMARK                         _______ _______ _______ _____ _____    ______ ____
ROOT
ATOM      1  C   UNL     1       1.010  -2.317  -1.760  0.00  0.00    +0.022 C 
ATOM      2  C   UNL     1      -0.476  -2.590  -1.689  0.00  0.00    +0.201 C 
ATOM      3  O   UNL     1      -1.265  -2.031  -0.955  0.00  0.00    -0.277 OA
ATOM      4  N   UNL     1      -0.778  -3.558  -2.579  0.00  0.00    -0.314 N 
ATOM      5  C   UNL     1       0.442  -3.983  -3.271  0.00  0.00    +0.006 C 
ATOM      6  N   UNL     1       1.446  -2.920  -3.043  0.00  0.00    +0.401 N 
ATOM      7  C   UNL     1       0.949  -5.301  -2.688  0.00  0.00    +0.023 C 
ATOM      8  C   UNL     1      -0.113  -6.387  -2.891  0.00  0.00    +0.109 C 
ATOM      9  N   UNL     1      -0.465  -6.442  -4.317  0.00  0.00    -0.177 NA
ATOM     10  C   UNL     1      -0.892  -5.208  -4.989  0.00  0.00    +0.109 C 
ATOM     11  C   UNL     1       0.176  -4.131  -4.767  0.00  0.00    +0.023 C 
ATOM     12  H   UNL     1       1.417  -2.237  -3.786  0.00  0.00    -0.082 HD
ATOM     13  H   UNL     1       2.371  -3.314  -2.956  0.00  0.00    -0.082 HD
ENDROOT
BRANCH   9  14
ATOM     14  S   UNL     1      -0.381  -7.871  -5.151  0.00  0.00    +0.061 S 
ATOM     15  O   UNL     1      -0.220  -7.532  -6.521  0.00  0.00    -0.153 OA
ATOM     16  O   UNL     1       0.547  -8.693  -4.456  0.00  0.00    -0.153 OA
BRANCH  14  17
ATOM     17  C   UNL     1      -1.953  -8.652  -5.006  0.00  0.00    +0.107 A 
ATOM     18  C   UNL     1      -2.203  -9.512  -3.953  0.00  0.00    +0.030 A 
ATOM     19  C   UNL     1      -3.436 -10.126  -3.838  0.00  0.00    +0.023 A 
ATOM     20  C   UNL     1      -4.421  -9.880  -4.777  0.00  0.00    +0.059 A 
ATOM     21  C   UNL     1      -4.171  -9.018  -5.832  0.00  0.00    +0.061 A 
ATOM     22  C   UNL     1      -2.938  -8.400  -5.942  0.00  0.00    +0.050 A 
ATOM     23 CL   UNL     1      -5.407  -8.708  -7.011  0.00  0.00    -0.082 Cl
ATOM     24 CL   UNL     1      -5.970 -10.651  -4.634  0.00  0.00    -0.082 Cl
ENDBRANCH  14  17
ENDBRANCH   9  14
BRANCH   1  25
ATOM     25  C   UNL     1       1.276  -0.810  -1.762  0.00  0.00    -0.020 C 
ATOM     26  C   UNL     1       2.778  -0.558  -1.909  0.00  0.00    +0.006 C 
BRANCH  25  28
ATOM     27  C   UNL     1       0.936   1.317  -0.497  0.00  0.00    +0.004 C 
ATOM     28  C   UNL     1       0.784  -0.204  -0.446  0.00  0.00    -0.001 C 
ENDBRANCH  25  28
ENDBRANCH   1  25
BRANCH   4  29
ATOM     29  C   UNL     1      -2.117  -4.101  -2.816  0.00  0.00    +0.108 C 
BRANCH  29  30
ATOM     30  C   UNL     1      -2.826  -3.263  -3.882  0.00  0.00    +0.047 C 
BRANCH  30  31
ATOM     31  C   UNL     1      -4.169  -3.908  -4.229  0.00  0.00    +0.161 C 
BRANCH  31  32
ATOM     32  O   UNL     1      -4.831  -3.126  -5.225  0.00  0.00    -0.383 OA
ATOM     33  C   UNL     1      -6.101  -3.644  -5.622  0.00  0.00    +0.193 C 
ENDBRANCH  31  32
ENDBRANCH  30  31
ENDBRANCH  29  30
ENDBRANCH   4  29
TORSDOF 8
