REMARK  Name = ZINC13122227
REMARK  7 active torsions:
REMARK  status: ('A' for Active; 'I' for Inactive)
REMARK    1  A    between atoms: C_1  and  C_2
REMARK    2  A    between atoms: C_3  and  C_25
REMARK    3  A    between atoms: C_4  and  C_17
REMARK    4  A    between atoms: C_9  and  C_11
REMARK    5  A    between atoms: C_20  and  O_23
REMARK    6  A    between atoms: O_23  and  C_24
REMARK    7  A    between atoms: N_27  and  C_28
REMARK                            x       y       z     vdW  Elec       q    Type
REMARK                         _______ _______ _______ _____ _____    ______ ____
ROOT
ATOM      1  C   UNL     1      -0.019   1.503   0.008  0.00  0.00    +0.061 C 
ATOM      2  C   UNL     1       0.002  -0.004  -0.008  0.00  0.00    +0.018 C 
ATOM      3  C   UNL     1      -1.163  -0.667  -0.005  0.00  0.00    +0.060 C 
ATOM      4  C   UNL     1      -1.253  -2.170  -0.033  0.00  0.00    +0.177 C 
ATOM      5  N   UNL     1       0.065  -2.741   0.231  0.00  0.00    -0.220 N 
ATOM      6  C   UNL     1       1.212  -2.016   0.225  0.00  0.00    +0.219 A 
ATOM      7  N   UNL     1       2.204  -2.821   0.488  0.00  0.00    -0.193 NA
ATOM      8  C   UNL     1       1.734  -4.068   0.674  0.00  0.00    +0.190 A 
ATOM      9  N   UNL     1       0.422  -4.056   0.524  0.00  0.00    -0.147 NA
ATOM     10  N   UNL     1       1.213  -0.651  -0.031  0.00  0.00    -0.287 N 
ATOM     11  H   UNL     1       2.037  -0.172  -0.215  0.00  0.00    +0.155 HD
ENDROOT
BRANCH   4  12
ATOM     12  C   UNL     1      -1.734  -2.619  -1.389  0.00  0.00    -0.018 A 
ATOM     13  C   UNL     1      -0.998  -2.312  -2.518  0.00  0.00    +0.009 A 
ATOM     14  C   UNL     1      -1.436  -2.723  -3.762  0.00  0.00    +0.046 A 
ATOM     15  C   UNL     1      -2.615  -3.444  -3.878  0.00  0.00    +0.120 A 
ATOM     16  C   UNL     1      -3.351  -3.752  -2.743  0.00  0.00    +0.046 A 
ATOM     17  C   UNL     1      -2.906  -3.343  -1.500  0.00  0.00    +0.009 A 
BRANCH  15  18
ATOM     18  O   UNL     1      -3.049  -3.849  -5.101  0.00  0.00    -0.495 OA
ATOM     19  C   UNL     1      -4.271  -4.588  -5.144  0.00  0.00    +0.277 C 
ENDBRANCH  15  18
ENDBRANCH   4  12
BRANCH   8  20
ATOM     20  C   UNL     1       2.553  -5.257   0.993  0.00  0.00    +0.058 A 
ATOM     21  C   UNL     1       3.907  -5.349   1.168  0.00  0.00    +0.019 A 
ATOM     22  C   UNL     1       4.454  -6.579   1.463  0.00  0.00    +0.008 A 
ATOM     23  C   UNL     1       3.637  -7.658   1.570  0.00  0.00    +0.046 A 
ATOM     24  S   UNL     1       2.032  -6.944   1.256  0.00  0.00    -0.093 S 
ENDBRANCH   8  20
BRANCH   3  25
ATOM     25  C   UNL     1      -2.364   0.080   0.026  0.00  0.00    +0.248 C 
ATOM     26  O   UNL     1      -2.324   1.296   0.049  0.00  0.00    -0.270 OA
ATOM     27  N   UNL     1      -3.553  -0.556   0.029  0.00  0.00    -0.280 N 
ATOM     28  H   UNL     1      -3.587  -1.521  -0.057  0.00  0.00    +0.155 HD
BRANCH  27  29
ATOM     29  C   UNL     1      -4.737   0.177   0.157  0.00  0.00    +0.052 A 
ATOM     30  C   UNL     1      -4.852   1.441  -0.418  0.00  0.00    +0.026 A 
ATOM     31  C   UNL     1      -6.045   2.128  -0.264  0.00  0.00    +0.021 A 
ATOM     32  C   UNL     1      -7.074   1.542   0.450  0.00  0.00    +0.111 A 
ATOM     33  N   UNL     1      -6.934   0.344   0.983  0.00  0.00    -0.261 NA
ATOM     34  C   UNL     1      -5.818  -0.346   0.855  0.00  0.00    +0.134 A 
ENDBRANCH  27  29
ENDBRANCH   3  25
TORSDOF 5
