REMARK  Name = ZINC41032762
REMARK  5 active torsions:
REMARK  status: ('A' for Active; 'I' for Inactive)
REMARK    1  A    between atoms: C_8  and  C_13
REMARK    2  A    between atoms: N_9  and  C_10
REMARK    3  A    between atoms: C_10  and  C_11
REMARK    4  A    between atoms: C_11  and  O_12
REMARK    5  A    between atoms: C_13  and  N_19
REMARK                            x       y       z     vdW  Elec       q    Type
REMARK                         _______ _______ _______ _____ _____    ______ ____
ROOT
ATOM      1  C   UNL     1      -0.105   1.279   0.905  0.00  0.00    +0.002 A 
ATOM      2  C   UNL     1       1.074   2.001   1.028  0.00  0.00    +0.002 A 
ATOM      3  C   UNL     1       2.290   1.402   0.777  0.00  0.00    +0.028 A 
ATOM      4  C   UNL     1       2.333   0.067   0.399  0.00  0.00    +0.069 A 
ATOM      5  C   UNL     1       1.139  -0.664   0.275  0.00  0.00    +0.089 A 
ATOM      6  C   UNL     1      -0.082  -0.035   0.534  0.00  0.00    +0.030 A 
ATOM      7  N   UNL     1       1.483  -1.922  -0.103  0.00  0.00    -0.234 NA
ATOM      8  C   UNL     1       2.776  -2.007  -0.215  0.00  0.00    +0.099 A 
ATOM      9  N   UNL     1       3.351  -0.810   0.083  0.00  0.00    -0.326 N 
ENDROOT
BRANCH   8  10
ATOM     10  C   UNL     1       3.528  -3.250  -0.615  0.00  0.00    -0.011 C 
ATOM     11  C   UNL     1       4.171  -3.038  -1.987  0.00  0.00    -0.005 C 
ATOM     12  C   UNL     1       4.934  -4.300  -2.394  0.00  0.00    -0.001 C 
ATOM     13  C   UNL     1       3.966  -5.482  -2.462  0.00  0.00    -0.000 C 
ATOM     14  C   UNL     1       3.323  -5.695  -1.089  0.00  0.00    -0.001 C 
ATOM     15  C   UNL     1       2.560  -4.433  -0.683  0.00  0.00    -0.005 C 
BRANCH  10  16
ATOM     16  N   UNL     1       4.574  -3.530   0.377  0.00  0.00    +0.387 N 
ATOM     17  H   UNL     1       4.168  -3.543   1.301  0.00  0.00    -0.089 HD
ATOM     18  H   UNL     1       4.992  -4.428   0.182  0.00  0.00    -0.089 HD
ATOM     19  H   UNL     1       5.283  -2.813   0.332  0.00  0.00    -0.089 HD
ENDBRANCH  10  16
ENDBRANCH   8  10
BRANCH   9  20
ATOM     20  C   UNL     1       4.785  -0.508   0.069  0.00  0.00    +0.151 C 
BRANCH  20  21
ATOM     21  C   UNL     1       5.348  -0.645   1.485  0.00  0.00    +0.177 C 
BRANCH  21  22
ATOM     22  O   UNL     1       6.728  -0.277   1.487  0.00  0.00    -0.393 OA
ATOM     23  H   UNL     1       7.151  -0.339   2.354  0.00  0.00    +0.209 HD
ENDBRANCH  21  22
ENDBRANCH  20  21
ENDBRANCH   9  20
TORSDOF 5
