REMARK  Name = ZINC39632039
REMARK  16 active torsions:
REMARK  status: ('A' for Active; 'I' for Inactive)
REMARK    1  A    between atoms: C_1  and  C_2
REMARK    2  A    between atoms: C_2  and  C_4
REMARK    3  A    between atoms: C_2  and  N_11
REMARK    4  A    between atoms: C_4  and  C_5
REMARK    5  A    between atoms: C_5  and  C_6
REMARK    6  A    between atoms: C_6  and  C_7
REMARK    7  A    between atoms: C_7  and  C_8
REMARK    8  A    between atoms: C_7  and  C_9
REMARK    9  A    between atoms: C_7  and  O_10
REMARK   10  A    between atoms: C_12  and  C_14
REMARK   11  A    between atoms: C_25  and  C_27
REMARK   12  A    between atoms: C_27  and  C_29
REMARK   13  A    between atoms: C_27  and  O_32
REMARK   14  A    between atoms: C_29  and  C_30
REMARK   15  A    between atoms: C_29  and  C_31
REMARK   16  A    between atoms: O_32  and  C_33
REMARK                            x       y       z     vdW  Elec       q    Type
REMARK                         _______ _______ _______ _____ _____    ______ ____
ROOT
ATOM      1  C   UNL     1      -2.973  -0.945  -1.782  0.00  0.00    +0.100 C 
ATOM      2  C   UNL     1      -4.050  -0.385  -0.825  0.00  0.00    +0.121 C 
ATOM      3  N   UNL     1      -4.874   0.509  -1.671  0.00  0.00    -0.297 N 
ATOM      4  C   UNL     1      -4.986  -0.207  -2.965  0.00  0.00    +0.115 C 
ATOM      5  C   UNL     1      -3.593  -0.830  -3.184  0.00  0.00    -0.004 C 
ATOM      6  C   UNL     1      -3.727  -2.212  -3.818  0.00  0.00    -0.010 C 
ATOM      7  C   UNL     1      -4.291  -2.067  -5.234  0.00  0.00    -0.082 C 
ATOM      8  N   UNL     1      -3.396  -1.223  -6.035  0.00  0.00    +0.379 N 
ATOM      9  C   UNL     1      -3.347   0.132  -5.471  0.00  0.00    -0.082 C 
ATOM     10  C   UNL     1      -2.743   0.080  -4.065  0.00  0.00    -0.010 C 
ATOM     11  C   UNL     1      -5.403   1.704  -1.341  0.00  0.00    +0.257 C 
ATOM     12  O   UNL     1      -6.149   2.271  -2.111  0.00  0.00    -0.272 OA
ATOM     13  H   UNL     1      -2.469  -1.621  -6.033  0.00  0.00    -0.086 HD
ATOM     14  H   UNL     1      -3.737  -1.179  -6.984  0.00  0.00    -0.086 HD
ENDROOT
BRANCH   1  16
ATOM     15  N   UNL     1      -0.516  -0.697  -1.911  0.00  0.00    -0.312 N 
ATOM     16  C   UNL     1      -1.715  -0.121  -1.696  0.00  0.00    +0.218 C 
ATOM     17  O   UNL     1      -1.780   1.061  -1.432  0.00  0.00    -0.275 OA
ATOM     18  H   UNL     1      -0.467  -1.624  -2.194  0.00  0.00    +0.149 HD
BRANCH  15  20
ATOM     19  C   UNL     1       1.157  -0.028  -0.256  0.00  0.00    +0.028 C 
ATOM     20  C   UNL     1       0.714   0.075  -1.717  0.00  0.00    +0.070 C 
BRANCH  20  21
ATOM     21  C   UNL     1       1.814  -0.481  -2.624  0.00  0.00    +0.022 C 
BRANCH  21  22
ATOM     22  C   UNL     1       1.426  -0.264  -4.088  0.00  0.00    +0.005 C 
BRANCH  22  23
ATOM     23  C   UNL     1       2.526  -0.820  -4.995  0.00  0.00    +0.034 C 
BRANCH  23  24
ATOM     24  C   UNL     1       2.138  -0.603  -6.459  0.00  0.00    +0.061 C 
ATOM     25  C   UNL     1       1.966   0.894  -6.725  0.00  0.00    +0.041 C 
ATOM     26  C   UNL     1       3.237  -1.159  -7.366  0.00  0.00    +0.041 C 
BRANCH  24  27
ATOM     27  O   UNL     1       0.908  -1.280  -6.731  0.00  0.00    -0.389 OA
ATOM     28  H   UNL     1       0.944  -2.235  -6.584  0.00  0.00    +0.210 HD
ENDBRANCH  24  27
ENDBRANCH  23  24
ENDBRANCH  22  23
ENDBRANCH  21  22
ENDBRANCH  20  21
ENDBRANCH  15  20
ENDBRANCH   1  16
BRANCH  11  29
ATOM     29  C   UNL     1      -5.068   2.335  -0.014  0.00  0.00    +0.261 C 
BRANCH  29  30
ATOM     30  C   UNL     1      -5.988   1.766   1.069  0.00  0.00    +0.033 C 
ATOM     31  C   UNL     1      -5.683   2.445   2.405  0.00  0.00    +0.011 C 
ATOM     32  C   UNL     1      -7.446   2.024   0.686  0.00  0.00    +0.011 C 
ENDBRANCH  29  30
BRANCH  29  33
ATOM     33  O   UNL     1      -3.708   2.050   0.319  0.00  0.00    -0.479 OA
BRANCH  33  34
ATOM     34  C   UNL     1      -3.018   3.019   0.977  0.00  0.00    +0.122 A 
ATOM     35  C   UNL     1      -1.696   2.805   1.341  0.00  0.00    +0.045 A 
ATOM     36  C   UNL     1      -0.997   3.791   2.009  0.00  0.00    +0.004 A 
ATOM     37  C   UNL     1      -1.613   4.991   2.316  0.00  0.00    +0.000 A 
ATOM     38  C   UNL     1      -2.930   5.206   1.954  0.00  0.00    +0.004 A 
ATOM     39  C   UNL     1      -3.632   4.225   1.280  0.00  0.00    +0.045 A 
ENDBRANCH  33  34
ENDBRANCH  29  33
ENDBRANCH  11  29
TORSDOF 11
