REMARK  Name = ZINC00962583
REMARK  9 active torsions:
REMARK  status: ('A' for Active; 'I' for Inactive)
REMARK    1  A    between atoms: C_3  and  C_11
REMARK    2  A    between atoms: C_6  and  N_7
REMARK    3  A    between atoms: N_13  and  C_14
REMARK    4  A    between atoms: N_13  and  C_30
REMARK    5  A    between atoms: C_14  and  C_15
REMARK    6  A    between atoms: C_17  and  C_20
REMARK    7  A    between atoms: N_22  and  C_23
REMARK    8  A    between atoms: C_23  and  C_24
REMARK    9  A    between atoms: C_30  and  C_31
REMARK                            x       y       z     vdW  Elec       q    Type
REMARK                         _______ _______ _______ _____ _____    ______ ____
ROOT
ATOM      1  C   UNL     1      -2.522   3.870  -0.133  0.00  0.00    +0.249 C 
ATOM      2  O   UNL     1      -2.517   5.078  -0.003  0.00  0.00    -0.270 OA
ATOM      3  N   UNL     1      -3.681   3.188  -0.048  0.00  0.00    -0.286 N 
ENDROOT
BRANCH   1   6
ATOM      4  C   UNL     1       0.119   1.201  -0.098  0.00  0.00    +0.033 A 
ATOM      5  C   UNL     1      -1.066   1.867   0.136  0.00  0.00    +0.017 A 
ATOM      6  C   UNL     1      -1.257   3.148  -0.384  0.00  0.00    +0.055 A 
ATOM      7  C   UNL     1      -0.249   3.743  -1.147  0.00  0.00    +0.055 A 
ATOM      8  C   UNL     1       0.930   3.063  -1.378  0.00  0.00    +0.053 A 
ATOM      9  C   UNL     1       1.114   1.796  -0.855  0.00  0.00    +0.128 A 
ATOM     10 CL   UNL     1      -0.479   5.334  -1.804  0.00  0.00    -0.083 Cl
BRANCH   9  11
ATOM     11  N   UNL     1       2.381   1.072  -1.106  0.00  0.00    +0.056 N 
ATOM     12  O   UNL     1       2.546  -0.044  -0.647  0.00  0.00    -0.126 OA
ATOM     13  O   UNL     1       3.258   1.593  -1.771  0.00  0.00    -0.126 OA
ENDBRANCH   9  11
ENDBRANCH   1   6
BRANCH   3  14
ATOM     14  C   UNL     1      -4.952   3.911   0.052  0.00  0.00    +0.204 C 
BRANCH  14  15
ATOM     15  C   UNL     1      -5.495   4.165  -1.331  0.00  0.00    +0.213 A 
ATOM     16  N   UNL     1      -6.284   3.368  -1.987  0.00  0.00    -0.207 NA
ATOM     17  C   UNL     1      -6.562   3.934  -3.193  0.00  0.00    +0.164 A 
ATOM     18  C   UNL     1      -5.893   5.119  -3.243  0.00  0.00    +0.230 A 
ATOM     19  O   UNL     1      -5.235   5.246  -2.079  0.00  0.00    -0.445 OA
BRANCH  17  20
ATOM     20  C   UNL     1      -7.422   3.369  -4.248  0.00  0.00    +0.266 C 
ATOM     21  O   UNL     1      -7.587   3.977  -5.288  0.00  0.00    -0.268 OA
ATOM     22  N   UNL     1      -8.025   2.179  -4.060  0.00  0.00    -0.308 N 
ATOM     23  H   UNL     1      -7.894   1.694  -3.230  0.00  0.00    +0.149 HD
BRANCH  22  24
ATOM     24  C   UNL     1      -8.880   1.617  -5.109  0.00  0.00    +0.136 C 
BRANCH  24  25
ATOM     25  C   UNL     1      -9.437   0.269  -4.645  0.00  0.00    +0.135 C 
ATOM     26  C   UNL     1     -10.240  -0.401  -5.782  0.00  0.00    +0.035 C 
ATOM     27  C   UNL     1     -11.422  -1.081  -5.056  0.00  0.00    +0.031 C 
ATOM     28  C   UNL     1     -11.194  -0.742  -3.567  0.00  0.00    +0.160 C 
ATOM     29  O   UNL     1     -10.395   0.461  -3.580  0.00  0.00    -0.375 OA
ENDBRANCH  24  25
ENDBRANCH  22  24
ENDBRANCH  17  20
ENDBRANCH  14  15
ENDBRANCH   3  14
BRANCH   3  30
ATOM     30  C   UNL     1      -3.671   1.722  -0.055  0.00  0.00    +0.140 C 
BRANCH  30  31
ATOM     31  C   UNL     1      -3.905   1.204   1.366  0.00  0.00    +0.136 C 
ATOM     32  C   UNL     1      -3.774  -0.335   1.405  0.00  0.00    +0.035 C 
ATOM     33  C   UNL     1      -4.859  -0.778   2.411  0.00  0.00    +0.031 C 
ATOM     34  C   UNL     1      -5.518   0.545   2.861  0.00  0.00    +0.160 C 
ATOM     35  O   UNL     1      -5.262   1.470   1.781  0.00  0.00    -0.375 OA
ENDBRANCH  30  31
ENDBRANCH   3  30
TORSDOF 9
