REMARK  Name = ZINC43209976
REMARK  3 active torsions:
REMARK  status: ('A' for Active; 'I' for Inactive)
REMARK    1  A    between atoms: C_2  and  C_12
REMARK    2  A    between atoms: C_4  and  C_6
REMARK    3  A    between atoms: N_14  and  C_15
REMARK                            x       y       z     vdW  Elec       q    Type
REMARK                         _______ _______ _______ _____ _____    ______ ____
ROOT
ATOM      1  C   UNL     1       1.753   3.149   0.002  0.00  0.00    +0.266 C 
ATOM      2  O   UNL     1       0.951   4.063   0.014  0.00  0.00    -0.268 OA
ATOM      3  N   UNL     1       3.075   3.413  -0.010  0.00  0.00    -0.307 N 
ATOM      4  H   UNL     1       3.715   2.684  -0.020  0.00  0.00    +0.149 HD
ENDROOT
BRANCH   3   5
ATOM      5  C   UNL     1       3.545   4.800  -0.008  0.00  0.00    +0.079 C 
ATOM      6  C   UNL     1       3.576   5.331  -1.443  0.00  0.00    +0.010 C 
ATOM      7  C   UNL     1       4.067   6.780  -1.440  0.00  0.00    +0.009 C 
ATOM      8  C   UNL     1       5.474   6.840  -0.844  0.00  0.00    -0.010 C 
ATOM      9  C   UNL     1       6.422   5.982  -1.685  0.00  0.00    +0.007 C 
ATOM     10  C   UNL     1       5.931   4.533  -1.687  0.00  0.00    -0.010 C 
ATOM     11  C   UNL     1       4.523   4.472  -2.284  0.00  0.00    +0.009 C 
ATOM     12  C   UNL     1       5.900   4.002  -0.253  0.00  0.00    +0.009 C 
ATOM     13  C   UNL     1       4.953   4.861   0.588  0.00  0.00    +0.010 C 
ATOM     14  C   UNL     1       5.444   6.310   0.591  0.00  0.00    +0.009 C 
ENDBRANCH   3   5
BRANCH   1  16
ATOM     15  C   UNL     1      -0.016   1.338   0.009  0.00  0.00    +0.230 A 
ATOM     16  C   UNL     1       1.280   1.753  -0.001  0.00  0.00    +0.163 A 
ATOM     17  N   UNL     1       2.057   0.636  -0.014  0.00  0.00    -0.210 NA
ATOM     18  C   UNL     1       1.281  -0.406  -0.012  0.00  0.00    +0.182 A 
ATOM     19  O   UNL     1       0.002  -0.004   0.002  0.00  0.00    -0.449 OA
BRANCH  18  20
ATOM     20  C   UNL     1       1.745  -1.840  -0.025  0.00  0.00    +0.016 C 
ATOM     21  C   UNL     1       1.495  -2.460  -1.416  0.00  0.00    -0.008 C 
ATOM     22  C   UNL     1       1.045  -3.906  -1.078  0.00  0.00    -0.020 C 
ATOM     23  C   UNL     1       0.235  -3.685   0.224  0.00  0.00    -0.082 C 
ATOM     24  N   UNL     1       0.971  -2.626   0.953  0.00  0.00    +0.387 N 
ATOM     25  H   UNL     1       1.597  -3.045   1.624  0.00  0.00    -0.085 HD
ATOM     26  H   UNL     1       0.317  -2.024   1.431  0.00  0.00    -0.085 HD
ENDBRANCH  18  20
ENDBRANCH   1  16
TORSDOF 3
