REMARK  Name = ZINC13064019
REMARK  17 active torsions:
REMARK  status: ('A' for Active; 'I' for Inactive)
REMARK    1  A    between atoms: C_1  and  C_2
REMARK    2  A    between atoms: C_2  and  C_3
REMARK    3  A    between atoms: C_3  and  C_5
REMARK    4  A    between atoms: C_3  and  N_73
REMARK    5  A    between atoms: N_9  and  C_10
REMARK    6  A    between atoms: C_10  and  C_11
REMARK    7  A    between atoms: C_10  and  C_12
REMARK    8  A    between atoms: C_10  and  C_13
REMARK    9  A    between atoms: C_13  and  C_14
REMARK   10  A    between atoms: C_15  and  C_16
REMARK   11  A    between atoms: C_15  and  N_73
REMARK   12  A    between atoms: C_19  and  O_22
REMARK   13  A    between atoms: O_22  and  C_23
REMARK   14  A    between atoms: C_24  and  C_25
REMARK   15  A    between atoms: C_24  and  N_73
REMARK   16  A    between atoms: C_29  and  O_37
REMARK   17  A    between atoms: O_37  and  C_38
REMARK                            x       y       z     vdW  Elec       q    Type
REMARK                         _______ _______ _______ _____ _____    ______ ____
ROOT
ATOM      1  N   UNL     1       0.765  -1.048   4.114  0.00  0.00    +0.392 N 
ATOM      2  H   UNL     1       0.034  -1.748   3.940  0.00  0.00    -0.080 HD
ENDROOT
BRANCH   1   3
ATOM      3  C   UNL     1       0.850  -0.143   2.949  0.00  0.00    +0.003 C 
BRANCH   3   4
ATOM      4  C   UNL     1      -0.540   0.075   2.407  0.00  0.00    +0.139 A 
ATOM      5  N   UNL     1      -1.643   0.193   3.106  0.00  0.00    -0.115 NA
ATOM      6  N   UNL     1      -2.619   0.362   2.283  0.00  0.00    -0.023 NA
ATOM      7  N   UNL     1      -2.167   0.361   1.077  0.00  0.00    -0.043 NA
ATOM      8  N   UNL     1      -0.889   0.190   1.113  0.00  0.00    -0.225 N 
BRANCH   8   9
ATOM      9  C   UNL     1       0.013   0.127  -0.041  0.00  0.00    +0.061 C 
ATOM     10  C   UNL     1       0.614  -1.277  -0.141  0.00  0.00    +0.036 C 
ATOM     11  C   UNL     1       1.136   1.151   0.133  0.00  0.00    +0.036 C 
BRANCH   9  12
ATOM     12  C   UNL     1      -0.770   0.439  -1.317  0.00  0.00    +0.026 C 
ATOM     13  C   UNL     1       0.172   0.372  -2.522  0.00  0.00    +0.006 C 
ENDBRANCH   9  12
ENDBRANCH   8   9
ENDBRANCH   3   4
BRANCH   3  15
ATOM     14  C   UNL     1       2.857   0.978   3.925  0.00  0.00    +0.002 C 
ATOM     15  C   UNL     1       1.454   1.202   3.360  0.00  0.00    -0.011 C 
ENDBRANCH   3  15
ENDBRANCH   1   3
BRANCH   1  16
ATOM     16  C   UNL     1       2.056  -1.741   4.310  0.00  0.00    -0.042 C 
BRANCH  16  17
ATOM     17  C   UNL     1       2.213  -2.787   3.237  0.00  0.00    -0.064 A 
ATOM     18  C   UNL     1       1.517  -3.978   3.327  0.00  0.00    +0.005 A 
ATOM     19  C   UNL     1       1.655  -4.936   2.341  0.00  0.00    +0.046 A 
ATOM     20  C   UNL     1       2.500  -4.706   1.265  0.00  0.00    +0.120 A 
ATOM     21  C   UNL     1       3.201  -3.512   1.180  0.00  0.00    +0.046 A 
ATOM     22  C   UNL     1       3.056  -2.555   2.166  0.00  0.00    +0.005 A 
BRANCH  20  23
ATOM     23  O   UNL     1       2.641  -5.649   0.297  0.00  0.00    -0.495 OA
ATOM     24  C   UNL     1       1.888  -6.854   0.450  0.00  0.00    +0.277 C 
ENDBRANCH  20  23
ENDBRANCH  16  17
ENDBRANCH   1  16
BRANCH   1  25
ATOM     25  C   UNL     1       0.415  -0.280   5.327  0.00  0.00    -0.036 C 
BRANCH  25  26
ATOM     26  C   UNL     1      -1.077  -0.068   5.349  0.00  0.00    +0.001 A 
ATOM     27  C   UNL     1      -1.906  -1.124   5.542  0.00  0.00    +0.017 A 
ATOM     28  C   UNL     1      -3.351  -0.885   5.563  0.00  0.00    +0.002 A 
ATOM     29  C   UNL     1      -4.253  -1.935   5.763  0.00  0.00    +0.055 A 
ATOM     30  C   UNL     1      -5.609  -1.675   5.772  0.00  0.00    +0.121 A 
ATOM     31  C   UNL     1      -6.077  -0.377   5.582  0.00  0.00    +0.047 A 
ATOM     32  C   UNL     1      -5.199   0.665   5.384  0.00  0.00    +0.030 A 
ATOM     33  C   UNL     1      -3.828   0.425   5.372  0.00  0.00    +0.049 A 
ATOM     34  N   UNL     1      -2.932   1.455   5.175  0.00  0.00    -0.322 N 
ATOM     35  H   UNL     1      -3.262   2.358   5.044  0.00  0.00    +0.169 HD
ATOM     36  C   UNL     1      -1.607   1.226   5.162  0.00  0.00    +0.251 A 
ATOM     37  O   UNL     1      -0.844   2.160   4.986  0.00  0.00    -0.268 OA
BRANCH  30  38
ATOM     38  O   UNL     1      -6.491  -2.691   5.965  0.00  0.00    -0.495 OA
ATOM     39  C   UNL     1      -7.880  -2.354   5.963  0.00  0.00    +0.277 C 
ENDBRANCH  30  38
ENDBRANCH  25  26
ENDBRANCH   1  25
TORSDOF 11
