REMARK  Name = ZINC13698749
REMARK  10 active torsions:
REMARK  status: ('A' for Active; 'I' for Inactive)
REMARK    1  A    between atoms: C_1  and  C_2
REMARK    2  A    between atoms: C_2  and  N_3
REMARK    3  A    between atoms: C_4  and  C_8
REMARK    4  A    between atoms: N_10  and  C_11
REMARK    5  A    between atoms: C_11  and  C_12
REMARK    6  A    between atoms: C_12  and  N_51
REMARK    7  A    between atoms: C_13  and  C_14
REMARK    8  A    between atoms: C_13  and  N_51
REMARK    9  A    between atoms: C_15  and  C_16
REMARK   10  A    between atoms: C_15  and  N_51
REMARK                            x       y       z     vdW  Elec       q    Type
REMARK                         _______ _______ _______ _____ _____    ______ ____
ROOT
ATOM      1  C   UNL     1       0.113   1.475   2.062  0.00  0.00    +0.270 C 
ATOM      2  O   UNL     1       1.208   1.971   1.879  0.00  0.00    -0.268 OA
ATOM      3  N   UNL     1      -0.918   1.803   1.258  0.00  0.00    -0.247 N 
ATOM      4  C   UNL     1      -2.138   1.164   1.400  0.00  0.00    +0.168 A 
ATOM      5  N   UNL     1      -2.991   1.231   2.395  0.00  0.00    -0.221 NA
ATOM      6  C   UNL     1      -4.156   0.545   2.400  0.00  0.00    +0.116 A 
ATOM      7  C   UNL     1      -5.156   0.530   3.402  0.00  0.00    +0.152 A 
ATOM      8  C   UNL     1      -6.290  -0.228   3.249  0.00  0.00    +0.079 A 
ATOM      9  C   UNL     1      -6.498  -1.001   2.114  0.00  0.00    +0.127 A 
ATOM     10  C   UNL     1      -5.539  -1.008   1.115  0.00  0.00    +0.055 A 
ATOM     11  C   UNL     1      -4.401  -0.253   1.261  0.00  0.00    +0.046 A 
ATOM     12  S   UNL     1      -2.955   0.044   0.272  0.00  0.00    -0.052 S 
ATOM     13  F   UNL     1      -7.622  -1.738   1.986  0.00  0.00    -0.205 F 
ATOM     14  F   UNL     1      -4.992   1.268   4.521  0.00  0.00    -0.203 F 
ENDROOT
BRANCH   1  16
ATOM     15  N   UNL     1       0.768   0.266   4.195  0.00  0.00    -0.259 N 
ATOM     16  C   UNL     1      -0.087   0.517   3.160  0.00  0.00    +0.124 A 
ATOM     17  C   UNL     1      -1.183  -0.306   3.355  0.00  0.00    +0.054 A 
ATOM     18  C   UNL     1      -0.903  -1.024   4.520  0.00  0.00    +0.135 A 
ATOM     19  N   UNL     1       0.264  -0.631   4.963  0.00  0.00    -0.179 NA
BRANCH  15  21
ATOM     20  C   UNL     1       1.872   2.171   5.260  0.00  0.00    +0.029 C 
ATOM     21  C   UNL     1       2.063   0.921   4.399  0.00  0.00    +0.141 C 
ENDBRANCH  15  21
ENDBRANCH   1  16
BRANCH   3  22
ATOM     22  C   UNL     1      -0.747   2.836   0.233  0.00  0.00    +0.097 C 
BRANCH  22  23
ATOM     23  C   UNL     1      -1.105   4.202   0.821  0.00  0.00    -0.059 C 
BRANCH  23  24
ATOM     24  N   UNL     1      -0.773   5.246  -0.172  0.00  0.00    +0.380 N 
ATOM     25  H   UNL     1       0.115   5.003  -0.627  0.00  0.00    -0.082 HD
BRANCH  24  26
ATOM     26  C   UNL     1      -1.834   5.323  -1.198  0.00  0.00    -0.082 C 
ATOM     27  C   UNL     1      -1.363   6.243  -2.326  0.00  0.00    -0.017 C 
ENDBRANCH  24  26
BRANCH  24  28
ATOM     28  C   UNL     1      -0.625   6.554   0.501  0.00  0.00    -0.082 C 
ATOM     29  C   UNL     1       0.757   6.614   1.155  0.00  0.00    -0.017 C 
ENDBRANCH  24  28
ENDBRANCH  23  24
ENDBRANCH  22  23
ENDBRANCH   3  22
TORSDOF 7
