REMARK  Name = ZINC14920615
REMARK  6 active torsions:
REMARK  status: ('A' for Active; 'I' for Inactive)
REMARK    1  A    between atoms: C_1  and  C_2
REMARK    2  A    between atoms: C_5  and  O_9
REMARK    3  A    between atoms: O_9  and  C_10
REMARK    4  A    between atoms: C_10  and  C_11
REMARK    5  A    between atoms: N_13  and  N_14
REMARK    6  A    between atoms: C_15  and  C_16
REMARK                            x       y       z     vdW  Elec       q    Type
REMARK                         _______ _______ _______ _____ _____    ______ ____
ROOT
ATOM      1  C   UNL     1      -0.018   1.503   0.010  0.00  0.00    +0.270 C 
ATOM      2  O   UNL     1      -1.077   2.095   0.018  0.00  0.00    -0.270 OA
ATOM      3  N   UNL     1       1.139   2.192   0.003  0.00  0.00    -0.204 N 
ATOM      4  H   UNL     1       1.986   1.719  -0.008  0.00  0.00    +0.177 HD
ENDROOT
BRANCH   3   5
ATOM      5  N   UNL     1       1.121   3.593   0.011  0.00  0.00    -0.186 NA
ATOM      6  C   UNL     1       2.238   4.259   0.004  0.00  0.00    +0.156 C 
BRANCH   6   7
ATOM      7  C   UNL     1       2.219   5.725   0.012  0.00  0.00    +0.068 A 
ATOM      8  C   UNL     1       3.399   6.439   0.010  0.00  0.00    +0.097 A 
ATOM      9  C   UNL     1       3.341   7.847   0.012  0.00  0.00    +0.255 A 
ATOM     10  O   UNL     1       4.368   8.503   0.005  0.00  0.00    -0.268 OA
ATOM     11  N   UNL     1       2.143   8.464   0.026  0.00  0.00    -0.275 N 
ATOM     12  H   UNL     1       2.102   9.463   0.032  0.00  0.00    +0.173 HD
ATOM     13  C   UNL     1       1.002   7.753   0.034  0.00  0.00    +0.327 A 
ATOM     14  O   UNL     1      -0.065   8.337   0.046  0.00  0.00    -0.247 OA
ATOM     15  N   UNL     1       1.018   6.408   0.027  0.00  0.00    -0.306 N 
ATOM     16  H   UNL     1       0.157   5.900   0.033  0.00  0.00    +0.170 HD
ENDBRANCH   6   7
ENDBRANCH   3   5
BRANCH   1  17
ATOM     17  C   UNL     1       0.002  -0.004   0.002  0.00  0.00    +0.326 C 
BRANCH  17  18
ATOM     18  O   UNL     1      -1.339  -0.499   0.012  0.00  0.00    -0.480 OA
BRANCH  18  23
ATOM     19  C   UNL     1      -1.999  -6.094  -0.012  0.00  0.00    +0.044 C 
ATOM     20  C   UNL     1      -1.823  -4.597  -0.005  0.00  0.00    -0.048 A 
ATOM     21  C   UNL     1      -1.731  -3.918   1.196  0.00  0.00    +0.022 A 
ATOM     22  C   UNL     1      -1.569  -2.545   1.204  0.00  0.00    +0.061 A 
ATOM     23  C   UNL     1      -1.498  -1.849   0.006  0.00  0.00    +0.149 A 
ATOM     24  C   UNL     1      -1.597  -2.532  -1.197  0.00  0.00    +0.061 A 
ATOM     25  C   UNL     1      -1.754  -3.905  -1.200  0.00  0.00    +0.022 A 
ATOM     26 BR   UNL     1      -1.510  -1.586  -2.833  0.00  0.00    -0.046 Br
ATOM     27 BR   UNL     1      -1.442  -1.618   2.848  0.00  0.00    -0.046 Br
ENDBRANCH  18  23
ENDBRANCH  17  18
ENDBRANCH   1  17
TORSDOF 5
