REMARK  Name = ZINC09773105
REMARK  14 active torsions:
REMARK  status: ('A' for Active; 'I' for Inactive)
REMARK    1  A    between atoms: C_1  and  C_2
REMARK    2  A    between atoms: C_2  and  N_3
REMARK    3  A    between atoms: C_6  and  C_7
REMARK    4  A    between atoms: C_7  and  C_8
REMARK    5  A    between atoms: C_8  and  C_10
REMARK    6  A    between atoms: C_10  and  O_12
REMARK    7  A    between atoms: O_12  and  C_13
REMARK    8  A    between atoms: N_15  and  C_16
REMARK    9  A    between atoms: C_16  and  C_17
REMARK   10  A    between atoms: C_17  and  C_18
REMARK   11  A    between atoms: C_18  and  C_19
REMARK   12  A    between atoms: C_18  and  C_20
REMARK   13  A    between atoms: N_23  and  C_26
REMARK   14  A    between atoms: C_26  and  C_27
REMARK                            x       y       z     vdW  Elec       q    Type
REMARK                         _______ _______ _______ _____ _____    ______ ____
ROOT
ATOM      1  N   UNL     1       3.572  -0.938  -0.124  0.00  0.00    -0.252 N 
ATOM      2  C   UNL     1       2.490  -0.134  -0.070  0.00  0.00    +0.239 C 
ATOM      3  O   UNL     1       2.611   1.076  -0.038  0.00  0.00    -0.274 OA
ATOM      4  C   UNL     1       1.156  -0.763  -0.053  0.00  0.00    +0.209 C 
ATOM      5  C   UNL     1       1.108  -2.235  -0.090  0.00  0.00    +0.239 C 
ATOM      6  O   UNL     1       0.044  -2.826  -0.073  0.00  0.00    -0.274 OA
ATOM      7  N   UNL     1       2.274  -2.910  -0.148  0.00  0.00    -0.252 N 
ATOM      8  C   UNL     1       3.453  -2.272  -0.161  0.00  0.00    +0.148 C 
ATOM      9  S   UNL     1       4.883  -3.212  -0.228  0.00  0.00    -0.018 S 
ENDROOT
BRANCH   1  11
ATOM     10  C   UNL     1       5.413  -0.171   1.292  0.00  0.00    +0.025 C 
ATOM     11  C   UNL     1       4.908  -0.337  -0.143  0.00  0.00    +0.112 C 
ENDBRANCH   1  11
BRANCH   4  12
ATOM     12  C   UNL     1       0.002  -0.004   0.002  0.00  0.00    +0.079 C 
ATOM     13  N   UNL     1       0.080   1.331   0.176  0.00  0.00    -0.288 NA
BRANCH  12  14
ATOM     14  C   UNL     1      -1.344  -0.669  -0.133  0.00  0.00    +0.319 C 
ATOM     15  F   UNL     1      -2.240   0.212  -0.747  0.00  0.00    -0.227 F 
BRANCH  14  16
ATOM     16  C   UNL     1      -1.860  -1.039   1.234  0.00  0.00    +0.347 C 
ATOM     17  O   UNL     1      -1.788  -0.246   2.142  0.00  0.00    -0.247 OA
BRANCH  16  18
ATOM     18  O   UNL     1      -2.401  -2.250   1.441  0.00  0.00    -0.466 OA
ATOM     19  C   UNL     1      -2.878  -2.537   2.782  0.00  0.00    +0.280 C 
ENDBRANCH  16  18
ENDBRANCH  14  16
ENDBRANCH  12  14
BRANCH  13  20
ATOM     20  C   UNL     1      -1.143   2.135   0.234  0.00  0.00    +0.142 C 
BRANCH  20  21
ATOM     21  C   UNL     1      -0.777   3.607   0.436  0.00  0.00    +0.026 C 
BRANCH  21  22
ATOM     22  C   UNL     1      -2.055   4.446   0.497  0.00  0.00    -0.015 C 
ATOM     23  C   UNL     1      -1.696   5.897   0.823  0.00  0.00    +0.007 C 
ATOM     24  C   UNL     1      -2.767   4.388  -0.856  0.00  0.00    +0.007 C 
ENDBRANCH  21  22
ENDBRANCH  20  21
ENDBRANCH  13  20
ENDBRANCH   4  12
BRANCH   7  25
ATOM     25  C   UNL     1       2.253  -4.374  -0.192  0.00  0.00    +0.112 C 
ATOM     26  C   UNL     1       2.285  -4.928   1.234  0.00  0.00    +0.025 C 
ENDBRANCH   7  25
TORSDOF 9
