REMARK  Name = ZINC08835917
REMARK  10 active torsions:
REMARK  status: ('A' for Active; 'I' for Inactive)
REMARK    1  A    between atoms: C_1  and  C_2
REMARK    2  A    between atoms: C_2  and  C_3
REMARK    3  A    between atoms: C_6  and  S_9
REMARK    4  A    between atoms: S_9  and  N_12
REMARK    5  A    between atoms: N_12  and  C_13
REMARK    6  A    between atoms: C_15  and  S_24
REMARK    7  A    between atoms: C_16  and  O_23
REMARK    8  A    between atoms: S_24  and  C_25
REMARK    9  A    between atoms: C_25  and  C_27
REMARK   10  A    between atoms: C_25  and  C_28
REMARK                            x       y       z     vdW  Elec       q    Type
REMARK                         _______ _______ _______ _____ _____    ______ ____
ROOT
ATOM      1  C   UNL     1       0.458   5.559   0.655  0.00  0.00    +0.057 A 
ATOM      2  C   UNL     1       1.582   6.145   0.119  0.00  0.00    +0.043 A 
ATOM      3  C   UNL     1       2.746   5.401  -0.088  0.00  0.00    +0.052 A 
ATOM      4  C   UNL     1       2.794   4.059   0.241  0.00  0.00    +0.138 A 
ATOM      5  C   UNL     1       1.659   3.435   0.789  0.00  0.00    +0.026 A 
ATOM      6  C   UNL     1       0.478   4.191   0.999  0.00  0.00    +0.008 A 
ATOM      7  C   UNL     1      -0.653   3.564   1.547  0.00  0.00    +0.010 A 
ATOM      8  C   UNL     1      -0.603   2.241   1.863  0.00  0.00    +0.001 A 
ATOM      9  C   UNL     1       0.559   1.498   1.663  0.00  0.00    +0.001 A 
ATOM     10  C   UNL     1       1.674   2.072   1.134  0.00  0.00    +0.012 A 
ENDROOT
BRANCH   1  11
ATOM     11  N   UNL     1      -0.699   6.316   0.857  0.00  0.00    -0.216 N 
ATOM     12  H   UNL     1      -1.399   6.319   0.185  0.00  0.00    +0.174 HD
BRANCH  11  13
ATOM     13  S   UNL     1      -0.875   7.207   2.241  0.00  0.00    +0.072 S 
ATOM     14  O   UNL     1      -2.131   7.864   2.144  0.00  0.00    -0.150 OA
ATOM     15  O   UNL     1      -0.547   6.346   3.323  0.00  0.00    -0.150 OA
BRANCH  13  19
ATOM     16  C   UNL     1       2.289  10.443   2.160  0.00  0.00    -0.048 A 
ATOM     17  C   UNL     1       1.085  10.637   1.510  0.00  0.00    +0.005 A 
ATOM     18  C   UNL     1       0.119   9.649   1.534  0.00  0.00    +0.029 A 
ATOM     19  C   UNL     1       0.357   8.466   2.209  0.00  0.00    +0.109 A 
ATOM     20  C   UNL     1       1.559   8.275   2.865  0.00  0.00    +0.029 A 
ATOM     21  C   UNL     1       2.527   9.261   2.836  0.00  0.00    +0.005 A 
BRANCH  16  23
ATOM     22  C   UNL     1       3.143  12.460   3.323  0.00  0.00    +0.009 C 
ATOM     23  C   UNL     1       3.343  11.520   2.132  0.00  0.00    +0.032 C 
ENDBRANCH  16  23
ENDBRANCH  13  19
ENDBRANCH  11  13
ENDBRANCH   1  11
BRANCH   4  24
ATOM     24  O   UNL     1       3.934   3.344   0.034  0.00  0.00    -0.505 OA
ATOM     25  H   UNL     1       3.985   2.929  -0.837  0.00  0.00    +0.292 HD
ENDBRANCH   4  24
BRANCH   3  26
ATOM     26  S   UNL     1       4.169   6.180  -0.775  0.00  0.00    -0.107 S 
BRANCH  26  27
ATOM     27  C   UNL     1       3.594   7.848  -1.198  0.00  0.00    +0.161 C 
ATOM     28  C   UNL     1       2.615   7.768  -2.371  0.00  0.00    +0.031 C 
BRANCH  27  29
ATOM     29  C   UNL     1       4.774   8.703  -1.585  0.00  0.00    +0.369 C 
ATOM     30  O   UNL     1       5.779   8.187  -2.014  0.00  0.00    -0.245 OA
ATOM     31  O   UNL     1       4.708  10.037  -1.454  0.00  0.00    -0.245 OA
ENDBRANCH  27  29
ENDBRANCH  26  27
ENDBRANCH   3  26
TORSDOF 8
