REMARK  Name = ZINC06921178
REMARK  8 active torsions:
REMARK  status: ('A' for Active; 'I' for Inactive)
REMARK    1  A    between atoms: C_1  and  C_2
REMARK    2  A    between atoms: C_3  and  C_12
REMARK    3  A    between atoms: N_16  and  C_28
REMARK    4  A    between atoms: N_18  and  C_19
REMARK    5  A    between atoms: C_22  and  O_25
REMARK    6  A    between atoms: O_25  and  C_26
REMARK    7  A    between atoms: C_28  and  O_29
REMARK    8  A    between atoms: O_29  and  C_30
REMARK                            x       y       z     vdW  Elec       q    Type
REMARK                         _______ _______ _______ _____ _____    ______ ____
ROOT
ATOM      1  C   UNL     1      -0.061  -0.126  -2.433  0.00  0.00    +0.030 C 
ATOM      2  C   UNL     1      -0.900   0.910  -2.705  0.00  0.00    +0.078 C 
ATOM      3  C   UNL     1      -1.737   1.652  -1.820  0.00  0.00    +0.261 C 
ATOM      4  O   UNL     1      -1.772   1.393  -0.630  0.00  0.00    -0.269 OA
ATOM      5  N   UNL     1      -2.473   2.628  -2.322  0.00  0.00    -0.222 N 
ATOM      6  C   UNL     1      -2.422   2.910  -3.673  0.00  0.00    +0.170 C 
ATOM      7  N   UNL     1      -3.072   3.831  -4.348  0.00  0.00    -0.225 NA
ATOM      8  S   UNL     1      -1.242   1.708  -4.267  0.00  0.00    -0.049 S 
ENDROOT
BRANCH   1  11
ATOM      9  C   UNL     1       2.432  -0.321  -0.582  0.00  0.00    +0.064 C 
ATOM     10  C   UNL     1       1.044  -0.812  -0.262  0.00  0.00    +0.021 A 
ATOM     11  C   UNL     1      -0.037  -0.715  -1.093  0.00  0.00    +0.004 A 
ATOM     12  C   UNL     1      -1.173  -1.320  -0.373  0.00  0.00    +0.007 A 
ATOM     13  C   UNL     1      -2.517  -1.520  -0.681  0.00  0.00    +0.010 A 
ATOM     14  C   UNL     1      -3.343  -2.133   0.235  0.00  0.00    +0.001 A 
ATOM     15  C   UNL     1      -2.842  -2.551   1.460  0.00  0.00    +0.002 A 
ATOM     16  C   UNL     1      -1.515  -2.359   1.778  0.00  0.00    +0.026 A 
ATOM     17  C   UNL     1      -0.665  -1.742   0.866  0.00  0.00    +0.047 A 
ATOM     18  N   UNL     1       0.677  -1.423   0.895  0.00  0.00    -0.358 N 
ATOM     19  H   UNL     1       1.274  -1.608   1.636  0.00  0.00    +0.166 HD
ENDBRANCH   1  11
BRANCH   7  20
ATOM     20  C   UNL     1      -2.882   3.952  -5.699  0.00  0.00    +0.067 A 
ATOM     21  C   UNL     1      -1.591   3.912  -6.231  0.00  0.00    +0.031 A 
ATOM     22  C   UNL     1      -1.404   4.034  -7.592  0.00  0.00    +0.048 A 
ATOM     23  C   UNL     1      -2.497   4.196  -8.433  0.00  0.00    +0.120 A 
ATOM     24  C   UNL     1      -3.781   4.236  -7.909  0.00  0.00    +0.048 A 
ATOM     25  C   UNL     1      -3.978   4.110  -6.549  0.00  0.00    +0.031 A 
BRANCH  23  26
ATOM     26  O   UNL     1      -2.308   4.316  -9.774  0.00  0.00    -0.495 OA
ATOM     27  C   UNL     1      -3.475   4.480 -10.581  0.00  0.00    +0.277 C 
ENDBRANCH  23  26
ENDBRANCH   7  20
BRANCH   5  28
ATOM     28  C   UNL     1      -3.345   3.413  -1.444  0.00  0.00    +0.277 C 
BRANCH  28  29
ATOM     29  O   UNL     1      -2.553   4.319  -0.673  0.00  0.00    -0.364 OA
ATOM     30  C   UNL     1      -2.169   5.500  -1.379  0.00  0.00    +0.196 C 
ENDBRANCH  28  29
ENDBRANCH   5  28
TORSDOF 5
