REMARK  Name = ZINC12024317
REMARK  6 active torsions:
REMARK  status: ('A' for Active; 'I' for Inactive)
REMARK    1  A    between atoms: C_4  and  C_7
REMARK    2  A    between atoms: C_10  and  C_12
REMARK    3  A    between atoms: C_12  and  N_58
REMARK    4  A    between atoms: C_18  and  C_21
REMARK    5  A    between atoms: C_21  and  N_22
REMARK    6  A    between atoms: C_23  and  C_25
REMARK                            x       y       z     vdW  Elec       q    Type
REMARK                         _______ _______ _______ _____ _____    ______ ____
ROOT
ATOM      1  C   UNL     1       0.822  -0.506   1.194  0.00  0.00    -0.075 C 
ATOM      2  C   UNL     1       0.002  -0.004   0.002  0.00  0.00    +0.016 C 
ATOM      3  C   UNL     1      -0.019   1.521   0.010  0.00  0.00    +0.067 C 
ATOM      4  C   UNL     1      -0.802   2.048  -1.206  0.00  0.00    +0.037 C 
ATOM      5  C   UNL     1      -2.227   2.289  -0.655  0.00  0.00    +0.036 C 
ATOM      6  C   UNL     1      -2.131   1.869   0.829  0.00  0.00    +0.136 C 
ATOM      7  O   UNL     1      -0.731   2.003   1.163  0.00  0.00    -0.369 OA
ATOM      8  C   UNL     1       1.403   2.074  -0.000  0.00  0.00    +0.016 C 
ATOM      9  C   UNL     1       2.177   1.504   1.192  0.00  0.00    -0.075 C 
ATOM     10  N   UNL     1       2.196   0.029   1.088  0.00  0.00    +0.384 N 
ATOM     11  H   UNL     1       2.587  -0.235   0.176  0.00  0.00    -0.081 HD
ENDROOT
BRANCH  10  12
ATOM     12  C   UNL     1       3.043  -0.540   2.157  0.00  0.00    -0.015 C 
BRANCH  12  16
ATOM     13  C   UNL     1       6.402   1.097   2.005  0.00  0.00    +0.078 A 
ATOM     14  C   UNL     1       7.015   0.168   1.209  0.00  0.00    +0.075 A 
ATOM     15  S   UNL     1       5.675  -0.986   0.957  0.00  0.00    -0.082 S 
ATOM     16  C   UNL     1       4.476  -0.153   1.897  0.00  0.00    +0.062 A 
ATOM     17  N   UNL     1       5.131   0.901   2.321  0.00  0.00    -0.246 NA
BRANCH  13  21
ATOM     18  C   UNL     1       8.505   4.518   3.403  0.00  0.00    +0.000 A 
ATOM     19  C   UNL     1       9.116   3.648   2.518  0.00  0.00    +0.001 A 
ATOM     20  C   UNL     1       8.438   2.536   2.061  0.00  0.00    +0.010 A 
ATOM     21  C   UNL     1       7.136   2.291   2.493  0.00  0.00    +0.001 A 
ATOM     22  C   UNL     1       6.523   3.174   3.381  0.00  0.00    +0.010 A 
ATOM     23  C   UNL     1       7.213   4.279   3.836  0.00  0.00    +0.001 A 
ENDBRANCH  13  21
ENDBRANCH  12  16
ENDBRANCH  10  12
BRANCH   6  24
ATOM     24  C   UNL     1      -2.980   2.797   1.700  0.00  0.00    +0.136 C 
BRANCH  24  25
ATOM     25  N   UNL     1      -2.875   2.382   3.102  0.00  0.00    -0.306 N 
ATOM     26  C   UNL     1      -3.543   3.059   4.056  0.00  0.00    +0.279 C 
ATOM     27  O   UNL     1      -4.234   4.015   3.755  0.00  0.00    -0.267 OA
ATOM     28  H   UNL     1      -2.325   1.620   3.342  0.00  0.00    +0.149 HD
BRANCH  26  29
ATOM     29  C   UNL     1      -3.439   2.644   5.459  0.00  0.00    +0.189 A 
ATOM     30  C   UNL     1      -4.055   3.241   6.521  0.00  0.00    +0.054 A 
ATOM     31  C   UNL     1      -3.680   2.519   7.664  0.00  0.00    +0.042 A 
ATOM     32  C   UNL     1      -2.855   1.529   7.256  0.00  0.00    +0.196 A 
ATOM     33  O   UNL     1      -2.712   1.608   5.927  0.00  0.00    -0.458 OA
ENDBRANCH  26  29
ENDBRANCH  24  25
ENDBRANCH   6  24
TORSDOF 6
