REMARK  Name = ZINC21145726
REMARK  9 active torsions:
REMARK  status: ('A' for Active; 'I' for Inactive)
REMARK    1  A    between atoms: C_1  and  C_2
REMARK    2  A    between atoms: C_5  and  N_9
REMARK    3  A    between atoms: C_10  and  C_12
REMARK    4  A    between atoms: C_12  and  C_14
REMARK    5  A    between atoms: C_12  and  S_20
REMARK    6  A    between atoms: S_20  and  C_21
REMARK    7  A    between atoms: C_24  and  C_27
REMARK    8  A    between atoms: N_25  and  N_26
REMARK    9  A    between atoms: C_31  and  C_32
REMARK                            x       y       z     vdW  Elec       q    Type
REMARK                         _______ _______ _______ _____ _____    ______ ____
ROOT
ATOM      1  C   UNL     1      -5.224   4.991   0.063  0.00  0.00    +0.170 C 
ENDROOT
BRANCH   1   2
ATOM      2  C   UNL     1      -4.680   5.568  -1.219  0.00  0.00    -0.025 A 
ATOM      3  C   UNL     1      -5.214   5.179  -2.433  0.00  0.00    +0.005 A 
ATOM      4  C   UNL     1      -4.718   5.712  -3.608  0.00  0.00    +0.000 A 
ATOM      5  C   UNL     1      -3.682   6.626  -3.570  0.00  0.00    +0.000 A 
ATOM      6  C   UNL     1      -3.144   7.011  -2.356  0.00  0.00    +0.000 A 
ATOM      7  C   UNL     1      -3.643   6.481  -1.181  0.00  0.00    +0.005 A 
ENDBRANCH   1   2
BRANCH   1   9
ATOM      8  N   UNL     1      -7.057   6.556   0.619  0.00  0.00    -0.284 N 
ATOM      9  C   UNL     1      -6.686   5.334   0.188  0.00  0.00    +0.235 C 
ATOM     10  O   UNL     1      -7.529   4.511  -0.101  0.00  0.00    -0.274 OA
ATOM     11  H   UNL     1      -6.295   7.276   0.953  0.00  0.00    +0.155 HD
BRANCH   8  16
ATOM     12  C   UNL     1     -12.547   7.987   0.717  0.00  0.00    +0.045 C 
ATOM     13  C   UNL     1     -11.089   7.606   0.691  0.00  0.00    -0.032 A 
ATOM     14  C   UNL     1     -10.132   8.559   0.390  0.00  0.00    +0.006 A 
ATOM     15  C   UNL     1      -8.795   8.215   0.370  0.00  0.00    +0.023 A 
ATOM     16  C   UNL     1      -8.411   6.908   0.643  0.00  0.00    +0.035 A 
ATOM     17  C   UNL     1      -9.373   5.954   0.946  0.00  0.00    +0.043 A 
ATOM     18  C   UNL     1     -10.710   6.305   0.969  0.00  0.00    +0.046 A 
ATOM     19 CL   UNL     1     -11.913   5.112   1.347  0.00  0.00    -0.083 Cl
ENDBRANCH   8  16
ENDBRANCH   1   9
BRANCH   1  20
ATOM     20  S   UNL     1      -5.026   3.192   0.047  0.00  0.00    -0.067 S 
BRANCH  20  21
ATOM     21  C   UNL     1      -3.267   3.078   0.048  0.00  0.00    +0.210 A 
ATOM     22  N   UNL     1      -2.421   4.082   0.058  0.00  0.00    -0.121 NA
ATOM     23  N   UNL     1      -1.214   3.643   0.061  0.00  0.00    -0.127 NA
ATOM     24  C   UNL     1      -1.214   2.331   0.044  0.00  0.00    +0.185 A 
ATOM     25  N   UNL     1      -2.529   1.927   0.039  0.00  0.00    -0.224 N 
BRANCH  24  26
ATOM     26  C   UNL     1      -0.025   1.451   0.038  0.00  0.00    +0.061 A 
ATOM     27  C   UNL     1      -0.008  -0.017   0.025  0.00  0.00    +0.053 A 
ATOM     28  C   UNL     1       1.287  -0.373   0.018  0.00  0.00    +0.196 A 
ATOM     29  O   UNL     1       2.046   0.734   0.025  0.00  0.00    -0.467 OA
ATOM     30  C   UNL     1       1.280   1.835   0.037  0.00  0.00    +0.112 A 
ATOM     31  C   UNL     1       1.781   3.256   0.047  0.00  0.00    +0.087 C 
ENDBRANCH  24  26
BRANCH  25  32
ATOM     32  N   UNL     1      -2.999   0.645   0.027  0.00  0.00    -0.295 N 
ATOM     33  H   UNL     1      -2.294  -0.199   0.020  0.00  0.00    +0.163 HD
ATOM     34  H   UNL     1      -4.083   0.456   0.024  0.00  0.00    +0.163 HD
ENDBRANCH  25  32
ENDBRANCH  20  21
ENDBRANCH   1  20
TORSDOF 7
