REMARK  Name = ZINC35269001
REMARK  9 active torsions:
REMARK  status: ('A' for Active; 'I' for Inactive)
REMARK    1  A    between atoms: C_1  and  O_2
REMARK    2  A    between atoms: O_2  and  C_3
REMARK    3  A    between atoms: C_6  and  S_9
REMARK    4  A    between atoms: S_9  and  N_12
REMARK    5  A    between atoms: C_16  and  C_19
REMARK    6  A    between atoms: N_21  and  C_22
REMARK    7  A    between atoms: C_22  and  C_23
REMARK    8  A    between atoms: C_23  and  C_25
REMARK    9  A    between atoms: C_23  and  N_30
REMARK                            x       y       z     vdW  Elec       q    Type
REMARK                         _______ _______ _______ _____ _____    ______ ____
ROOT
ATOM      1  C   UNL     1      -6.127  -6.772  -2.996  0.00  0.00    +0.217 C 
ATOM      2  O   UNL     1      -5.064  -7.349  -2.915  0.00  0.00    -0.275 OA
ATOM      3  N   UNL     1      -7.037  -7.159  -3.912  0.00  0.00    -0.316 N 
ATOM      4  H   UNL     1      -7.887  -6.697  -3.977  0.00  0.00    +0.149 HD
ENDROOT
BRANCH   1   9
ATOM      5  N   UNL     1      -5.500  -4.183  -0.334  0.00  0.00    -0.176 NA
ATOM      6  C   UNL     1      -5.845  -2.933  -1.025  0.00  0.00    +0.109 C 
ATOM      7  C   UNL     1      -7.029  -3.196  -1.960  0.00  0.00    +0.018 C 
ATOM      8  C   UNL     1      -6.687  -4.357  -2.896  0.00  0.00    +0.015 C 
ATOM      9  C   UNL     1      -6.432  -5.621  -2.071  0.00  0.00    +0.091 C 
ATOM     10  C   UNL     1      -5.235  -5.384  -1.138  0.00  0.00    +0.122 C 
BRANCH   5  11
ATOM     11  S   UNL     1      -5.406  -4.236   1.318  0.00  0.00    +0.061 S 
ATOM     12  O   UNL     1      -5.613  -5.591   1.694  0.00  0.00    -0.153 OA
ATOM     13  O   UNL     1      -6.219  -3.178   1.806  0.00  0.00    -0.153 OA
BRANCH  11  17
ATOM     14  C   UNL     1      -1.141  -3.217   2.450  0.00  0.00    +0.120 A 
ATOM     15  C   UNL     1      -2.088  -2.210   2.330  0.00  0.00    +0.047 A 
ATOM     16  C   UNL     1      -3.388  -2.523   1.985  0.00  0.00    +0.032 A 
ATOM     17  C   UNL     1      -3.747  -3.840   1.758  0.00  0.00    +0.106 A 
ATOM     18  C   UNL     1      -2.805  -4.845   1.877  0.00  0.00    +0.032 A 
ATOM     19  C   UNL     1      -1.502  -4.536   2.217  0.00  0.00    +0.047 A 
BRANCH  14  21
ATOM     20  C   UNL     1       0.438  -1.532   3.014  0.00  0.00    +0.277 C 
ATOM     21  O   UNL     1       0.139  -2.911   2.789  0.00  0.00    -0.495 OA
ENDBRANCH  14  21
ENDBRANCH  11  17
ENDBRANCH   5  11
ENDBRANCH   1   9
BRANCH   3  22
ATOM     22  C   UNL     1      -6.741  -8.278  -4.811  0.00  0.00    +0.096 C 
BRANCH  22  23
ATOM     23  C   UNL     1      -7.977  -8.595  -5.655  0.00  0.00    +0.016 C 
BRANCH  23  24
ATOM     24  N   UNL     1      -9.113  -8.882  -4.770  0.00  0.00    +0.387 N 
ATOM     25  C   UNL     1      -8.750  -9.962  -3.845  0.00  0.00    -0.078 C 
ATOM     26  C   UNL     1      -9.902 -10.211  -2.868  0.00  0.00    -0.019 C 
ATOM     27  C   UNL     1     -11.154 -10.610  -3.654  0.00  0.00    -0.004 C 
ATOM     28  C   UNL     1     -11.480  -9.509  -4.668  0.00  0.00    -0.019 C 
ATOM     29  C   UNL     1     -10.270  -9.286  -5.578  0.00  0.00    -0.078 C 
ATOM     30  H   UNL     1      -9.346  -8.054  -4.242  0.00  0.00    -0.081 HD
ENDBRANCH  23  24
BRANCH  23  31
ATOM     31  C   UNL     1      -7.698  -9.796  -6.522  0.00  0.00    +0.093 A 
ATOM     32  C   UNL     1      -7.520  -9.779  -7.855  0.00  0.00    +0.043 A 
ATOM     33  C   UNL     1      -7.287 -11.115  -8.254  0.00  0.00    +0.041 A 
ATOM     34  C   UNL     1      -7.337 -11.868  -7.140  0.00  0.00    +0.195 A 
ATOM     35  O   UNL     1      -7.581 -11.063  -6.094  0.00  0.00    -0.469 OA
ENDBRANCH  23  31
ENDBRANCH  22  23
ENDBRANCH   3  22
TORSDOF 8
