REMARK  Name = ZINC09744785
REMARK  8 active torsions:
REMARK  status: ('A' for Active; 'I' for Inactive)
REMARK    1  A    between atoms: C_3  and  C_6
REMARK    2  A    between atoms: C_6  and  N_7
REMARK    3  A    between atoms: C_14  and  C_17
REMARK    4  A    between atoms: C_17  and  C_18
REMARK    5  A    between atoms: C_18  and  C_19
REMARK    6  A    between atoms: N_21  and  C_22
REMARK    7  A    between atoms: C_22  and  C_23
REMARK    8  A    between atoms: C_28  and  N_63
REMARK                            x       y       z     vdW  Elec       q    Type
REMARK                         _______ _______ _______ _____ _____    ______ ____
ROOT
ATOM      1  C   UNL     1      -0.013   1.086   0.008  0.00  0.00    +0.087 C 
ENDROOT
BRANCH   1   9
ATOM      2  N   UNL     1      -4.018  -1.847  -2.252  0.00  0.00    -0.321 N 
ATOM      3  C   UNL     1      -3.371  -0.634  -2.467  0.00  0.00    +0.140 A 
ATOM      4  C   UNL     1      -3.761   0.180  -3.549  0.00  0.00    +0.049 A 
ATOM      5  C   UNL     1      -3.136   1.367  -3.768  0.00  0.00    +0.053 A 
ATOM      6  C   UNL     1      -2.101   1.766  -2.902  0.00  0.00    +0.178 A 
ATOM      7  N   UNL     1      -1.316   2.831  -2.843  0.00  0.00    -0.128 NA
ATOM      8  N   UNL     1      -0.516   2.713  -1.841  0.00  0.00    -0.132 NA
ATOM      9  C   UNL     1      -0.742   1.585  -1.213  0.00  0.00    +0.156 A 
ATOM     10  N   UNL     1      -1.740   0.948  -1.860  0.00  0.00    -0.195 N 
ATOM     11  N   UNL     1      -2.406  -0.263  -1.659  0.00  0.00    -0.148 NA
ATOM     12  H   UNL     1      -3.755  -2.412  -1.510  0.00  0.00    +0.148 HD
BRANCH   2  13
ATOM     13  C   UNL     1      -5.097  -2.271  -3.148  0.00  0.00    +0.177 C 
BRANCH  13  16
ATOM     14  C   UNL     1      -6.792  -5.205  -1.699  0.00  0.00    +0.041 A 
ATOM     15  C   UNL     1      -6.629  -3.806  -1.827  0.00  0.00    +0.046 A 
ATOM     16  C   UNL     1      -5.625  -3.609  -2.701  0.00  0.00    +0.122 A 
ATOM     17  O   UNL     1      -5.178  -4.807  -3.111  0.00  0.00    -0.466 OA
ATOM     18  C   UNL     1      -5.878  -5.779  -2.502  0.00  0.00    +0.195 A 
ENDBRANCH  13  16
ENDBRANCH   2  13
ENDBRANCH   1   9
BRANCH   1  19
ATOM     19  C   UNL     1      -0.729   1.579   1.267  0.00  0.00    +0.103 C 
BRANCH  19  20
ATOM     20  C   UNL     1       0.000   1.080   2.488  0.00  0.00    +0.213 C 
ATOM     21  O   UNL     1       0.994   0.397   2.363  0.00  0.00    -0.276 OA
ATOM     22  N   UNL     1      -0.453   1.393   3.718  0.00  0.00    -0.315 N 
ATOM     23  H   UNL     1      -1.248   1.939   3.817  0.00  0.00    +0.149 HD
BRANCH  22  24
ATOM     24  C   UNL     1       0.256   0.907   4.905  0.00  0.00    +0.105 C 
BRANCH  24  25
ATOM     25  C   UNL     1      -0.461   1.401   6.164  0.00  0.00    -0.012 C 
ATOM     26  C   UNL     1      -1.854   0.750   6.277  0.00  0.00    -0.015 C 
ATOM     27  C   UNL     1      -1.819  -0.046   7.600  0.00  0.00    -0.078 C 
ATOM     28  C   UNL     1       0.300   0.944   7.427  0.00  0.00    -0.074 C 
ATOM     29  N   UNL     1      -0.766   0.623   8.373  0.00  0.00    +0.382 N 
ATOM     30  H   UNL     1      -1.133   1.486   8.793  0.00  0.00    -0.081 HD
BRANCH  29  31
ATOM     31  C   UNL     1      -0.262  -0.276   9.458  0.00  0.00    -0.069 C 
ATOM     32  C   UNL     1       0.879   0.411  10.237  0.00  0.00    -0.015 C 
ATOM     33  C   UNL     1       1.878  -0.734  10.535  0.00  0.00    -0.002 C 
ATOM     34  C   UNL     1       1.824  -1.582   9.240  0.00  0.00    -0.002 C 
ATOM     35  C   UNL     1       0.339  -1.543   8.824  0.00  0.00    -0.015 C 
ENDBRANCH  29  31
ENDBRANCH  24  25
ENDBRANCH  22  24
ENDBRANCH  19  20
ENDBRANCH   1  19
TORSDOF 8
