REMARK  Name = ZINC20212817
REMARK  4 active torsions:
REMARK  status: ('A' for Active; 'I' for Inactive)
REMARK    1  A    between atoms: C_4  and  N_32
REMARK    2  A    between atoms: C_5  and  C_7
REMARK    3  A    between atoms: C_10  and  C_25
REMARK    4  A    between atoms: N_17  and  C_18
REMARK                            x       y       z     vdW  Elec       q    Type
REMARK                         _______ _______ _______ _____ _____    ______ ____
ROOT
ATOM      1  C   UNL     1       1.367  -2.204   0.026  0.00  0.00    +0.145 C 
ATOM      2  C   UNL     1       1.268  -2.871   1.373  0.00  0.00    +0.018 C 
ATOM      3  C   UNL     1       1.327  -3.023   2.683  0.00  0.00    +0.097 C 
ATOM      4  N   UNL     1       0.558  -4.085   3.065  0.00  0.00    -0.153 NA
ATOM      5  N   UNL     1       0.207  -4.812   2.123  0.00  0.00    -0.170 NA
ATOM      6  C   UNL     1       0.811  -4.273   0.911  0.00  0.00    +0.244 C 
ATOM      7  C   UNL     1      -0.156  -3.940  -0.192  0.00  0.00    +0.251 C 
ATOM      8  O   UNL     1      -1.095  -4.621  -0.547  0.00  0.00    -0.272 OA
ATOM      9  N   UNL     1       0.209  -2.742  -0.724  0.00  0.00    -0.258 N 
ENDROOT
BRANCH   9  10
ATOM     10  C   UNL     1      -0.414  -2.114  -1.809  0.00  0.00    +0.037 A 
ATOM     11  C   UNL     1       0.329  -1.756  -2.926  0.00  0.00    +0.025 A 
ATOM     12  C   UNL     1      -0.287  -1.136  -3.995  0.00  0.00    +0.022 A 
ATOM     13  C   UNL     1      -1.645  -0.872  -3.954  0.00  0.00    +0.041 A 
ATOM     14  C   UNL     1      -2.388  -1.227  -2.841  0.00  0.00    +0.022 A 
ATOM     15  C   UNL     1      -1.777  -1.852  -1.772  0.00  0.00    +0.025 A 
ATOM     16 CL   UNL     1      -2.417  -0.092  -5.299  0.00  0.00    -0.084 Cl
ENDBRANCH   9  10
BRANCH   3  17
ATOM     17  C   UNL     1       2.113  -2.166   3.605  0.00  0.00    +0.002 A 
ATOM     18  C   UNL     1       2.808  -1.063   3.112  0.00  0.00    +0.011 A 
ATOM     19  C   UNL     1       3.537  -0.269   3.973  0.00  0.00    +0.016 A 
ATOM     20  C   UNL     1       3.579  -0.566   5.324  0.00  0.00    +0.018 A 
ATOM     21  C   UNL     1       2.890  -1.661   5.819  0.00  0.00    +0.016 A 
ATOM     22  C   UNL     1       2.154  -2.458   4.967  0.00  0.00    +0.011 A 
ATOM     23 BR   UNL     1       4.580   0.526   6.499  0.00  0.00    -0.050 Br
ENDBRANCH   3  17
BRANCH   1  28
ATOM     24  C   UNL     1      -0.088   1.262   0.373  0.00  0.00    +0.000 A 
ATOM     25  C   UNL     1       1.055   2.038   0.424  0.00  0.00    +0.002 A 
ATOM     26  C   UNL     1       2.299   1.440   0.346  0.00  0.00    +0.033 A 
ATOM     27  C   UNL     1       2.400   0.068   0.217  0.00  0.00    +0.131 A 
ATOM     28  C   UNL     1       1.257  -0.708   0.167  0.00  0.00    +0.008 A 
ATOM     29  C   UNL     1       0.013  -0.110   0.244  0.00  0.00    +0.008 A 
BRANCH  27  30
ATOM     30  N   UNL     1       3.732  -0.572   0.132  0.00  0.00    +0.057 N 
ATOM     31  O   UNL     1       4.726   0.111   0.044  0.00  0.00    -0.126 OA
ATOM     32  O   UNL     1       3.827  -1.777   0.151  0.00  0.00    -0.126 OA
ENDBRANCH  27  30
ENDBRANCH   1  28
TORSDOF 4
