REMARK  Name = ZINC41312133
REMARK  7 active torsions:
REMARK  status: ('A' for Active; 'I' for Inactive)
REMARK    1  A    between atoms: C_1  and  O_2
REMARK    2  A    between atoms: O_2  and  C_3
REMARK    3  A    between atoms: C_10  and  C_12
REMARK    4  A    between atoms: N_14  and  C_15
REMARK    5  A    between atoms: C_16  and  C_24
REMARK    6  A    between atoms: N_26  and  C_27
REMARK    7  A    between atoms: C_27  and  C_28
REMARK                            x       y       z     vdW  Elec       q    Type
REMARK                         _______ _______ _______ _____ _____    ______ ____
ROOT
ATOM      1  C   UNL     1       3.696  -6.046  -6.449  0.00  0.00    +0.085 A 
ATOM      2  C   UNL     1       4.385  -6.064  -7.652  0.00  0.00    +0.069 A 
ATOM      3  C   UNL     1       4.709  -7.365  -8.212  0.00  0.00    -0.023 A 
ATOM      4  C   UNL     1       4.283  -8.408  -7.467  0.00  0.00    -0.004 A 
ATOM      5  S   UNL     1       3.491  -7.668  -6.070  0.00  0.00    -0.077 S 
ATOM      6  C   UNL     1       4.460  -9.863  -7.774  0.00  0.00    +0.043 C 
ATOM      7  C   UNL     1       4.865 -10.000  -9.249  0.00  0.00    +0.005 C 
ATOM      8  C   UNL     1       5.997  -9.012  -9.545  0.00  0.00    +0.005 C 
ATOM      9  C   UNL     1       5.459  -7.580  -9.518  0.00  0.00    +0.037 C 
ENDROOT
BRANCH   1  12
ATOM     10  C   UNL     1       2.619  -5.110  -4.561  0.00  0.00    +0.284 C 
ATOM     11  O   UNL     1       2.391  -6.231  -4.147  0.00  0.00    -0.266 OA
ATOM     12  N   UNL     1       3.279  -4.942  -5.724  0.00  0.00    -0.273 N 
ATOM     13  H   UNL     1       3.461  -4.048  -6.054  0.00  0.00    +0.156 HD
BRANCH  10  21
ATOM     14  C   UNL     1       0.606  -0.607  -1.056  0.00  0.00    +0.121 A 
ATOM     15  C   UNL     1       1.175   0.166  -2.065  0.00  0.00    +0.049 A 
ATOM     16  C   UNL     1       1.790  -0.428  -3.144  0.00  0.00    +0.050 A 
ATOM     17  C   UNL     1       1.850  -1.813  -3.236  0.00  0.00    +0.136 A 
ATOM     18  C   UNL     1       1.277  -2.597  -2.219  0.00  0.00    +0.024 A 
ATOM     19  C   UNL     1       0.659  -1.985  -1.125  0.00  0.00    +0.057 A 
ATOM     20  C   UNL     1       1.507  -3.987  -2.611  0.00  0.00    +0.063 A 
ATOM     21  C   UNL     1       2.177  -3.939  -3.792  0.00  0.00    +0.191 A 
ATOM     22  O   UNL     1       2.374  -2.654  -4.152  0.00  0.00    -0.450 OA
BRANCH  14  24
ATOM     23  C   UNL     1      -0.017   1.425   0.010  0.00  0.00    +0.277 C 
ATOM     24  O   UNL     1       0.002  -0.004   0.002  0.00  0.00    -0.495 OA
ENDBRANCH  14  24
ENDBRANCH  10  21
ENDBRANCH   1  12
BRANCH   2  25
ATOM     25  C   UNL     1       4.771  -4.824  -8.331  0.00  0.00    +0.247 C 
ATOM     26  O   UNL     1       5.846  -4.306  -8.089  0.00  0.00    -0.270 OA
ATOM     27  N   UNL     1       3.936  -4.255  -9.223  0.00  0.00    -0.309 N 
ATOM     28  H   UNL     1       3.079  -4.667  -9.415  0.00  0.00    +0.149 HD
BRANCH  27  29
ATOM     29  C   UNL     1       4.321  -3.015  -9.901  0.00  0.00    +0.136 C 
BRANCH  29  30
ATOM     30  C   UNL     1       3.203  -2.586 -10.854  0.00  0.00    +0.135 C 
ATOM     31  C   UNL     1       3.606  -1.294 -11.608  0.00  0.00    +0.035 C 
ATOM     32  C   UNL     1       2.729  -1.412 -12.884  0.00  0.00    +0.031 C 
ATOM     33  C   UNL     1       2.700  -2.937 -13.122  0.00  0.00    +0.160 C 
ATOM     34  O   UNL     1       3.013  -3.576 -11.877  0.00  0.00    -0.375 OA
ENDBRANCH  29  30
ENDBRANCH  27  29
ENDBRANCH   2  25
TORSDOF 6
