REMARK  Name = ZINC19524066
REMARK  8 active torsions:
REMARK  status: ('A' for Active; 'I' for Inactive)
REMARK    1  A    between atoms: C_1  and  C_2
REMARK    2  A    between atoms: C_2  and  N_3
REMARK    3  A    between atoms: C_4  and  C_29
REMARK    4  A    between atoms: C_5  and  C_8
REMARK    5  A    between atoms: C_10  and  C_13
REMARK    6  A    between atoms: N_15  and  C_16
REMARK    7  A    between atoms: C_16  and  C_22
REMARK    8  A    between atoms: C_22  and  N_23
REMARK                            x       y       z     vdW  Elec       q    Type
REMARK                         _______ _______ _______ _____ _____    ______ ____
ROOT
ATOM      1  C   UNL     1       0.177   7.304  -7.849  0.00  0.00    +0.282 C 
ATOM      2  O   UNL     1       0.382   7.739  -8.966  0.00  0.00    -0.267 OA
ATOM      3  N   UNL     1      -1.086   7.100  -7.426  0.00  0.00    -0.305 N 
ATOM      4  H   UNL     1      -1.270   6.622  -6.453  0.00  0.00    +0.150 HD
ENDROOT
BRANCH   3   5
ATOM      5  C   UNL     1      -2.215   7.516  -8.263  0.00  0.00    +0.020 C 
ATOM      6  C   UNL     1      -3.526   7.241  -7.524  0.00  0.00    +0.024 C 
ATOM      7  C   UNL     1      -3.638   5.745  -7.223  0.00  0.00    +0.002 C 
ATOM      8  C   UNL     1      -3.617   4.958  -8.535  0.00  0.00    +0.000 C 
ATOM      9  C   UNL     1      -2.306   5.233  -9.274  0.00  0.00    +0.002 C 
ATOM     10  C   UNL     1      -2.194   6.729  -9.575  0.00  0.00    +0.024 C 
BRANCH   5  11
ATOM     11  C   UNL     1      -2.103   9.012  -8.564  0.00  0.00    -0.053 C 
BRANCH  11  12
ATOM     12  N   UNL     1      -1.979   9.757  -7.304  0.00  0.00    +0.381 N 
ATOM     13  C   UNL     1      -3.280  10.289  -6.878  0.00  0.00    -0.079 C 
ATOM     14  C   UNL     1      -3.141  10.931  -5.495  0.00  0.00    -0.019 C 
ATOM     15  C   UNL     1      -2.105  12.057  -5.562  0.00  0.00    -0.004 C 
ATOM     16  C   UNL     1      -0.773  11.485  -6.055  0.00  0.00    -0.019 C 
ATOM     17  C   UNL     1      -0.980  10.826  -7.421  0.00  0.00    -0.079 C 
ATOM     18  H   UNL     1      -1.633   9.058  -6.529  0.00  0.00    -0.082 HD
ENDBRANCH  11  12
ENDBRANCH   5  11
ENDBRANCH   3   5
BRANCH   1  21
ATOM     19  C   UNL     1       3.291   6.717  -6.052  0.00  0.00    +0.117 A 
ATOM     20  C   UNL     1       2.639   7.157  -7.237  0.00  0.00    +0.086 A 
ATOM     21  C   UNL     1       1.312   6.999  -6.957  0.00  0.00    +0.222 A 
ATOM     22  O   UNL     1       1.244   6.515  -5.702  0.00  0.00    -0.349 OA
ATOM     23  N   UNL     1       2.343   6.366  -5.220  0.00  0.00    -0.077 NA
BRANCH  19  26
ATOM     24  N   UNL     1       6.696   6.367  -4.842  0.00  0.00    -0.268 N 
ATOM     25  C   UNL     1       5.366   6.252  -4.660  0.00  0.00    +0.045 A 
ATOM     26  C   UNL     1       4.754   6.672  -5.805  0.00  0.00    +0.044 A 
ATOM     27  C   UNL     1       5.763   7.054  -6.710  0.00  0.00    +0.144 A 
ATOM     28  N   UNL     1       6.919   6.875  -6.128  0.00  0.00    -0.179 NA
ATOM     29  C   UNL     1       4.679   5.751  -3.416  0.00  0.00    +0.066 C 
BRANCH  24  31
ATOM     30  C   UNL     1       8.135   4.561  -4.039  0.00  0.00    +0.029 C 
ATOM     31  C   UNL     1       7.730   6.025  -3.862  0.00  0.00    +0.140 C 
ENDBRANCH  24  31
ENDBRANCH  19  26
ENDBRANCH   1  21
TORSDOF 6
