REMARK  Name = ZINC06222205
REMARK  4 active torsions:
REMARK  status: ('A' for Active; 'I' for Inactive)
REMARK    1  A    between atoms: C_5  and  C_7
REMARK    2  A    between atoms: N_8  and  O_9
REMARK    3  A    between atoms: O_9  and  C_10
REMARK    4  A    between atoms: C_10  and  C_12
REMARK                            x       y       z     vdW  Elec       q    Type
REMARK                         _______ _______ _______ _____ _____    ______ ____
ROOT
ATOM      1  O   UNL     1       2.413  -4.208  -0.045  0.00  0.00    -0.315 OA
ENDROOT
BRANCH   1   3
ATOM      2  C   UNL     1       1.248  -2.162  -0.022  0.00  0.00    +0.165 C 
ATOM      3  N   UNL     1       2.387  -2.792  -0.036  0.00  0.00    -0.059 NA
ATOM      4  N   UNL     1       0.063  -2.875  -0.014  0.00  0.00    -0.340 N 
ATOM      5  H   UNL     1      -0.785  -2.406  -0.003  0.00  0.00    +0.144 HD
ATOM      6  H   UNL     1       0.081  -3.845  -0.020  0.00  0.00    +0.144 HD
BRANCH   2  11
ATOM      7  C   UNL     1      -0.017   1.375   0.010  0.00  0.00    +0.001 A 
ATOM      8  C   UNL     1       1.170   2.087   0.002  0.00  0.00    +0.001 A 
ATOM      9  C   UNL     1       2.382   1.422  -0.013  0.00  0.00    +0.021 A 
ATOM     10  C   UNL     1       2.415   0.041  -0.021  0.00  0.00    +0.051 A 
ATOM     11  C   UNL     1       1.221  -0.682  -0.013  0.00  0.00    +0.036 A 
ATOM     12  C   UNL     1       0.002  -0.004   0.002  0.00  0.00    +0.013 A 
ATOM     13 CL   UNL     1       3.937  -0.794  -0.040  0.00  0.00    -0.083 Cl
ENDBRANCH   2  11
ENDBRANCH   1   3
BRANCH   1  14
ATOM     14  C   UNL     1       3.648  -4.731  -0.060  0.00  0.00    +0.342 C 
ATOM     15  O   UNL     1       4.615  -4.001  -0.065  0.00  0.00    -0.248 OA
BRANCH  14  16
ATOM     16  C   UNL     1       3.833  -6.227  -0.070  0.00  0.00    +0.071 C 
ATOM     17  C   UNL     1       3.192  -6.828   1.182  0.00  0.00    +0.021 C 
ATOM     18  C   UNL     1       3.379  -8.347   1.172  0.00  0.00    -0.009 C 
ATOM     19  C   UNL     1       4.873  -8.676   1.155  0.00  0.00    +0.007 C 
ATOM     20  C   UNL     1       5.514  -8.074  -0.097  0.00  0.00    -0.009 C 
ATOM     21  C   UNL     1       5.327  -6.556  -0.086  0.00  0.00    +0.021 C 
ATOM     22  C   UNL     1       4.849  -8.662  -1.343  0.00  0.00    +0.007 C 
ATOM     23  C   UNL     1       3.355  -8.333  -1.327  0.00  0.00    -0.009 C 
ATOM     24  C   UNL     1       2.714  -8.934  -0.074  0.00  0.00    +0.007 C 
ATOM     25  C   UNL     1       3.167  -6.814  -1.316  0.00  0.00    +0.021 C 
ENDBRANCH  14  16
ENDBRANCH   1  14
TORSDOF 4
