REMARK  Name = ZINC38478256
REMARK  6 active torsions:
REMARK  status: ('A' for Active; 'I' for Inactive)
REMARK    1  A    between atoms: C_1  and  C_2
REMARK    2  A    between atoms: C_2  and  C_3
REMARK    3  A    between atoms: C_2  and  C_4
REMARK    4  A    between atoms: C_2  and  O_5
REMARK    5  A    between atoms: O_5  and  C_6
REMARK    6  A    between atoms: N_11  and  C_14
REMARK                            x       y       z     vdW  Elec       q    Type
REMARK                         _______ _______ _______ _____ _____    ______ ____
ROOT
ATOM      1  C   UNL     1       1.952  -0.085  -1.337  0.00  0.00    +0.403 C 
ATOM      2  O   UNL     1       2.488   0.619  -0.503  0.00  0.00    -0.226 OA
ATOM      3  N   UNL     1       2.641  -0.485  -2.424  0.00  0.00    -0.264 N 
ATOM      4  C   UNL     1       2.004  -1.331  -3.443  0.00  0.00    +0.130 C 
ATOM      5  C   UNL     1       2.136  -0.641  -4.806  0.00  0.00    +0.125 C 
ATOM      6  N   UNL     1       3.537  -0.238  -4.994  0.00  0.00    -0.312 N 
ATOM      7  C   UNL     1       4.174   0.608  -3.975  0.00  0.00    +0.125 C 
ATOM      8  C   UNL     1       4.040  -0.078  -2.615  0.00  0.00    +0.130 C 
ENDROOT
BRANCH   6   9
ATOM      9  C   UNL     1       4.226  -0.638  -6.082  0.00  0.00    +0.143 C 
ATOM     10  S   UNL     1       5.857  -0.161  -6.286  0.00  0.00    -0.022 S 
ATOM     11 CL   UNL     1       3.458  -1.638  -7.275  0.00  0.00    -0.058 Cl
ENDBRANCH   6   9
BRANCH   1  12
ATOM     12  O   UNL     1       0.671  -0.465  -1.174  0.00  0.00    -0.445 OA
BRANCH  12  14
ATOM     13  C   UNL     1      -0.019   1.526   0.010  0.00  0.00    +0.055 C 
ATOM     14  C   UNL     1       0.002  -0.004   0.002  0.00  0.00    +0.107 C 
ATOM     15  C   UNL     1       0.742  -0.511   1.242  0.00  0.00    +0.055 C 
ATOM     16  C   UNL     1      -1.433  -0.534   0.013  0.00  0.00    +0.055 C 
ENDBRANCH  12  14
ENDBRANCH   1  12
TORSDOF 3
