REMARK  Name = ZINC39675105
REMARK  12 active torsions:
REMARK  status: ('A' for Active; 'I' for Inactive)
REMARK    1  A    between atoms: C_1  and  C_2
REMARK    2  A    between atoms: C_4  and  C_37
REMARK    3  A    between atoms: N_5  and  C_7
REMARK    4  A    between atoms: C_7  and  C_8
REMARK    5  A    between atoms: C_8  and  N_9
REMARK    6  A    between atoms: C_10  and  C_12
REMARK    7  A    between atoms: C_23  and  C_25
REMARK    8  A    between atoms: C_25  and  C_27
REMARK    9  A    between atoms: C_25  and  O_30
REMARK   10  A    between atoms: C_27  and  C_28
REMARK   11  A    between atoms: C_27  and  C_29
REMARK   12  A    between atoms: O_30  and  C_31
REMARK                            x       y       z     vdW  Elec       q    Type
REMARK                         _______ _______ _______ _____ _____    ______ ____
ROOT
ATOM      1  C   UNL     1       2.828  -6.636   3.902  0.00  0.00    +0.100 C 
ATOM      2  C   UNL     1       2.027  -7.774   3.230  0.00  0.00    +0.121 C 
ATOM      3  N   UNL     1       3.053  -8.604   2.555  0.00  0.00    -0.297 N 
ATOM      4  C   UNL     1       4.189  -8.632   3.506  0.00  0.00    +0.115 C 
ATOM      5  C   UNL     1       4.245  -7.205   4.085  0.00  0.00    -0.004 C 
ATOM      6  C   UNL     1       4.609  -7.249   5.566  0.00  0.00    -0.010 C 
ATOM      7  C   UNL     1       6.043  -7.763   5.720  0.00  0.00    -0.082 C 
ATOM      8  N   UNL     1       6.963  -6.877   4.995  0.00  0.00    +0.379 N 
ATOM      9  C   UNL     1       6.664  -6.912   3.559  0.00  0.00    -0.082 C 
ATOM     10  C   UNL     1       5.256  -6.362   3.314  0.00  0.00    -0.010 C 
ATOM     11  C   UNL     1       2.970  -9.200   1.349  0.00  0.00    +0.257 C 
ATOM     12  O   UNL     1       3.902  -9.854   0.930  0.00  0.00    -0.272 OA
ATOM     13  H   UNL     1       6.856  -5.933   5.337  0.00  0.00    -0.086 HD
ATOM     14  H   UNL     1       7.912  -7.182   5.148  0.00  0.00    -0.086 HD
ENDROOT
BRANCH   1  16
ATOM     15  N   UNL     1       2.938  -4.190   3.555  0.00  0.00    -0.313 N 
ATOM     16  C   UNL     1       2.861  -5.421   3.012  0.00  0.00    +0.218 C 
ATOM     17  O   UNL     1       2.819  -5.551   1.807  0.00  0.00    -0.275 OA
ATOM     18  H   UNL     1       2.971  -4.086   4.518  0.00  0.00    +0.149 HD
BRANCH  15  19
ATOM     19  C   UNL     1       2.970  -3.008   2.689  0.00  0.00    +0.127 C 
BRANCH  19  20
ATOM     20  C   UNL     1       3.058  -1.747   3.551  0.00  0.00    +0.162 C 
BRANCH  20  25
ATOM     21  C   UNL     1       4.784   2.004   0.696  0.00  0.00    +0.067 C 
ATOM     22  C   UNL     1       3.867   1.068   1.440  0.00  0.00    +0.060 A 
ATOM     23  C   UNL     1       2.471   1.144   1.476  0.00  0.00    +0.047 A 
ATOM     24  C   UNL     1       2.018   0.129   2.248  0.00  0.00    +0.036 A 
ATOM     25  N   UNL     1       3.090  -0.565   2.685  0.00  0.00    -0.267 N 
ATOM     26  N   UNL     1       4.239   0.041   2.160  0.00  0.00    -0.176 NA
ATOM     27  C   UNL     1       0.576  -0.173   2.563  0.00  0.00    +0.065 C 
ENDBRANCH  20  25
ENDBRANCH  19  20
ENDBRANCH  15  19
ENDBRANCH   1  16
BRANCH  11  28
ATOM     28  C   UNL     1       1.720  -9.055   0.520  0.00  0.00    +0.261 C 
BRANCH  28  29
ATOM     29  C   UNL     1       0.550  -9.730   1.239  0.00  0.00    +0.033 C 
ATOM     30  C   UNL     1      -0.719  -9.583   0.398  0.00  0.00    +0.011 C 
ATOM     31  C   UNL     1       0.862 -11.216   1.435  0.00  0.00    +0.011 C 
ENDBRANCH  28  29
BRANCH  28  32
ATOM     32  O   UNL     1       1.917  -9.672  -0.753  0.00  0.00    -0.479 OA
BRANCH  32  33
ATOM     33  C   UNL     1       1.291  -9.106  -1.818  0.00  0.00    +0.122 A 
ATOM     34  C   UNL     1       0.573  -7.930  -1.656  0.00  0.00    +0.045 A 
ATOM     35  C   UNL     1      -0.063  -7.355  -2.740  0.00  0.00    +0.004 A 
ATOM     36  C   UNL     1       0.016  -7.952  -3.985  0.00  0.00    +0.000 A 
ATOM     37  C   UNL     1       0.730  -9.124  -4.148  0.00  0.00    +0.004 A 
ATOM     38  C   UNL     1       1.373  -9.699  -3.069  0.00  0.00    +0.045 A 
ENDBRANCH  32  33
ENDBRANCH  28  32
ENDBRANCH  11  28
TORSDOF 8
