REMARK  Name = ZINC38491530
REMARK  10 active torsions:
REMARK  status: ('A' for Active; 'I' for Inactive)
REMARK    1  A    between atoms: C_1  and  C_2
REMARK    2  A    between atoms: C_4  and  C_37
REMARK    3  A    between atoms: C_6  and  S_8
REMARK    4  A    between atoms: S_8  and  C_9
REMARK    5  A    between atoms: C_9  and  C_10
REMARK    6  A    between atoms: C_11  and  C_22
REMARK    7  A    between atoms: N_14  and  C_15
REMARK    8  A    between atoms: N_24  and  C_25
REMARK    9  A    between atoms: C_25  and  C_26
REMARK   10  A    between atoms: C_26  and  C_27
REMARK                            x       y       z     vdW  Elec       q    Type
REMARK                         _______ _______ _______ _____ _____    ______ ____
ROOT
ATOM      1  C   UNL     1       0.056  -2.148   5.299  0.00  0.00    +0.087 A 
ATOM      2  C   UNL     1      -1.033  -2.497   6.048  0.00  0.00    +0.171 A 
ATOM      3  N   UNL     1      -0.602  -3.003   7.216  0.00  0.00    -0.124 NA
ATOM      4  N   UNL     1       0.685  -2.992   7.242  0.00  0.00    -0.060 NA
ATOM      5  N   UNL     1       1.148  -2.458   6.031  0.00  0.00    -0.215 N 
ENDROOT
BRANCH   5   6
ATOM      6  C   UNL     1       2.487  -2.277   5.654  0.00  0.00    +0.068 A 
ATOM      7  C   UNL     1       2.863  -2.438   4.327  0.00  0.00    +0.030 A 
ATOM      8  C   UNL     1       4.181  -2.260   3.958  0.00  0.00    +0.040 A 
ATOM      9  C   UNL     1       5.128  -1.921   4.909  0.00  0.00    +0.124 A 
ATOM     10  C   UNL     1       4.755  -1.760   6.233  0.00  0.00    +0.040 A 
ATOM     11  C   UNL     1       3.436  -1.932   6.606  0.00  0.00    +0.030 A 
ATOM     12  F   UNL     1       6.418  -1.748   4.546  0.00  0.00    -0.205 F 
ENDBRANCH   5   6
BRANCH   2  13
ATOM     13  C   UNL     1      -2.443  -2.342   5.642  0.00  0.00    +0.266 C 
ATOM     14  O   UNL     1      -2.715  -1.869   4.556  0.00  0.00    -0.268 OA
ATOM     15  N   UNL     1      -3.430  -2.726   6.476  0.00  0.00    -0.310 N 
ATOM     16  H   UNL     1      -3.213  -3.104   7.343  0.00  0.00    +0.149 HD
BRANCH  15  17
ATOM     17  C   UNL     1      -4.830  -2.573   6.073  0.00  0.00    +0.109 C 
BRANCH  17  18
ATOM     18  C   UNL     1      -5.741  -3.082   7.193  0.00  0.00    +0.056 C 
BRANCH  18  19
ATOM     19  C   UNL     1      -7.181  -2.924   6.779  0.00  0.00    -0.021 A 
ATOM     20  C   UNL     1      -7.987  -1.891   7.069  0.00  0.00    +0.087 A 
ATOM     21  N   UNL     1      -9.225  -2.097   6.524  0.00  0.00    -0.360 N 
ATOM     22  H   UNL     1      -9.976  -1.488   6.600  0.00  0.00    +0.165 HD
ATOM     23  C   UNL     1      -9.247  -3.299   5.853  0.00  0.00    +0.047 A 
ATOM     24  C   UNL     1      -7.965  -3.867   5.977  0.00  0.00    +0.003 A 
ATOM     25  C   UNL     1      -7.689  -5.099   5.383  0.00  0.00    +0.010 A 
ATOM     26  C   UNL     1      -8.665  -5.748   4.680  0.00  0.00    +0.001 A 
ATOM     27  C   UNL     1      -9.930  -5.190   4.551  0.00  0.00    +0.002 A 
ATOM     28  C   UNL     1     -10.227  -3.979   5.137  0.00  0.00    +0.026 A 
ENDBRANCH  18  19
ENDBRANCH  17  18
ENDBRANCH  15  17
ENDBRANCH   2  13
BRANCH   1  29
ATOM     29  C   UNL     1       0.041  -1.542   3.919  0.00  0.00    +0.135 C 
BRANCH  29  30
ATOM     30  S   UNL     1       0.053  -2.864   2.678  0.00  0.00    -0.080 S 
BRANCH  30  36
ATOM     31  C   UNL     1      -0.018   1.503   0.010  0.00  0.00    +0.066 C 
ATOM     32  C   UNL     1       0.002  -0.004   0.002  0.00  0.00    +0.043 A 
ATOM     33  C   UNL     1       0.006  -0.699  -1.198  0.00  0.00    +0.046 A 
ATOM     34  C   UNL     1       0.025  -2.084  -1.161  0.00  0.00    +0.043 A 
ATOM     35  N   UNL     1       0.039  -2.699   0.010  0.00  0.00    -0.227 NA
ATOM     36  C   UNL     1       0.035  -2.005   1.140  0.00  0.00    +0.189 A 
ATOM     37  N   UNL     1       0.022  -0.679   1.139  0.00  0.00    -0.227 NA
ATOM     38  C   UNL     1       0.029  -2.881  -2.440  0.00  0.00    +0.066 C 
ENDBRANCH  30  36
ENDBRANCH  29  30
ENDBRANCH   1  29
TORSDOF 8
