REMARK  Name = ZINC45222436
REMARK  13 active torsions:
REMARK  status: ('A' for Active; 'I' for Inactive)
REMARK    1  A    between atoms: C_1  and  C_2
REMARK    2  A    between atoms: C_2  and  O_3
REMARK    3  A    between atoms: O_3  and  C_4
REMARK    4  A    between atoms: C_4  and  C_6
REMARK    5  A    between atoms: C_7  and  C_35
REMARK    6  A    between atoms: C_8  and  C_31
REMARK    7  A    between atoms: C_10  and  N_11
REMARK    8  A    between atoms: C_12  and  C_14
REMARK    9  A    between atoms: C_14  and  N_15
REMARK   10  A    between atoms: C_18  and  C_22
REMARK   11  A    between atoms: C_18  and  C_23
REMARK   12  A    between atoms: C_26  and  C_29
REMARK   13  A    between atoms: N_33  and  C_34
REMARK                            x       y       z     vdW  Elec       q    Type
REMARK                         _______ _______ _______ _____ _____    ______ ____
ROOT
ATOM      1  N   UNL     1      -0.607  -2.456  -3.930  0.00  0.00    -0.278 N 
ATOM      2  C   UNL     1      -1.123  -2.783  -5.131  0.00  0.00    +0.236 C 
ATOM      3  O   UNL     1      -0.403  -3.225  -6.000  0.00  0.00    -0.274 OA
ATOM      4  H   UNL     1      -1.183  -2.103  -3.234  0.00  0.00    +0.155 HD
ENDROOT
BRANCH   1   9
ATOM      5  C   UNL     1       1.450  -2.345  -2.518  0.00  0.00    +0.091 A 
ATOM      6  C   UNL     1       2.814  -2.606  -2.513  0.00  0.00    -0.015 A 
ATOM      7  C   UNL     1       3.339  -3.113  -3.671  0.00  0.00    +0.079 A 
ATOM      8  S   UNL     1       1.916  -3.213  -4.737  0.00  0.00    -0.068 S 
ATOM      9  C   UNL     1       0.743  -2.625  -3.689  0.00  0.00    +0.087 A 
ATOM     10  C   UNL     1       3.668  -2.345  -1.299  0.00  0.00    +0.046 C 
BRANCH   7  11
ATOM     11  C   UNL     1       4.726  -3.482  -3.960  0.00  0.00    +0.251 C 
ATOM     12  O   UNL     1       5.583  -3.348  -3.106  0.00  0.00    -0.270 OA
ATOM     13  N   UNL     1       5.055  -3.971  -5.173  0.00  0.00    -0.314 N 
ATOM     14  C   UNL     1       6.442  -4.340  -5.463  0.00  0.00    +0.128 C 
ATOM     15  H   UNL     1       4.372  -4.078  -5.853  0.00  0.00    +0.149 HD
ENDBRANCH   7  11
BRANCH   5  16
ATOM     16  C   UNL     1       0.776  -1.800  -1.335  0.00  0.00    +0.342 C 
ATOM     17  O   UNL     1       0.312  -2.551  -0.499  0.00  0.00    -0.245 OA
BRANCH  16  18
ATOM     18  O   UNL     1       0.671  -0.465  -1.174  0.00  0.00    -0.461 OA
BRANCH  18  20
ATOM     19  C   UNL     1      -0.019   1.526   0.010  0.00  0.00    +0.048 C 
ATOM     20  C   UNL     1       0.002  -0.004   0.002  0.00  0.00    +0.229 C 
ENDBRANCH  18  20
ENDBRANCH  16  18
ENDBRANCH   5  16
ENDBRANCH   1   9
BRANCH   2  21
ATOM     21  C   UNL     1      -2.596  -2.599  -5.393  0.00  0.00    +0.214 C 
BRANCH  21  22
ATOM     22  N   UNL     1      -2.905  -3.023  -6.761  0.00  0.00    -0.215 N 
ATOM     23  C   UNL     1      -2.865  -2.209  -7.834  0.00  0.00    +0.251 C 
ATOM     24  O   UNL     1      -2.578  -1.031  -7.849  0.00  0.00    -0.272 OA
ATOM     25  C   UNL     1      -3.253  -3.071  -9.018  0.00  0.00    +0.135 C 
ATOM     26  N   UNL     1      -3.489  -4.396  -8.419  0.00  0.00    -0.281 N 
ATOM     27  C   UNL     1      -3.256  -4.269  -7.100  0.00  0.00    +0.310 C 
ATOM     28  O   UNL     1      -3.357  -5.183  -6.305  0.00  0.00    -0.252 OA
ATOM     29  C   UNL     1      -4.530  -2.542  -9.674  0.00  0.00    +0.047 C 
ATOM     30  H   UNL     1      -3.757  -5.204  -8.885  0.00  0.00    +0.152 HD
BRANCH  25  31
ATOM     31  C   UNL     1      -2.129  -3.135 -10.019  0.00  0.00    -0.015 A 
ATOM     32  C   UNL     1      -1.257  -2.068 -10.144  0.00  0.00    +0.007 A 
ATOM     33  C   UNL     1      -0.225  -2.119 -11.058  0.00  0.00    +0.019 A 
ATOM     34  C   UNL     1      -0.062  -3.252 -11.859  0.00  0.00    +0.052 A 
ATOM     35  C   UNL     1      -0.945  -4.325 -11.727  0.00  0.00    +0.019 A 
ATOM     36  C   UNL     1      -1.970  -4.262 -10.806  0.00  0.00    +0.007 A 
BRANCH  34  37
ATOM     37  C   UNL     1       1.006  -3.312 -12.810  0.00  0.00    +0.099 C 
ATOM     38  N   UNL     1       1.854  -3.360 -13.566  0.00  0.00    -0.191 NA
ENDBRANCH  34  37
ENDBRANCH  25  31
ENDBRANCH  21  22
ENDBRANCH   2  21
TORSDOF 9
