REMARK  Name = ZINC62564296
REMARK  6 active torsions:
REMARK  status: ('A' for Active; 'I' for Inactive)
REMARK    1  A    between atoms: C_1  and  C_2
REMARK    2  A    between atoms: C_3  and  C_19
REMARK    3  A    between atoms: C_5  and  C_17
REMARK    4  A    between atoms: C_11  and  C_14
REMARK    5  A    between atoms: C_14  and  C_15
REMARK    6  A    between atoms: C_14  and  C_16
REMARK                            x       y       z     vdW  Elec       q    Type
REMARK                         _______ _______ _______ _____ _____    ______ ____
ROOT
ATOM      1  C   UNL     1      -0.018   1.503   0.010  0.00  0.00    +0.046 C 
ATOM      2  C   UNL     1       0.002  -0.004   0.002  0.00  0.00    -0.022 A 
ATOM      3  C   UNL     1       0.006  -0.691  -1.199  0.00  0.00    -0.031 A 
ATOM      4  C   UNL     1       0.025  -2.074  -1.209  0.00  0.00    +0.028 A 
ATOM      5  C   UNL     1       0.040  -2.780  -0.018  0.00  0.00    +0.007 A 
ATOM      6  C   UNL     1       0.036  -2.099   1.187  0.00  0.00    +0.147 A 
ATOM      7  C   UNL     1       0.023  -0.705   1.196  0.00  0.00    +0.079 A 
ATOM      8  N   UNL     1       0.026  -0.027   2.424  0.00  0.00    -0.279 N 
ATOM      9  C   UNL     1      -0.268  -0.713   3.550  0.00  0.00    +0.258 C 
ATOM     10  O   UNL     1      -0.242  -0.155   4.627  0.00  0.00    -0.271 OA
ATOM     11  C   UNL     1      -0.630  -2.174   3.464  0.00  0.00    +0.261 C 
ATOM     12  O   UNL     1       0.050  -2.776   2.366  0.00  0.00    -0.477 OA
ATOM     13  C   UNL     1       0.059  -4.286  -0.033  0.00  0.00    +0.049 C 
ATOM     14 BR   UNL     1       0.029  -3.004  -2.855  0.00  0.00    -0.050 Br
ATOM     15  C   UNL     1      -0.011   0.070  -2.499  0.00  0.00    +0.045 C 
ATOM     16  H   UNL     1       0.237   0.918   2.465  0.00  0.00    +0.155 HD
ENDROOT
BRANCH  11  17
ATOM     17  C   UNL     1      -2.139  -2.313   3.253  0.00  0.00    +0.033 C 
ATOM     18  C   UNL     1      -2.506  -3.796   3.164  0.00  0.00    +0.011 C 
ATOM     19  C   UNL     1      -2.879  -1.673   4.429  0.00  0.00    +0.011 C 
ENDBRANCH  11  17
TORSDOF 1
