REMARK  Name = ZINC39582254
REMARK  9 active torsions:
REMARK  status: ('A' for Active; 'I' for Inactive)
REMARK    1  A    between atoms: C_1  and  C_2
REMARK    2  A    between atoms: C_6  and  N_9
REMARK    3  A    between atoms: C_7  and  C_8
REMARK    4  A    between atoms: N_12  and  C_15
REMARK    5  A    between atoms: C_15  and  C_16
REMARK    6  A    between atoms: N_18  and  C_19
REMARK    7  A    between atoms: C_27  and  C_29
REMARK    8  A    between atoms: C_29  and  O_31
REMARK    9  A    between atoms: O_31  and  C_32
REMARK                            x       y       z     vdW  Elec       q    Type
REMARK                         _______ _______ _______ _____ _____    ______ ____
ROOT
ATOM      1  C   UNL     1       1.099  -3.752   7.378  0.00  0.00    +0.231 C 
ATOM      2  O   UNL     1       1.669  -4.574   6.693  0.00  0.00    -0.274 OA
ATOM      3  N   UNL     1       1.456  -3.583   8.666  0.00  0.00    -0.285 N 
ATOM      4  H   UNL     1       1.035  -2.891   9.200  0.00  0.00    +0.155 HD
ENDROOT
BRANCH   3   5
ATOM      5  C   UNL     1       2.409  -4.384   9.219  0.00  0.00    +0.053 C 
ATOM      6  C   UNL     1       2.704  -4.525  10.564  0.00  0.00    +0.019 A 
ATOM      7  C   UNL     1       2.161  -3.931  11.729  0.00  0.00    +0.026 A 
ATOM      8  C   UNL     1       2.657  -4.262  12.947  0.00  0.00    +0.019 A 
ATOM      9  C   UNL     1       3.701  -5.182  13.087  0.00  0.00    +0.017 A 
ATOM     10  C   UNL     1       4.269  -5.789  12.017  0.00  0.00    +0.027 A 
ATOM     11  C   UNL     1       3.804  -5.495  10.709  0.00  0.00    +0.045 A 
ATOM     12  N   UNL     1       4.182  -5.941   9.528  0.00  0.00    -0.367 N 
ATOM     13  C   UNL     1       3.359  -5.310   8.492  0.00  0.00    +0.234 C 
ATOM     14 BR   UNL     1       1.921  -3.460  14.493  0.00  0.00    -0.050 Br
ATOM     15  H   UNL     1       4.888  -6.587   9.370  0.00  0.00    +0.161 HD
BRANCH  13  16
ATOM     16  C   UNL     1       4.232  -4.521   7.550  0.00  0.00    +0.335 C 
ATOM     17  O   UNL     1       5.372  -4.264   7.854  0.00  0.00    -0.248 OA
BRANCH  16  18
ATOM     18  O   UNL     1       3.742  -4.103   6.372  0.00  0.00    -0.466 OA
ATOM     19  C   UNL     1       4.625  -3.361   5.528  0.00  0.00    +0.280 C 
ENDBRANCH  16  18
ENDBRANCH  13  16
ENDBRANCH   3   5
BRANCH   1  20
ATOM     20  C   UNL     1      -0.010  -2.919   6.788  0.00  0.00    +0.180 C 
BRANCH  20  24
ATOM     21  N   UNL     1      -0.483  -3.036   2.619  0.00  0.00    -0.327 N 
ATOM     22  C   UNL     1      -1.692  -3.229   3.434  0.00  0.00    +0.120 C 
ATOM     23  C   UNL     1      -1.425  -2.676   4.838  0.00  0.00    +0.104 C 
ATOM     24  N   UNL     1      -0.206  -3.291   5.380  0.00  0.00    -0.291 NA
ATOM     25  C   UNL     1       0.971  -2.940   4.574  0.00  0.00    +0.104 C 
ATOM     26  C   UNL     1       0.802  -3.509   3.156  0.00  0.00    +0.120 C 
BRANCH  21  32
ATOM     27  C   UNL     1      -0.322   1.050  -0.108  0.00  0.00    +0.044 C 
ATOM     28  C   UNL     1      -0.479  -0.444   0.013  0.00  0.00    -0.046 A 
ATOM     29  C   UNL     1      -0.694  -1.211  -1.117  0.00  0.00    +0.004 A 
ATOM     30  C   UNL     1      -0.839  -2.582  -1.010  0.00  0.00    +0.002 A 
ATOM     31  C   UNL     1      -0.769  -3.190   0.228  0.00  0.00    +0.023 A 
ATOM     32  C   UNL     1      -0.553  -2.424   1.366  0.00  0.00    +0.033 A 
ATOM     33  C   UNL     1      -0.403  -1.047   1.254  0.00  0.00    -0.027 A 
ATOM     34  C   UNL     1      -0.163  -0.211   2.485  0.00  0.00    +0.046 C 
ENDBRANCH  21  32
ENDBRANCH  20  24
ENDBRANCH   1  20
TORSDOF 6
