REMARK  Name = ZINC19941901
REMARK  6 active torsions:
REMARK  status: ('A' for Active; 'I' for Inactive)
REMARK    1  A    between atoms: C_1  and  C_2
REMARK    2  A    between atoms: C_5  and  O_8
REMARK    3  A    between atoms: O_8  and  C_9
REMARK    4  A    between atoms: C_9  and  C_10
REMARK    5  A    between atoms: C_10  and  N_11
REMARK    6  A    between atoms: C_16  and  N_22
REMARK                            x       y       z     vdW  Elec       q    Type
REMARK                         _______ _______ _______ _____ _____    ______ ____
ROOT
ATOM      1  N   UNL     1       1.692  -4.599  -1.290  0.00  0.00    -0.262 N 
ATOM      2  C   UNL     1       0.295  -4.680  -1.372  0.00  0.00    +0.080 A 
ATOM      3  C   UNL     1      -0.507  -4.082  -0.411  0.00  0.00    +0.027 A 
ATOM      4  C   UNL     1      -1.883  -4.173  -0.507  0.00  0.00    +0.004 A 
ATOM      5  C   UNL     1      -2.465  -4.858  -1.557  0.00  0.00    +0.026 A 
ATOM      6  C   UNL     1      -1.671  -5.449  -2.527  0.00  0.00    +0.069 A 
ATOM      7  C   UNL     1      -0.287  -5.365  -2.433  0.00  0.00    +0.163 A 
ATOM      8  O   UNL     1       0.509  -5.952  -3.368  0.00  0.00    -0.479 OA
ATOM      9  C   UNL     1       1.746  -5.296  -3.662  0.00  0.00    +0.325 C 
ATOM     10  C   UNL     1       2.432  -4.911  -2.376  0.00  0.00    +0.258 C 
ATOM     11  O   UNL     1       3.643  -4.880  -2.317  0.00  0.00    -0.272 OA
ENDROOT
BRANCH   6  12
ATOM     12  N   UNL     1      -2.262  -6.142  -3.590  0.00  0.00    -0.355 N 
ATOM     13  H   UNL     1      -1.631  -6.610  -4.359  0.00  0.00    +0.142 HD
ATOM     14  H   UNL     1      -3.358  -6.218  -3.655  0.00  0.00    +0.142 HD
ENDBRANCH   6  12
BRANCH   1  15
ATOM     15  C   UNL     1       2.341  -4.188  -0.042  0.00  0.00    +0.155 C 
BRANCH  15  16
ATOM     16  C   UNL     1       2.518  -2.668  -0.036  0.00  0.00    +0.248 C 
BRANCH  16  17
ATOM     17  O   UNL     1       1.234  -2.039  -0.020  0.00  0.00    -0.490 OA
BRANCH  17  22
ATOM     18  C   UNL     1       1.147   3.593   0.011  0.00  0.00    +0.044 C 
ATOM     19  C   UNL     1       1.171   2.086   0.002  0.00  0.00    -0.050 A 
ATOM     20  C   UNL     1      -0.017   1.377   0.010  0.00  0.00    +0.007 A 
ATOM     21  C   UNL     1       0.002  -0.004   0.002  0.00  0.00    +0.046 A 
ATOM     22  C   UNL     1       1.213  -0.680  -0.013  0.00  0.00    +0.121 A 
ATOM     23  C   UNL     1       2.403   0.033  -0.021  0.00  0.00    +0.046 A 
ATOM     24  C   UNL     1       2.379   1.415  -0.013  0.00  0.00    +0.007 A 
ENDBRANCH  17  22
ENDBRANCH  16  17
ENDBRANCH  15  16
ENDBRANCH   1  15
TORSDOF 5
