REMARK  Name = ZINC01721200
REMARK  18 active torsions:
REMARK  status: ('A' for Active; 'I' for Inactive)
REMARK    1  A    between atoms: C_1  and  C_2
REMARK    2  A    between atoms: C_2  and  O_3
REMARK    3  A    between atoms: O_3  and  C_4
REMARK    4  A    between atoms: N_6  and  C_7
REMARK    5  A    between atoms: N_6  and  C_16
REMARK    6  A    between atoms: C_7  and  C_8
REMARK    7  A    between atoms: C_8  and  C_9
REMARK    8  A    between atoms: C_9  and  O_11
REMARK    9  A    between atoms: O_11  and  C_12
REMARK   10  A    between atoms: C_12  and  C_13
REMARK   11  A    between atoms: C_12  and  C_14
REMARK   12  A    between atoms: C_12  and  C_15
REMARK   13  A    between atoms: C_16  and  C_17
REMARK   14  A    between atoms: C_17  and  O_19
REMARK   15  A    between atoms: O_19  and  C_20
REMARK   16  A    between atoms: C_20  and  C_21
REMARK   17  A    between atoms: C_20  and  C_22
REMARK   18  A    between atoms: C_20  and  C_23
REMARK                            x       y       z     vdW  Elec       q    Type
REMARK                         _______ _______ _______ _____ _____    ______ ____
ROOT
ATOM      1  C   UNL     1      -0.014   1.211   0.009  0.00  0.00    +0.403 C 
ATOM      2  O   UNL     1       0.002  -0.004   0.002  0.00  0.00    -0.226 OA
ATOM      3  N   UNL     1      -1.191   1.869   0.018  0.00  0.00    -0.256 N 
ENDROOT
BRANCH   1   4
ATOM      4  O   UNL     1       1.142   1.900   0.001  0.00  0.00    -0.451 OA
BRANCH   4   6
ATOM      5  C   UNL     1       3.571   2.074  -0.021  0.00  0.00    +0.048 C 
ATOM      6  C   UNL     1       2.371   1.126  -0.015  0.00  0.00    +0.230 C 
ENDBRANCH   4   6
ENDBRANCH   1   4
BRANCH   3   7
ATOM      7  C   UNL     1      -2.449   1.119   0.020  0.00  0.00    +0.123 C 
BRANCH   7   8
ATOM      8  C   UNL     1      -2.881   0.850   1.463  0.00  0.00    +0.139 C 
BRANCH   8   9
ATOM      9  C   UNL     1      -4.175   0.079   1.465  0.00  0.00    +0.309 C 
ATOM     10  O   UNL     1      -4.699  -0.224   0.419  0.00  0.00    -0.251 OA
BRANCH   9  11
ATOM     11  O   UNL     1      -4.747  -0.271   2.628  0.00  0.00    -0.459 OA
BRANCH  11  12
ATOM     12  C   UNL     1      -5.993  -1.012   2.554  0.00  0.00    +0.105 C 
ATOM     13  C   UNL     1      -5.762  -2.323   1.799  0.00  0.00    +0.055 C 
ATOM     14  C   UNL     1      -6.488  -1.319   3.969  0.00  0.00    +0.055 C 
ATOM     15  C   UNL     1      -7.040  -0.176   1.817  0.00  0.00    +0.055 C 
ENDBRANCH  11  12
ENDBRANCH   9  11
ENDBRANCH   8   9
ENDBRANCH   7   8
ENDBRANCH   3   7
BRANCH   3  16
ATOM     16  C   UNL     1      -1.210   3.334   0.026  0.00  0.00    +0.231 C 
BRANCH  16  17
ATOM     17  C   UNL     1      -1.224   3.844  -1.392  0.00  0.00    +0.325 C 
ATOM     18  O   UNL     1      -1.218   3.064  -2.315  0.00  0.00    -0.249 OA
BRANCH  17  19
ATOM     19  O   UNL     1      -1.243   5.165  -1.630  0.00  0.00    -0.458 OA
BRANCH  19  20
ATOM     20  C   UNL     1      -1.255   5.584  -3.020  0.00  0.00    +0.105 C 
ATOM     21  C   UNL     1      -2.500   5.024  -3.711  0.00  0.00    +0.055 C 
ATOM     22  C   UNL     1      -1.276   7.112  -3.092  0.00  0.00    +0.055 C 
ATOM     23  C   UNL     1      -0.002   5.058  -3.723  0.00  0.00    +0.055 C 
ENDBRANCH  19  20
ENDBRANCH  17  19
ENDBRANCH  16  17
ENDBRANCH   3  16
TORSDOF 11
