REMARK  Name = ZINC24145364
REMARK  9 active torsions:
REMARK  status: ('A' for Active; 'I' for Inactive)
REMARK    1  A    between atoms: C_1  and  C_2
REMARK    2  A    between atoms: C_2  and  C_3
REMARK    3  A    between atoms: C_3  and  C_30
REMARK    4  A    between atoms: N_6  and  N_10
REMARK    5  A    between atoms: C_11  and  C_13
REMARK    6  A    between atoms: C_13  and  S_14
REMARK    7  A    between atoms: S_14  and  C_15
REMARK    8  A    between atoms: N_25  and  C_26
REMARK    9  A    between atoms: C_26  and  C_27
REMARK                            x       y       z     vdW  Elec       q    Type
REMARK                         _______ _______ _______ _____ _____    ______ ____
ROOT
ATOM      1  N   UNL     1      -0.444  12.685   0.068  0.00  0.00    -0.223 N 
ATOM      2  C   UNL     1      -1.371  11.707   0.072  0.00  0.00    +0.240 C 
ATOM      3  O   UNL     1      -2.551  11.989   0.084  0.00  0.00    -0.273 OA
ATOM      4  H   UNL     1       0.626  12.429   0.057  0.00  0.00    +0.174 HD
ENDROOT
BRANCH   1   8
ATOM      5  C   UNL     1      -1.303  16.176   0.705  0.00  0.00    +0.139 C 
ATOM      6  C   UNL     1      -0.771  14.831   1.159  0.00  0.00    +0.268 C 
ATOM      7  O   UNL     1      -0.367  14.538   2.263  0.00  0.00    -0.271 OA
ATOM      8  N   UNL     1      -0.843  14.028   0.078  0.00  0.00    -0.137 N 
ATOM      9  C   UNL     1      -1.336  14.674  -0.985  0.00  0.00    +0.327 C 
ATOM     10  O   UNL     1      -1.491  14.160  -2.075  0.00  0.00    -0.251 OA
ATOM     11  N   UNL     1      -1.644  15.954  -0.710  0.00  0.00    -0.280 N 
ATOM     12  H   UNL     1      -2.066  16.775  -1.310  0.00  0.00    +0.152 HD
BRANCH   5  13
ATOM     13  C   UNL     1      -0.242  17.238   0.839  0.00  0.00    -0.015 A 
ATOM     14  C   UNL     1      -0.138  17.968   2.007  0.00  0.00    +0.006 A 
ATOM     15  C   UNL     1       0.838  18.939   2.131  0.00  0.00    +0.000 A 
ATOM     16  C   UNL     1       1.704  19.186   1.083  0.00  0.00    +0.000 A 
ATOM     17  C   UNL     1       1.597  18.459  -0.089  0.00  0.00    +0.000 A 
ATOM     18  C   UNL     1       0.624  17.485  -0.210  0.00  0.00    +0.006 A 
ENDBRANCH   5  13
BRANCH   5  20
ATOM     19  C   UNL     1      -3.629  15.492   1.311  0.00  0.00    +0.007 C 
ATOM     20  C   UNL     1      -2.550  16.559   1.506  0.00  0.00    +0.037 C 
ENDBRANCH   5  20
ENDBRANCH   1   8
BRANCH   2  21
ATOM     21  C   UNL     1      -0.942  10.262   0.061  0.00  0.00    +0.174 C 
BRANCH  21  22
ATOM     22  S   UNL     1      -2.406   9.198   0.070  0.00  0.00    -0.075 S 
BRANCH  22  23
ATOM     23  C   UNL     1      -1.634   7.614   0.055  0.00  0.00    +0.212 A 
ATOM     24  N   UNL     1      -2.388   6.523   0.057  0.00  0.00    -0.201 NA
ATOM     25  C   UNL     1      -1.803   5.329   0.046  0.00  0.00    +0.165 A 
ATOM     26  C   UNL     1      -0.394   5.273   0.033  0.00  0.00    +0.138 A 
ATOM     27  C   UNL     1      -0.036   3.845   0.022  0.00  0.00    +0.029 A 
ATOM     28  C   UNL     1       1.176   3.158   0.007  0.00  0.00    +0.012 A 
ATOM     29  C   UNL     1       1.182   1.780   0.000  0.00  0.00    +0.001 A 
ATOM     30  C   UNL     1      -0.013   1.076   0.008  0.00  0.00    +0.002 A 
ATOM     31  C   UNL     1      -1.219   1.743   0.017  0.00  0.00    +0.026 A 
ATOM     32  C   UNL     1      -1.246   3.134   0.030  0.00  0.00    +0.053 A 
ATOM     33  N   UNL     1      -2.289   4.045   0.044  0.00  0.00    -0.324 N 
ATOM     34  N   UNL     1       0.302   6.401   0.031  0.00  0.00    -0.143 NA
ATOM     35  N   UNL     1      -0.307   7.537   0.042  0.00  0.00    -0.122 NA
BRANCH  33  36
ATOM     36  C   UNL     1      -3.710   3.689   0.056  0.00  0.00    +0.120 C 
ATOM     37  C   UNL     1      -4.219   3.572  -1.382  0.00  0.00    +0.027 C 
ENDBRANCH  33  36
ENDBRANCH  22  23
ENDBRANCH  21  22
ENDBRANCH   2  21
TORSDOF 7
