REMARK  Name = ZINC03376480
REMARK  12 active torsions:
REMARK  status: ('A' for Active; 'I' for Inactive)
REMARK    1  A    between atoms: C_1  and  C_2
REMARK    2  A    between atoms: C_7  and  N_8
REMARK    3  A    between atoms: C_9  and  C_11
REMARK    4  A    between atoms: C_11  and  C_13
REMARK    5  A    between atoms: C_11  and  S_14
REMARK    6  A    between atoms: S_14  and  C_15
REMARK    7  A    between atoms: C_18  and  C_27
REMARK    8  A    between atoms: N_19  and  C_20
REMARK    9  A    between atoms: C_27  and  C_29
REMARK   10  A    between atoms: C_27  and  N_56
REMARK   11  A    between atoms: C_30  and  N_56
REMARK   12  A    between atoms: C_31  and  N_56
REMARK                            x       y       z     vdW  Elec       q    Type
REMARK                         _______ _______ _______ _____ _____    ______ ____
ROOT
ATOM      1  C   UNL     1      -1.002   0.088   7.488  0.00  0.00    +0.197 A 
ATOM      2  N   UNL     1      -0.690   1.363   7.471  0.00  0.00    -0.122 NA
ATOM      3  N   UNL     1      -0.941   1.891   8.616  0.00  0.00    -0.135 NA
ATOM      4  C   UNL     1      -1.416   0.992   9.430  0.00  0.00    +0.125 A 
ATOM      5  N   UNL     1      -1.473  -0.192   8.742  0.00  0.00    -0.275 N 
ENDROOT
BRANCH   5   6
ATOM      6  C   UNL     1      -1.920  -1.431   9.223  0.00  0.00    +0.050 A 
ATOM      7  C   UNL     1      -3.248  -1.595   9.592  0.00  0.00    +0.028 A 
ATOM      8  C   UNL     1      -3.687  -2.818  10.061  0.00  0.00    +0.022 A 
ATOM      9  C   UNL     1      -2.802  -3.876  10.172  0.00  0.00    +0.041 A 
ATOM     10  C   UNL     1      -1.477  -3.713   9.809  0.00  0.00    +0.022 A 
ATOM     11  C   UNL     1      -1.034  -2.494   9.335  0.00  0.00    +0.028 A 
ATOM     12 CL   UNL     1      -3.356  -5.410  10.767  0.00  0.00    -0.084 Cl
ENDBRANCH   5   6
BRANCH   4  13
ATOM     13  C   UNL     1      -1.828   1.212  10.863  0.00  0.00    -0.003 C 
ATOM     14  C   UNL     1      -0.580   1.342  11.738  0.00  0.00    -0.005 C 
BRANCH  13  17
ATOM     15  C   UNL     1      -3.143   2.628  12.321  0.00  0.00    -0.096 C 
ATOM     16  C   UNL     1      -1.842   3.610  10.531  0.00  0.00    -0.096 C 
ATOM     17  N   UNL     1      -2.646   2.440  10.942  0.00  0.00    +0.382 N 
ATOM     18  H   UNL     1      -3.449   2.348  10.308  0.00  0.00    -0.082 HD
ENDBRANCH  13  17
ENDBRANCH   4  13
BRANCH   1  19
ATOM     19  S   UNL     1      -0.839  -1.049   6.152  0.00  0.00    -0.073 S 
BRANCH  19  20
ATOM     20  C   UNL     1      -0.169   0.052   4.882  0.00  0.00    +0.137 C 
ATOM     21  C   UNL     1       1.216   0.542   5.310  0.00  0.00    +0.029 C 
BRANCH  20  23
ATOM     22  N   UNL     1       0.025  -0.015   2.417  0.00  0.00    -0.284 N 
ATOM     23  C   UNL     1      -0.057  -0.694   3.578  0.00  0.00    +0.230 C 
ATOM     24  O   UNL     1      -0.040  -1.907   3.573  0.00  0.00    -0.274 OA
ATOM     25  H   UNL     1       0.077   0.954   2.425  0.00  0.00    +0.155 HD
BRANCH  22  32
ATOM     26  C   UNL     1      -1.256   1.188   0.178  0.00  0.00    +0.045 C 
ATOM     27  C   UNL     1      -0.580  -0.156   0.083  0.00  0.00    -0.029 A 
ATOM     28  C   UNL     1      -0.574  -0.844  -1.115  0.00  0.00    +0.005 A 
ATOM     29  C   UNL     1       0.050  -2.074  -1.204  0.00  0.00    +0.000 A 
ATOM     30  C   UNL     1       0.663  -2.624  -0.093  0.00  0.00    +0.002 A 
ATOM     31  C   UNL     1       0.656  -1.944   1.109  0.00  0.00    +0.023 A 
ATOM     32  C   UNL     1       0.034  -0.706   1.201  0.00  0.00    +0.036 A 
ENDBRANCH  22  32
ENDBRANCH  20  23
ENDBRANCH  19  20
ENDBRANCH   1  19
TORSDOF 7
