REMARK  Name = ZINC40605398
REMARK  8 active torsions:
REMARK  status: ('A' for Active; 'I' for Inactive)
REMARK    1  A    between atoms: C_1  and  C_2
REMARK    2  A    between atoms: C_2  and  C_3
REMARK    3  A    between atoms: C_2  and  C_4
REMARK    4  A    between atoms: C_2  and  C_5
REMARK    5  A    between atoms: C_5  and  N_6
REMARK    6  A    between atoms: N_9  and  C_10
REMARK    7  A    between atoms: C_10  and  C_14
REMARK    8  A    between atoms: CA_18  and  C_20
REMARK                            x       y       z     vdW  Elec       q    Type
REMARK                         _______ _______ _______ _____ _____    ______ ____
ROOT
ATOM      1  C   UNL     1       5.111  -0.256  -3.348  0.00  0.00    +0.094 C 
ATOM      2  C   UNL     1       6.585  -0.228  -2.913  0.00  0.00    +0.034 C 
ATOM      3  C   UNL     1       6.390  -1.674  -2.430  0.00  0.00    +0.005 C 
ATOM      4  C   UNL     1       5.256  -1.783  -3.463  0.00  0.00    +0.034 C 
ENDROOT
BRANCH   1   8
ATOM      5  N   UNL     1       2.088   0.013  -1.275  0.00  0.00    -0.299 N 
ATOM      6  C   UNL     1       2.912  -0.286  -2.299  0.00  0.00    +0.300 C 
ATOM      7  O   UNL     1       2.509  -0.965  -3.224  0.00  0.00    -0.253 OA
ATOM      8  N   UNL     1       4.181   0.167  -2.297  0.00  0.00    -0.287 N 
ATOM      9  H   UNL     1       2.409   0.555  -0.537  0.00  0.00    +0.150 HD
ATOM     10  H   UNL     1       4.479   0.772  -1.601  0.00  0.00    +0.151 HD
BRANCH   5  11
ATOM     11  C   UNL     1       0.708  -0.479  -1.276  0.00  0.00    +0.111 C 
BRANCH  11  13
ATOM     12  C   UNL     1      -0.010   1.530   0.025  0.00  0.00    +0.012 C 
ATOM     13  C   UNL     1      -0.005  -0.000  -0.011  0.00  0.00    -0.022 C 
ATOM     14  C   UNL     1       0.726  -0.537   1.222  0.00  0.00    +0.012 C 
ATOM     15  C   UNL     1      -1.446  -0.514  -0.012  0.00  0.00    +0.012 C 
ENDBRANCH  11  13
ENDBRANCH   5  11
ENDBRANCH   1   8
BRANCH   1  16
ATOM     16  C   UNL     1       4.854   0.427  -4.666  0.00  0.00    +0.132 A 
ATOM     17  N   UNL     1       4.819   1.772  -4.864  0.00  0.00    -0.346 N 
ATOM     18  H   UNL     1       4.952   2.453  -4.186  0.00  0.00    +0.167 HD
ATOM     19  C   UNL     1       4.563   1.990  -6.173  0.00  0.00    +0.119 A 
ATOM     20  CA  UNL     1       4.445   0.763  -6.764  0.00  0.00    +0.170 A 
ATOM     21  N   UNL     1       4.638  -0.174  -5.799  0.00  0.00    -0.224 NA
BRANCH  20  22
ATOM     22  C   UNL     1       4.167   0.505  -8.183  0.00  0.00    +0.406 C 
ATOM     23  O   UNL     1       4.018   1.441  -8.957  0.00  0.00    -0.239 OA
ATOM     24  OXT UNL     1       4.085  -0.646  -8.591  0.00  0.00    -0.239 OA
ENDBRANCH  20  22
ENDBRANCH   1  16
TORSDOF 5
