REMARK  Name = ZINC20476467
REMARK  2 active torsions:
REMARK  status: ('A' for Active; 'I' for Inactive)
REMARK    1  A    between atoms: C_9  and  C_12
REMARK    2  A    between atoms: N_14  and  C_15
REMARK                            x       y       z     vdW  Elec       q    Type
REMARK                         _______ _______ _______ _____ _____    ______ ____
ROOT
ATOM      1  C   UNL     1      -0.874   1.585  -1.156  0.00  0.00    +0.238 C 
ATOM      2  O   UNL     1      -0.698   2.272  -2.140  0.00  0.00    -0.273 OA
ATOM      3  N   UNL     1      -1.195   2.161   0.019  0.00  0.00    -0.279 N 
ATOM      4  H   UNL     1      -1.440   1.534   0.890  0.00  0.00    +0.155 HD
ENDROOT
BRANCH   1  13
ATOM      5  C   UNL     1       0.424  -4.153  -3.744  0.00  0.00    +0.000 A 
ATOM      6  C   UNL     1      -0.326  -3.392  -4.622  0.00  0.00    +0.002 A 
ATOM      7  C   UNL     1      -0.742  -2.128  -4.255  0.00  0.00    +0.023 A 
ATOM      8  C   UNL     1      -0.407  -1.621  -3.004  0.00  0.00    +0.031 A 
ATOM      9  C   UNL     1       0.342  -2.386  -2.124  0.00  0.00    -0.026 A 
ATOM     10  C   UNL     1       0.756  -3.652  -2.501  0.00  0.00    +0.005 A 
ATOM     11  C   UNL     1       0.719  -1.872  -0.759  0.00  0.00    +0.039 C 
ATOM     12  C   UNL     1       0.632  -0.347  -0.719  0.00  0.00    +0.036 C 
ATOM     13  C   UNL     1      -0.740   0.087  -1.250  0.00  0.00    +0.157 C 
ATOM     14  N   UNL     1      -0.832  -0.334  -2.654  0.00  0.00    -0.333 N 
ATOM     15  H   UNL     1      -1.230   0.358  -3.411  0.00  0.00    +0.147 HD
ENDBRANCH   1  13
BRANCH   3  16
ATOM     16  C   UNL     1      -1.215   3.558   0.133  0.00  0.00    +0.105 A 
ATOM     17  C   UNL     1      -0.051   4.248   0.449  0.00  0.00    +0.147 A 
ATOM     18  C   UNL     1      -0.075   5.628   0.555  0.00  0.00    +0.040 A 
ATOM     19  C   UNL     1      -1.257   6.318   0.358  0.00  0.00    +0.006 A 
ATOM     20  C   UNL     1      -2.418   5.634   0.049  0.00  0.00    +0.040 A 
ATOM     21  C   UNL     1      -2.401   4.255  -0.065  0.00  0.00    +0.147 A 
ATOM     22  F   UNL     1      -3.536   3.588  -0.368  0.00  0.00    -0.203 F 
ATOM     23  F   UNL     1       1.103   3.574   0.647  0.00  0.00    -0.203 F 
ENDBRANCH   3  16
TORSDOF 2
