REMARK  Name = ZINC67463009
REMARK  8 active torsions:
REMARK  status: ('A' for Active; 'I' for Inactive)
REMARK    1  A    between atoms: C_1  and  C_2
REMARK    2  A    between atoms: C_2  and  C_3
REMARK    3  A    between atoms: C_12  and  C_13
REMARK    4  A    between atoms: N_21  and  C_22
REMARK    5  A    between atoms: C_22  and  C_23
REMARK    6  A    between atoms: C_23  and  C_24
REMARK    7  A    between atoms: C_24  and  C_25
REMARK    8  A    between atoms: C_27  and  C_30
REMARK                            x       y       z     vdW  Elec       q    Type
REMARK                         _______ _______ _______ _____ _____    ______ ____
ROOT
ATOM      1  C   UNL     1      -5.200  -1.617  -3.051  0.00  0.00    -0.039 C 
ATOM      2  C   UNL     1      -5.447  -2.906  -3.067  0.00  0.00    -0.004 C 
ATOM      3  C   UNL     1      -6.740  -3.495  -3.559  0.00  0.00    +0.137 C 
ATOM      4  N   UNL     1      -7.721  -2.417  -3.745  0.00  0.00    -0.282 N 
ATOM      5  C   UNL     1      -7.252  -1.179  -4.390  0.00  0.00    +0.114 C 
ATOM      6  C   UNL     1      -6.171  -0.564  -3.494  0.00  0.00    +0.054 C 
ATOM      7  C   UNL     1      -9.000  -2.556  -3.342  0.00  0.00    +0.302 C 
ATOM      8  O   UNL     1      -9.768  -1.616  -3.421  0.00  0.00    -0.253 OA
ATOM      9  N   UNL     1      -9.428  -3.736  -2.851  0.00  0.00    -0.299 N 
ATOM     10  H   UNL     1      -8.799  -4.463  -2.720  0.00  0.00    +0.150 HD
ENDROOT
BRANCH   1  20
ATOM     11  C   UNL     1      -1.417  -0.505   0.011  0.00  0.00    -0.024 A 
ATOM     12  C   UNL     1      -2.019  -0.838   1.205  0.00  0.00    +0.005 A 
ATOM     13  C   UNL     1      -3.320  -1.321   1.230  0.00  0.00    +0.001 A 
ATOM     14  C   UNL     1      -4.028  -1.474   0.059  0.00  0.00    +0.010 A 
ATOM     15  C   UNL     1      -3.432  -1.140  -1.156  0.00  0.00    +0.007 A 
ATOM     16  C   UNL     1      -2.117  -0.646  -1.182  0.00  0.00    +0.050 A 
ATOM     17  N   UNL     1      -1.796  -0.398  -2.500  0.00  0.00    -0.360 N 
ATOM     18  H   UNL     1      -0.943  -0.053  -2.808  0.00  0.00    +0.165 HD
ATOM     19  C   UNL     1      -2.850  -0.708  -3.308  0.00  0.00    +0.091 A 
ATOM     20  C   UNL     1      -3.881  -1.175  -2.558  0.00  0.00    +0.003 A 
BRANCH  11  22
ATOM     21  C   UNL     1      -0.026   1.549   0.003  0.00  0.00    +0.009 C 
ATOM     22  C   UNL     1      -0.004   0.019   0.000  0.00  0.00    +0.034 C 
ENDBRANCH  11  22
ENDBRANCH   1  20
BRANCH   9  23
ATOM     23  C   UNL     1     -10.842  -3.920  -2.515  0.00  0.00    +0.106 C 
BRANCH  23  24
ATOM     24  C   UNL     1     -11.059  -5.338  -1.982  0.00  0.00    +0.028 C 
BRANCH  24  25
ATOM     25  C   UNL     1     -12.535  -5.531  -1.631  0.00  0.00    +0.100 C 
BRANCH  25  26
ATOM     26  C   UNL     1     -12.749  -6.927  -1.107  0.00  0.00    +0.227 A 
ATOM     27  N   UNL     1     -12.673  -7.294   0.142  0.00  0.00    -0.196 NA
ATOM     28  C   UNL     1     -12.919  -8.605   0.252  0.00  0.00    +0.169 A 
ATOM     29  N   UNL     1     -13.156  -9.090  -0.934  0.00  0.00    -0.062 NA
ATOM     30  O   UNL     1     -13.055  -8.003  -1.842  0.00  0.00    -0.338 OA
ATOM     31  C   UNL     1     -12.921  -9.392   1.537  0.00  0.00    +0.091 C 
ENDBRANCH  25  26
ENDBRANCH  24  25
ENDBRANCH  23  24
ENDBRANCH   9  23
TORSDOF 6
