REMARK  Name = ZINC05189675
REMARK  5 active torsions:
REMARK  status: ('A' for Active; 'I' for Inactive)
REMARK    1  A    between atoms: C_1  and  C_2
REMARK    2  A    between atoms: C_2  and  C_3
REMARK    3  A    between atoms: C_2  and  C_4
REMARK    4  A    between atoms: C_7  and  C_10
REMARK    5  A    between atoms: C_15  and  C_18
REMARK                            x       y       z     vdW  Elec       q    Type
REMARK                         _______ _______ _______ _____ _____    ______ ____
ROOT
ATOM      1  C   UNL     1       2.056   1.393   1.345  0.00  0.00    +0.067 C 
ATOM      2  N   UNL     1       1.357   1.449   2.430  0.00  0.00    -0.184 NA
ATOM      3  N   UNL     1      -0.019   1.691   2.402  0.00  0.00    -0.206 N 
ATOM      4  C   UNL     1      -0.711   1.574   1.253  0.00  0.00    +0.240 C 
ATOM      5  O   UNL     1      -1.890   1.859   1.219  0.00  0.00    -0.273 OA
ATOM      6  C   UNL     1      -0.013   1.086   0.008  0.00  0.00    +0.114 C 
ATOM      7  C   UNL     1       1.422   1.617  -0.003  0.00  0.00    +0.075 C 
ATOM      8  H   UNL     1      -0.479   1.946   3.217  0.00  0.00    +0.177 HD
ENDROOT
BRANCH   6   9
ATOM      9  C   UNL     1      -0.744   1.586  -1.211  0.00  0.00    -0.010 A 
ATOM     10  C   UNL     1      -0.967   2.869  -1.538  0.00  0.00    +0.088 A 
ATOM     11  N   UNL     1      -1.661   2.937  -2.715  0.00  0.00    -0.360 N 
ATOM     12  H   UNL     1      -1.935   3.757  -3.154  0.00  0.00    +0.165 HD
ATOM     13  C   UNL     1      -1.916   1.667  -3.182  0.00  0.00    +0.047 A 
ATOM     14  C   UNL     1      -1.353   0.765  -2.260  0.00  0.00    +0.004 A 
ATOM     15  C   UNL     1      -1.458  -0.610  -2.478  0.00  0.00    +0.010 A 
ATOM     16  C   UNL     1      -2.109  -1.073  -3.586  0.00  0.00    +0.001 A 
ATOM     17  C   UNL     1      -2.666  -0.188  -4.498  0.00  0.00    +0.002 A 
ATOM     18  C   UNL     1      -2.574   1.173  -4.303  0.00  0.00    +0.026 A 
ENDBRANCH   6   9
BRANCH   1  22
ATOM     19  C   UNL     1       6.213   0.567   1.582  0.00  0.00    -0.045 A 
ATOM     20  C   UNL     1       5.456   0.629   2.739  0.00  0.00    +0.004 A 
ATOM     21  C   UNL     1       4.104   0.897   2.669  0.00  0.00    +0.010 A 
ATOM     22  C   UNL     1       3.501   1.107   1.427  0.00  0.00    -0.002 A 
ATOM     23  C   UNL     1       4.270   1.038   0.264  0.00  0.00    +0.010 A 
ATOM     24  C   UNL     1       5.621   0.773   0.349  0.00  0.00    +0.004 A 
BRANCH  19  26
ATOM     25  C   UNL     1       7.999  -1.006   0.887  0.00  0.00    +0.012 C 
ATOM     26  C   UNL     1       7.688   0.273   1.667  0.00  0.00    +0.013 C 
ATOM     27  C   UNL     1       8.476   1.440   1.067  0.00  0.00    +0.012 C 
ENDBRANCH  19  26
ENDBRANCH   1  22
TORSDOF 3
