REMARK  Name = ZINC19501981
REMARK  10 active torsions:
REMARK  status: ('A' for Active; 'I' for Inactive)
REMARK    1  A    between atoms: C_1  and  C_2
REMARK    2  A    between atoms: C_2  and  C_3
REMARK    3  A    between atoms: C_3  and  C_4
REMARK    4  A    between atoms: C_4  and  C_31
REMARK    5  A    between atoms: C_9  and  C_12
REMARK    6  A    between atoms: C_15  and  C_18
REMARK    7  A    between atoms: N_21  and  C_24
REMARK    8  A    between atoms: C_27  and  C_30
REMARK    9  A    between atoms: C_31  and  O_33
REMARK   10  A    between atoms: O_33  and  C_34
REMARK                            x       y       z     vdW  Elec       q    Type
REMARK                         _______ _______ _______ _____ _____    ______ ____
ROOT
ATOM      1  C   UNL     1      -1.413  -2.063   0.004  0.00  0.00    +0.129 C 
ATOM      2  C   UNL     1      -2.828  -2.621  -0.107  0.00  0.00    +0.120 C 
ATOM      3  C   UNL     1      -3.045  -2.301  -1.634  0.00  0.00    +0.111 C 
ATOM      4  C   UNL     1      -1.823  -2.811  -2.268  0.00  0.00    +0.097 C 
ATOM      5  N   UNL     1      -0.747  -2.578  -1.237  0.00  0.00    -0.293 NA
ATOM      6  C   UNL     1      -4.480  -2.397  -1.759  0.00  0.00    +0.232 C 
ATOM      7  O   UNL     1      -5.113  -2.785  -2.717  0.00  0.00    -0.274 OA
ATOM      8  N   UNL     1      -4.971  -1.954  -0.556  0.00  0.00    -0.210 N 
ATOM      9  C   UNL     1      -4.002  -1.859   0.421  0.00  0.00    +0.232 C 
ATOM     10  O   UNL     1      -4.076  -1.278   1.483  0.00  0.00    -0.274 OA
ATOM     11  H   UNL     1      -0.052  -1.927  -1.571  0.00  0.00    +0.124 HD
ENDROOT
BRANCH   4  12
ATOM     12  C   UNL     1      -1.970  -4.277  -2.588  0.00  0.00    -0.030 A 
ATOM     13  C   UNL     1      -1.799  -5.222  -1.593  0.00  0.00    +0.005 A 
ATOM     14  C   UNL     1      -1.933  -6.566  -1.887  0.00  0.00    +0.003 A 
ATOM     15  C   UNL     1      -2.238  -6.965  -3.175  0.00  0.00    -0.050 A 
ATOM     16  C   UNL     1      -2.410  -6.020  -4.169  0.00  0.00    +0.003 A 
ATOM     17  C   UNL     1      -2.280  -4.676  -3.874  0.00  0.00    +0.005 A 
ATOM     18  C   UNL     1      -2.384  -8.430  -3.495  0.00  0.00    +0.044 C 
ENDBRANCH   4  12
BRANCH   8  19
ATOM     19  C   UNL     1      -6.320  -1.641  -0.336  0.00  0.00    +0.044 A 
ATOM     20  C   UNL     1      -6.736  -1.193   0.910  0.00  0.00    +0.024 A 
ATOM     21  C   UNL     1      -8.065  -0.886   1.123  0.00  0.00    +0.005 A 
ATOM     22  C   UNL     1      -8.982  -1.024   0.097  0.00  0.00    -0.050 A 
ATOM     23  C   UNL     1      -8.571  -1.471  -1.145  0.00  0.00    +0.005 A 
ATOM     24  C   UNL     1      -7.241  -1.774  -1.366  0.00  0.00    +0.024 A 
ATOM     25  C   UNL     1     -10.432  -0.689   0.334  0.00  0.00    +0.044 C 
ENDBRANCH   8  19
BRANCH   1  26
ATOM     26  C   UNL     1      -0.723  -2.592   1.236  0.00  0.00    +0.328 C 
ATOM     27  O   UNL     1      -1.375  -2.916   2.201  0.00  0.00    -0.249 OA
BRANCH  26  28
ATOM     28  O   UNL     1       0.614  -2.702   1.261  0.00  0.00    -0.467 OA
ATOM     29  C   UNL     1       1.201  -3.210   2.461  0.00  0.00    +0.280 C 
ENDBRANCH  26  28
ENDBRANCH   1  26
BRANCH   1  30
ATOM     30  C   UNL     1      -1.433  -0.534   0.013  0.00  0.00    +0.034 C 
BRANCH  30  32
ATOM     31  C   UNL     1      -0.019   1.526   0.045  0.00  0.00    +0.004 C 
ATOM     32  C   UNL     1       0.002  -0.004   0.036  0.00  0.00    -0.001 C 
ENDBRANCH  30  32
ENDBRANCH   1  30
TORSDOF 6
