REMARK  Name = ZINC44870107
REMARK  6 active torsions:
REMARK  status: ('A' for Active; 'I' for Inactive)
REMARK    1  A    between atoms: C_1  and  C_2
REMARK    2  A    between atoms: C_2  and  C_3
REMARK    3  A    between atoms: C_2  and  C_4
REMARK    4  A    between atoms: C_4  and  C_6
REMARK    5  A    between atoms: C_4  and  C_10
REMARK    6  A    between atoms: N_7  and  O_8
REMARK                            x       y       z     vdW  Elec       q    Type
REMARK                         _______ _______ _______ _____ _____    ______ ____
ROOT
ATOM      1  C   UNL     1      -1.141  -2.028  -0.017  0.00  0.00    +0.226 C 
ATOM      2  O   UNL     1      -1.541  -2.677  -0.960  0.00  0.00    -0.275 OA
ATOM      3  N   UNL     1      -0.528  -2.643   1.013  0.00  0.00    -0.301 N 
ATOM      4  C   UNL     1       0.045  -1.863   2.119  0.00  0.00    +0.108 C 
ATOM      5  C   UNL     1      -0.527  -2.387   3.439  0.00  0.00    +0.023 C 
ATOM      6  C   UNL     1      -0.276  -3.893   3.539  0.00  0.00    -0.005 C 
ATOM      7  C   UNL     1      -0.822  -4.407   4.874  0.00  0.00    +0.004 C 
ATOM      8  C   UNL     1      -0.580  -5.913   4.981  0.00  0.00    +0.000 C 
ATOM      9  C   UNL     1      -1.295  -6.626   3.831  0.00  0.00    +0.000 C 
ATOM     10  C   UNL     1      -0.746  -6.117   2.498  0.00  0.00    +0.005 C 
ATOM     11  C   UNL     1      -0.983  -4.609   2.386  0.00  0.00    +0.010 C 
ATOM     12  C   UNL     1      -0.424  -4.108   1.057  0.00  0.00    +0.111 C 
ENDROOT
BRANCH   1  13
ATOM     13  C   UNL     1      -1.332  -0.533   0.004  0.00  0.00    +0.144 C 
BRANCH  13  14
ATOM     14  C   UNL     1      -2.656  -0.204   0.643  0.00  0.00    +0.144 C 
ATOM     15  N   UNL     1      -3.700  -0.017  -0.093  0.00  0.00    -0.076 NA
ATOM     16  N   UNL     1      -2.752  -0.102   2.013  0.00  0.00    -0.343 N 
ATOM     17  H   UNL     1      -1.968  -0.242   2.567  0.00  0.00    +0.144 HD
ATOM     18  H   UNL     1      -3.605   0.110   2.425  0.00  0.00    +0.144 HD
BRANCH  15  19
ATOM     19  O   UNL     1      -4.945   0.292   0.507  0.00  0.00    -0.408 OA
ATOM     20  H   UNL     1      -5.667   0.415  -0.124  0.00  0.00    +0.328 HD
ENDBRANCH  15  19
ENDBRANCH  13  14
BRANCH  13  22
ATOM     21  C   UNL     1      -1.486   1.523  -1.407  0.00  0.00    +0.008 C 
ATOM     22  C   UNL     1      -1.310   0.004  -1.429  0.00  0.00    +0.002 C 
ATOM     23  C   UNL     1       0.028  -0.346  -2.084  0.00  0.00    +0.008 C 
ENDBRANCH  13  22
ENDBRANCH   1  13
TORSDOF 4
