REMARK  Name = ZINC33750352
REMARK  9 active torsions:
REMARK  status: ('A' for Active; 'I' for Inactive)
REMARK    1  A    between atoms: C_1  and  C_2
REMARK    2  A    between atoms: C_2  and  C_3
REMARK    3  A    between atoms: C_3  and  C_5
REMARK    4  A    between atoms: C_3  and  S_14
REMARK    5  A    between atoms: N_7  and  C_8
REMARK    6  A    between atoms: C_8  and  C_9
REMARK    7  A    between atoms: S_14  and  C_15
REMARK    8  A    between atoms: C_19  and  C_23
REMARK    9  A    between atoms: N_26  and  C_27
REMARK                            x       y       z     vdW  Elec       q    Type
REMARK                         _______ _______ _______ _____ _____    ______ ____
ROOT
ATOM      1  C   UNL     1      -2.066   1.826  -1.281  0.00  0.00    +0.178 A 
ATOM      2  N   UNL     1      -1.469   2.337  -0.228  0.00  0.00    -0.201 NA
ATOM      3  C   UNL     1      -1.306   3.668  -0.100  0.00  0.00    +0.187 A 
ATOM      4  C   UNL     1      -1.817   4.532  -1.179  0.00  0.00    +0.079 A 
ATOM      5  C   UNL     1      -1.530   5.829  -0.814  0.00  0.00    +0.046 A 
ATOM      6  N   UNL     1      -0.904   5.792   0.369  0.00  0.00    -0.279 N 
ATOM      7  N   UNL     1      -0.771   4.466   0.798  0.00  0.00    -0.153 NA
ATOM      8  H   UNL     1      -0.589   6.569   0.857  0.00  0.00    +0.189 HD
ATOM      9  C   UNL     1      -1.862   7.068  -1.605  0.00  0.00    +0.066 C 
ATOM     10  C   UNL     1      -2.468   3.881  -2.312  0.00  0.00    +0.115 A 
ATOM     11  N   UNL     1      -2.973   4.613  -3.362  0.00  0.00    -0.344 N 
ATOM     12  N   UNL     1      -2.549   2.551  -2.297  0.00  0.00    -0.276 N 
ATOM     13  H   UNL     1      -2.900   5.581  -3.357  0.00  0.00    +0.144 HD
ATOM     14  H   UNL     1      -3.402   4.163  -4.106  0.00  0.00    +0.144 HD
ENDROOT
BRANCH  12  15
ATOM     15  C   UNL     1      -3.151   1.904  -3.355  0.00  0.00    +0.050 A 
ATOM     16  C   UNL     1      -2.575   1.950  -4.623  0.00  0.00    +0.027 A 
ATOM     17  C   UNL     1      -3.183   1.301  -5.678  0.00  0.00    +0.017 A 
ATOM     18  C   UNL     1      -4.362   0.604  -5.479  0.00  0.00    +0.018 A 
ATOM     19  C   UNL     1      -4.938   0.554  -4.221  0.00  0.00    +0.017 A 
ATOM     20  C   UNL     1      -4.336   1.196  -3.158  0.00  0.00    +0.027 A 
ATOM     21 BR   UNL     1      -5.189  -0.283  -6.930  0.00  0.00    -0.050 Br
ENDBRANCH  12  15
BRANCH   1  22
ATOM     22  S   UNL     1      -2.236   0.074  -1.365  0.00  0.00    -0.075 S 
BRANCH  22  23
ATOM     23  C   UNL     1      -1.430  -0.517   0.149  0.00  0.00    +0.140 C 
BRANCH  23  24
ATOM     24  C   UNL     1      -2.244  -0.101   1.347  0.00  0.00    +0.227 C 
ATOM     25  O   UNL     1      -3.432   0.110   1.229  0.00  0.00    -0.275 OA
ATOM     26  N   UNL     1      -1.651   0.037   2.550  0.00  0.00    -0.307 N 
ATOM     27  H   UNL     1      -0.700  -0.132   2.644  0.00  0.00    +0.149 HD
BRANCH  26  28
ATOM     28  C   UNL     1      -2.442   0.442   3.714  0.00  0.00    +0.178 C 
BRANCH  28  29
ATOM     29  C   UNL     1      -1.549   0.521   4.925  0.00  0.00    +0.122 A 
ATOM     30  C   UNL     1      -0.879   1.612   5.338  0.00  0.00    +0.046 A 
ATOM     31  C   UNL     1      -0.172   1.242   6.505  0.00  0.00    +0.041 A 
ATOM     32  C   UNL     1      -0.453  -0.053   6.736  0.00  0.00    +0.195 A 
ATOM     33  O   UNL     1      -1.292  -0.483   5.779  0.00  0.00    -0.466 OA
ENDBRANCH  28  29
ENDBRANCH  26  28
ENDBRANCH  23  24
BRANCH  23  35
ATOM     34  C   UNL     1      -0.385  -2.460  -1.024  0.00  0.00    +0.005 C 
ATOM     35  C   UNL     1      -1.325  -2.043   0.109  0.00  0.00    +0.020 C 
ENDBRANCH  23  35
ENDBRANCH  22  23
ENDBRANCH   1  22
TORSDOF 7
