REMARK  Name = ZINC37380668
REMARK  9 active torsions:
REMARK  status: ('A' for Active; 'I' for Inactive)
REMARK    1  A    between atoms: C_1  and  C_2
REMARK    2  A    between atoms: C_2  and  C_3
REMARK    3  A    between atoms: C_3  and  C_4
REMARK    4  A    between atoms: C_8  and  C_18
REMARK    5  A    between atoms: N_10  and  C_11
REMARK    6  A    between atoms: C_19  and  N_21
REMARK    7  A    between atoms: N_24  and  C_27
REMARK    8  A    between atoms: C_27  and  C_28
REMARK    9  A    between atoms: C_33  and  O_34
REMARK                            x       y       z     vdW  Elec       q    Type
REMARK                         _______ _______ _______ _____ _____    ______ ____
ROOT
ATOM      1  C   UNL     1       0.768  -2.025   1.247  0.00  0.00    +0.134 A 
ATOM      2  N   UNL     1      -0.223  -2.671   1.821  0.00  0.00    -0.212 NA
ATOM      3  C   UNL     1      -0.249  -4.003   1.834  0.00  0.00    +0.169 A 
ATOM      4  C   UNL     1       0.805  -4.709   1.223  0.00  0.00    +0.082 A 
ATOM      5  C   UNL     1       0.528  -6.085   1.383  0.00  0.00    +0.073 A 
ATOM      6  N   UNL     1      -0.594  -6.208   2.033  0.00  0.00    -0.169 NA
ATOM      7  N   UNL     1      -1.109  -4.940   2.332  0.00  0.00    -0.214 N 
ATOM      8  C   UNL     1       1.387  -7.219   0.885  0.00  0.00    +0.068 C 
ATOM      9  C   UNL     1       1.843  -3.971   0.622  0.00  0.00    +0.136 A 
ATOM     10  N   UNL     1       1.776  -2.644   0.658  0.00  0.00    -0.217 NA
ENDROOT
BRANCH   7  11
ATOM     11  C   UNL     1      -2.300  -4.679   3.022  0.00  0.00    +0.068 A 
ATOM     12  C   UNL     1      -2.388  -3.579   3.865  0.00  0.00    +0.030 A 
ATOM     13  C   UNL     1      -3.563  -3.324   4.544  0.00  0.00    +0.040 A 
ATOM     14  C   UNL     1      -4.653  -4.163   4.385  0.00  0.00    +0.124 A 
ATOM     15  C   UNL     1      -4.567  -5.261   3.545  0.00  0.00    +0.040 A 
ATOM     16  C   UNL     1      -3.396  -5.517   2.860  0.00  0.00    +0.030 A 
ATOM     17  F   UNL     1      -5.801  -3.911   5.051  0.00  0.00    -0.205 F 
ENDBRANCH   7  11
BRANCH   9  18
ATOM     18  N   UNL     1       2.902  -4.610   0.008  0.00  0.00    -0.318 N 
ATOM     19  C   UNL     1       2.899  -4.855  -1.442  0.00  0.00    +0.088 C 
ATOM     20  C   UNL     1       4.226  -4.354  -2.022  0.00  0.00    -0.059 C 
ATOM     21  N   UNL     1       5.342  -4.982  -1.303  0.00  0.00    +0.384 N 
ATOM     22  C   UNL     1       5.337  -4.553   0.101  0.00  0.00    -0.059 C 
ATOM     23  C   UNL     1       4.067  -5.059   0.785  0.00  0.00    +0.088 C 
ATOM     24  H   UNL     1       5.246  -5.986  -1.347  0.00  0.00    -0.081 HD
BRANCH  21  25
ATOM     25  C   UNL     1       6.610  -4.587  -1.929  0.00  0.00    -0.039 C 
BRANCH  25  26
ATOM     26  C   UNL     1       7.747  -5.327  -1.272  0.00  0.00    -0.022 A 
ATOM     27  C   UNL     1       8.514  -4.699  -0.309  0.00  0.00    +0.005 A 
ATOM     28  C   UNL     1       9.558  -5.377   0.294  0.00  0.00    +0.000 A 
ATOM     29  C   UNL     1       9.835  -6.684  -0.064  0.00  0.00    +0.004 A 
ATOM     30  C   UNL     1       9.071  -7.315  -1.025  0.00  0.00    +0.045 A 
ATOM     31  C   UNL     1       8.020  -6.639  -1.628  0.00  0.00    +0.118 A 
BRANCH  31  32
ATOM     32  O   UNL     1       7.262  -7.260  -2.570  0.00  0.00    -0.507 OA
ATOM     33  H   UNL     1       7.593  -7.154  -3.473  0.00  0.00    +0.292 HD
ENDBRANCH  31  32
ENDBRANCH  25  26
ENDBRANCH  21  25
ENDBRANCH   9  18
BRANCH   1  34
ATOM     34  C   UNL     1       0.752  -0.518   1.258  0.00  0.00    +0.076 C 
BRANCH  34  36
ATOM     35  C   UNL     1       0.002   1.522   0.027  0.00  0.00    +0.004 C 
ATOM     36  C   UNL     1       0.018  -0.008   0.017  0.00  0.00    +0.004 C 
ENDBRANCH  34  36
ENDBRANCH   1  34
TORSDOF 7
