REMARK  Name = ZINC65440401
REMARK  7 active torsions:
REMARK  status: ('A' for Active; 'I' for Inactive)
REMARK    1  A    between atoms: C_1  and  C_2
REMARK    2  A    between atoms: C_2  and  C_3
REMARK    3  A    between atoms: C_2  and  N_4
REMARK    4  A    between atoms: C_7  and  C_9
REMARK    5  A    between atoms: C_9  and  N_10
REMARK    6  A    between atoms: C_16  and  N_19
REMARK    7  A    between atoms: C_20  and  C_22
REMARK                            x       y       z     vdW  Elec       q    Type
REMARK                         _______ _______ _______ _____ _____    ______ ____
ROOT
ATOM      1  N   UNL     1       0.701  -4.016   4.430  0.00  0.00    -0.299 N 
ATOM      2  C   UNL     1       0.324  -5.204   4.943  0.00  0.00    +0.302 C 
ATOM      3  O   UNL     1      -0.294  -5.994   4.257  0.00  0.00    -0.253 OA
ATOM      4  N   UNL     1       0.632  -5.515   6.218  0.00  0.00    -0.286 N 
ATOM      5  C   UNL     1       0.331  -6.848   6.757  0.00  0.00    +0.111 C 
ATOM      6  C   UNL     1       1.612  -7.441   7.351  0.00  0.00    +0.041 C 
ATOM      7  C   UNL     1       2.193  -6.465   8.377  0.00  0.00    +0.076 C 
ATOM      8  C   UNL     1       2.546  -5.146   7.686  0.00  0.00    +0.041 C 
ATOM      9  C   UNL     1       1.280  -4.529   7.093  0.00  0.00    +0.111 C 
ATOM     10  H   UNL     1       1.128  -3.356   4.997  0.00  0.00    +0.150 HD
ENDROOT
BRANCH   7  11
ATOM     11  N   UNL     1       3.401  -7.043   8.971  0.00  0.00    -0.308 N 
ATOM     12  C   UNL     1       3.800  -6.654  10.199  0.00  0.00    +0.251 C 
ATOM     13  O   UNL     1       3.157  -5.823  10.813  0.00  0.00    -0.270 OA
ATOM     14  H   UNL     1       3.913  -7.705   8.482  0.00  0.00    +0.149 HD
BRANCH  12  15
ATOM     15  C   UNL     1       5.008  -7.232  10.793  0.00  0.00    +0.074 A 
ATOM     16  C   UNL     1       5.582  -6.978  12.030  0.00  0.00    +0.021 A 
ATOM     17  C   UNL     1       6.728  -7.682  12.313  0.00  0.00    +0.008 A 
ATOM     18  C   UNL     1       7.210  -8.553  11.393  0.00  0.00    +0.046 A 
ATOM     19  S   UNL     1       6.120  -8.452  10.119  0.00  0.00    -0.092 S 
ENDBRANCH  12  15
ENDBRANCH   7  11
BRANCH   1  20
ATOM     20  C   UNL     1       0.465  -3.722   3.014  0.00  0.00    +0.107 C 
BRANCH  20  24
ATOM     21  N   UNL     1       0.717  -0.493   1.190  0.00  0.00    +0.381 N 
ATOM     22  C   UNL     1      -0.012  -0.097   2.415  0.00  0.00    -0.078 C 
ATOM     23  C   UNL     1       0.149  -1.245   3.428  0.00  0.00    -0.015 C 
ATOM     24  C   UNL     1       0.983  -2.319   2.691  0.00  0.00    -0.012 C 
ATOM     25  C   UNL     1       0.746  -1.978   1.198  0.00  0.00    -0.074 C 
ATOM     26  H   UNL     1       1.657  -0.126   1.210  0.00  0.00    -0.081 HD
BRANCH  21  28
ATOM     27  C   UNL     1      -0.013   1.523   0.007  0.00  0.00    -0.014 C 
ATOM     28  C   UNL     1       0.007  -0.006  -0.001  0.00  0.00    -0.075 C 
ATOM     29  C   UNL     1       0.725  -0.501  -1.259  0.00  0.00    -0.014 C 
ENDBRANCH  21  28
ENDBRANCH  20  24
ENDBRANCH   1  20
TORSDOF 5
