REMARK  Name = ZINC12711348
REMARK  9 active torsions:
REMARK  status: ('A' for Active; 'I' for Inactive)
REMARK    1  A    between atoms: C_3  and  C_6
REMARK    2  A    between atoms: C_6  and  C_8
REMARK    3  A    between atoms: C_6  and  N_18
REMARK    4  A    between atoms: N_10  and  C_11
REMARK    5  A    between atoms: C_11  and  C_12
REMARK    6  A    between atoms: N_18  and  C_19
REMARK    7  A    between atoms: C_26  and  C_28
REMARK    8  A    between atoms: C_29  and  N_36
REMARK    9  A    between atoms: C_30  and  C_33
REMARK                            x       y       z     vdW  Elec       q    Type
REMARK                         _______ _______ _______ _____ _____    ______ ____
ROOT
ATOM      1  N   UNL     1       4.411  -3.596  -5.034  0.00  0.00    -0.250 N 
ATOM      2  C   UNL     1       4.400  -2.588  -5.928  0.00  0.00    +0.262 C 
ATOM      3  O   UNL     1       4.762  -1.474  -5.594  0.00  0.00    -0.269 OA
ENDROOT
BRANCH   1   4
ATOM      4  C   UNL     1       4.026  -4.883  -5.426  0.00  0.00    +0.038 A 
ATOM      5  C   UNL     1       4.982  -5.796  -5.852  0.00  0.00    +0.026 A 
ATOM      6  C   UNL     1       4.600  -7.067  -6.234  0.00  0.00    +0.040 A 
ATOM      7  C   UNL     1       3.264  -7.428  -6.201  0.00  0.00    +0.124 A 
ATOM      8  C   UNL     1       2.308  -6.519  -5.782  0.00  0.00    +0.040 A 
ATOM      9  C   UNL     1       2.686  -5.248  -5.395  0.00  0.00    +0.026 A 
ATOM     10  F   UNL     1       2.892  -8.671  -6.580  0.00  0.00    -0.205 F 
ENDBRANCH   1   4
BRANCH   2  11
ATOM     11  C   UNL     1       3.952  -2.831  -7.300  0.00  0.00    +0.116 A 
ATOM     12  C   UNL     1       3.976  -1.976  -8.404  0.00  0.00    +0.076 A 
ATOM     13  C   UNL     1       3.459  -2.573  -9.553  0.00  0.00    +0.155 A 
ATOM     14  N   UNL     1       3.023  -3.812  -9.494  0.00  0.00    -0.203 NA
ATOM     15  S   UNL     1       3.239  -4.300  -8.011  0.00  0.00    +0.019 S 
BRANCH  13  16
ATOM     16  C   UNL     1       3.402  -1.823 -10.821  0.00  0.00    +0.262 C 
ATOM     17  O   UNL     1       3.808  -0.678 -10.869  0.00  0.00    -0.269 OA
ATOM     18  N   UNL     1       2.901  -2.407 -11.928  0.00  0.00    -0.324 N 
ATOM     19  H   UNL     1       2.577  -3.321 -11.890  0.00  0.00    +0.145 HD
ATOM     20  H   UNL     1       2.863  -1.914 -12.762  0.00  0.00    +0.145 HD
ENDBRANCH  13  16
BRANCH  12  21
ATOM     21  N   UNL     1       4.461  -0.676  -8.362  0.00  0.00    -0.355 N 
ATOM     22  H   UNL     1       4.809  -0.315  -7.531  0.00  0.00    +0.142 HD
ATOM     23  H   UNL     1       4.452  -0.129  -9.162  0.00  0.00    +0.142 HD
ENDBRANCH  12  21
ENDBRANCH   2  11
BRANCH   1  24
ATOM     24  C   UNL     1       4.826  -3.345  -3.651  0.00  0.00    +0.204 C 
BRANCH  24  27
ATOM     25  C   UNL     1       8.078  -5.001  -2.558  0.00  0.00    +0.008 A 
ATOM     26  C   UNL     1       7.194  -3.973  -2.827  0.00  0.00    +0.013 A 
ATOM     27  C   UNL     1       5.956  -4.274  -3.289  0.00  0.00    +0.019 A 
ATOM     28  S   UNL     1       6.009  -6.058  -3.352  0.00  0.00    -0.099 S 
ATOM     29  C   UNL     1       7.680  -6.280  -2.765  0.00  0.00    +0.045 A 
ENDBRANCH  24  27
BRANCH  24  30
ATOM     30  C   UNL     1       3.662  -3.586  -2.725  0.00  0.00    +0.239 C 
ATOM     31  O   UNL     1       2.539  -3.682  -3.175  0.00  0.00    -0.273 OA
ATOM     32  N   UNL     1       3.867  -3.694  -1.398  0.00  0.00    -0.311 N 
ATOM     33  H   UNL     1       4.765  -3.616  -1.038  0.00  0.00    +0.149 HD
BRANCH  32  34
ATOM     34  C   UNL     1       2.735  -3.928  -0.498  0.00  0.00    +0.135 C 
BRANCH  34  35
ATOM     35  C   UNL     1       3.239  -4.010   0.945  0.00  0.00    +0.135 C 
ATOM     36  C   UNL     1       2.076  -4.380   1.885  0.00  0.00    +0.035 C 
ATOM     37  C   UNL     1       2.017  -3.207   2.894  0.00  0.00    +0.031 C 
ATOM     38  C   UNL     1       3.438  -2.600   2.771  0.00  0.00    +0.160 C 
ATOM     39  O   UNL     1       3.738  -2.729   1.365  0.00  0.00    -0.375 OA
ENDBRANCH  34  35
ENDBRANCH  32  34
ENDBRANCH  24  30
ENDBRANCH   1  24
TORSDOF 9
