REMARK  Name = ZINC00914325
REMARK  9 active torsions:
REMARK  status: ('A' for Active; 'I' for Inactive)
REMARK    1  A    between atoms: C_1  and  C_2
REMARK    2  A    between atoms: C_7  and  C_15
REMARK    3  A    between atoms: C_13  and  C_14
REMARK    4  A    between atoms: C_15  and  N_16
REMARK    5  A    between atoms: N_16  and  C_17
REMARK    6  A    between atoms: N_16  and  S_27
REMARK    7  A    between atoms: C_17  and  C_18
REMARK    8  A    between atoms: S_27  and  C_30
REMARK    9  A    between atoms: C_34  and  C_36
REMARK                            x       y       z     vdW  Elec       q    Type
REMARK                         _______ _______ _______ _____ _____    ______ ____
ROOT
ATOM      1  N   UNL     1      -0.918   2.053  -1.210  0.00  0.00    -0.168 NA
ENDROOT
BRANCH   1   2
ATOM      2  S   UNL     1      -0.359   1.803   0.328  0.00  0.00    +0.061 S 
ATOM      3  O   UNL     1      -0.516   0.417   0.597  0.00  0.00    -0.153 OA
ATOM      4  O   UNL     1       0.899   2.459   0.414  0.00  0.00    -0.153 OA
BRANCH   2   5
ATOM      5  C   UNL     1      -1.446   2.655   1.423  0.00  0.00    +0.106 A 
ATOM      6  C   UNL     1      -1.268   4.005   1.663  0.00  0.00    +0.028 A 
ATOM      7  C   UNL     1      -2.123   4.673   2.518  0.00  0.00    +0.002 A 
ATOM      8  C   UNL     1      -3.151   3.991   3.140  0.00  0.00    +0.012 A 
ATOM      9  C   UNL     1      -3.327   2.640   2.904  0.00  0.00    +0.057 A 
ATOM     10  C   UNL     1      -2.474   1.972   2.045  0.00  0.00    +0.041 A 
BRANCH   9  11
ATOM     11  C   UNL     1      -4.448   1.896   3.583  0.00  0.00    +0.417 C 
ATOM     12  F   UNL     1      -3.997   1.385   4.804  0.00  0.00    -0.166 F 
ATOM     13  F   UNL     1      -5.518   2.769   3.809  0.00  0.00    -0.166 F 
ATOM     14  F   UNL     1      -4.871   0.843   2.764  0.00  0.00    -0.166 F 
ENDBRANCH   9  11
ENDBRANCH   2   5
ENDBRANCH   1   2
BRANCH   1  15
ATOM     15  C   UNL     1      -0.317   3.094  -2.048  0.00  0.00    +0.150 C 
BRANCH  15  22
ATOM     16  C   UNL     1       4.631  -0.216  -7.356  0.00  0.00    +0.044 C 
ATOM     17  C   UNL     1       3.534   0.390  -6.521  0.00  0.00    -0.046 A 
ATOM     18  C   UNL     1       2.261   0.533  -7.056  0.00  0.00    +0.004 A 
ATOM     19  C   UNL     1       1.252   1.081  -6.316  0.00  0.00    +0.010 A 
ATOM     20  C   UNL     1       1.504   1.501  -5.005  0.00  0.00    -0.001 A 
ATOM     21  C   UNL     1       0.445   2.087  -4.182  0.00  0.00    +0.020 A 
ATOM     22  C   UNL     1       0.749   2.482  -2.921  0.00  0.00    +0.033 A 
ATOM     23  C   UNL     1       2.058   2.317  -2.420  0.00  0.00    +0.254 A 
ATOM     24  O   UNL     1       2.308   2.675  -1.282  0.00  0.00    -0.268 OA
ATOM     25  N   UNL     1       3.036   1.776  -3.168  0.00  0.00    -0.322 N 
ATOM     26  H   UNL     1       3.952   1.674  -2.781  0.00  0.00    +0.169 HD
ATOM     27  C   UNL     1       2.793   1.359  -4.459  0.00  0.00    +0.052 A 
ATOM     28  C   UNL     1       3.805   0.798  -5.232  0.00  0.00    -0.024 A 
ATOM     29  C   UNL     1       5.191   0.638  -4.664  0.00  0.00    +0.046 C 
ENDBRANCH  15  22
ENDBRANCH   1  15
BRANCH   1  30
ATOM     30  C   UNL     1      -2.014   1.234  -1.733  0.00  0.00    +0.145 C 
BRANCH  30  31
ATOM     31  C   UNL     1      -3.307   2.003  -1.638  0.00  0.00    -0.028 A 
ATOM     32  C   UNL     1      -4.148   1.808  -0.559  0.00  0.00    +0.009 A 
ATOM     33  C   UNL     1      -5.332   2.516  -0.465  0.00  0.00    +0.050 A 
ATOM     34  C   UNL     1      -5.683   3.414  -1.459  0.00  0.00    +0.166 A 
ATOM     35  C   UNL     1      -4.838   3.607  -2.549  0.00  0.00    +0.167 A 
ATOM     36  C   UNL     1      -3.650   2.899  -2.633  0.00  0.00    +0.054 A 
ATOM     37  O   UNL     1      -5.401   4.533  -3.379  0.00  0.00    -0.453 OA
ATOM     38  C   UNL     1      -6.787   4.601  -2.994  0.00  0.00    +0.466 C 
ATOM     39  O   UNL     1      -6.776   4.219  -1.606  0.00  0.00    -0.453 OA
ENDBRANCH  30  31
ENDBRANCH   1  30
TORSDOF 7
