REMARK  Name = ZINC05487004
REMARK  5 active torsions:
REMARK  status: ('A' for Active; 'I' for Inactive)
REMARK    1  A    between atoms: C_1  and  C_2
REMARK    2  A    between atoms: C_8  and  C_9
REMARK    3  A    between atoms: C_8  and  N_49
REMARK    4  A    between atoms: C_15  and  O_27
REMARK    5  A    between atoms: C_16  and  C_20
REMARK                            x       y       z     vdW  Elec       q    Type
REMARK                         _______ _______ _______ _____ _____    ______ ____
ROOT
ATOM      1  C   UNL     1      -3.164   4.782   1.101  0.00  0.00    +0.026 A 
ATOM      2  C   UNL     1      -2.726   5.165   2.372  0.00  0.00    +0.184 A 
ATOM      3  O   UNL     1      -1.432   5.411   2.581  0.00  0.00    -0.288 OA
ATOM      4  C   UNL     1      -3.644   5.292   3.432  0.00  0.00    +0.052 A 
ATOM      5  C   UNL     1      -4.963   5.045   3.231  0.00  0.00    +0.019 A 
ATOM      6  C   UNL     1      -5.419   4.659   1.957  0.00  0.00    +0.060 A 
ATOM      7  C   UNL     1      -6.786   4.397   1.726  0.00  0.00    +0.138 A 
ATOM      8  C   UNL     1      -7.184   4.030   0.422  0.00  0.00    +0.059 A 
ATOM      9  C   UNL     1      -6.239   3.923  -0.571  0.00  0.00    +0.207 A 
ATOM     10  O   UNL     1      -4.947   4.168  -0.337  0.00  0.00    -0.462 OA
ATOM     11  C   UNL     1      -4.506   4.533   0.884  0.00  0.00    +0.143 A 
ENDROOT
BRANCH   8  12
ATOM     12  C   UNL     1      -8.611   3.750   0.127  0.00  0.00    -0.011 A 
ATOM     13  C   UNL     1      -9.335   2.881   0.941  0.00  0.00    +0.010 A 
ATOM     14  C   UNL     1     -10.663   2.627   0.665  0.00  0.00    +0.020 A 
ATOM     15  C   UNL     1     -11.274   3.227  -0.423  0.00  0.00    +0.041 A 
ATOM     16  C   UNL     1     -10.557   4.088  -1.237  0.00  0.00    +0.020 A 
ATOM     17  C   UNL     1      -9.230   4.351  -0.967  0.00  0.00    +0.010 A 
ATOM     18 CL   UNL     1     -12.943   2.900  -0.767  0.00  0.00    -0.084 Cl
ENDBRANCH   8  12
BRANCH   7  19
ATOM     19  O   UNL     1      -7.691   4.510   2.721  0.00  0.00    -0.505 OA
ATOM     20  H   UNL     1      -8.082   5.392   2.799  0.00  0.00    +0.292 HD
ENDBRANCH   7  19
BRANCH   1  21
ATOM     21  C   UNL     1      -2.178   4.646  -0.030  0.00  0.00    -0.035 C 
BRANCH  21  28
ATOM     22  C   UNL     1      -1.646   3.426  -2.509  0.00  0.00    -0.013 C 
ATOM     23  C   UNL     1      -0.840   3.050  -1.264  0.00  0.00    -0.071 C 
ATOM     24  C   UNL     1      -0.438   1.576  -1.343  0.00  0.00    -0.016 C 
ATOM     25  C   UNL     1       0.351   1.200  -0.086  0.00  0.00    -0.003 C 
ATOM     26  C   UNL     1      -0.504   1.486   1.151  0.00  0.00    -0.019 C 
ATOM     27  C   UNL     1      -0.906   2.963   1.157  0.00  0.00    -0.078 C 
ATOM     28  N   UNL     1      -1.683   3.255  -0.067  0.00  0.00    +0.384 N 
ATOM     29  H   UNL     1      -2.485   2.616  -0.112  0.00  0.00    -0.081 HD
ENDBRANCH  21  28
ENDBRANCH   1  21
TORSDOF 4
