REMARK  Name = ZINC20137434
REMARK  8 active torsions:
REMARK  status: ('A' for Active; 'I' for Inactive)
REMARK    1  A    between atoms: C_1  and  C_2
REMARK    2  A    between atoms: C_2  and  C_3
REMARK    3  A    between atoms: C_2  and  C_4
REMARK    4  A    between atoms: C_4  and  C_5
REMARK    5  A    between atoms: C_7  and  C_11
REMARK    6  A    between atoms: C_11  and  N_12
REMARK    7  A    between atoms: C_25  and  C_27
REMARK    8  A    between atoms: N_35  and  C_36
REMARK                            x       y       z     vdW  Elec       q    Type
REMARK                         _______ _______ _______ _____ _____    ______ ____
ROOT
ATOM      1  N   UNL     1      -5.274   3.529   1.034  0.00  0.00    +0.394 N 
ATOM      2  C   UNL     1      -6.726   3.738   0.935  0.00  0.00    -0.072 C 
ATOM      3  C   UNL     1      -7.046   4.490  -0.363  0.00  0.00    +0.019 C 
ATOM      4  C   UNL     1      -6.327   3.798  -1.493  0.00  0.00    -0.022 A 
ATOM      5  C   UNL     1      -6.535   3.912  -2.919  0.00  0.00    +0.003 A 
ATOM      6  C   UNL     1      -7.423   4.666  -3.694  0.00  0.00    +0.010 A 
ATOM      7  C   UNL     1      -7.337   4.520  -5.056  0.00  0.00    +0.001 A 
ATOM      8  C   UNL     1      -6.419   3.669  -5.649  0.00  0.00    +0.002 A 
ATOM      9  C   UNL     1      -5.529   2.912  -4.908  0.00  0.00    +0.026 A 
ATOM     10  C   UNL     1      -5.592   3.040  -3.522  0.00  0.00    +0.047 A 
ATOM     11  N   UNL     1      -4.878   2.453  -2.516  0.00  0.00    -0.359 N 
ATOM     12  H   UNL     1      -4.083   1.731  -2.754  0.00  0.00    +0.166 HD
ATOM     13  C   UNL     1      -5.322   2.912  -1.306  0.00  0.00    +0.014 A 
ATOM     14  C   UNL     1      -4.809   2.526   0.061  0.00  0.00    +0.048 C 
ATOM     15  H   UNL     1      -4.783   4.483   0.792  0.00  0.00    -0.080 HD
ENDROOT
BRANCH  14  16
ATOM     16  C   UNL     1      -3.303   2.496   0.046  0.00  0.00    +0.103 A 
ATOM     17  N   UNL     1      -2.536   3.547   0.045  0.00  0.00    -0.234 NA
ATOM     18  C   UNL     1      -1.234   3.162   0.030  0.00  0.00    +0.089 A 
ATOM     19  C   UNL     1      -0.022   3.859   0.023  0.00  0.00    +0.030 A 
ATOM     20  C   UNL     1       1.158   3.172   0.008  0.00  0.00    +0.002 A 
ATOM     21  C   UNL     1       1.170   1.784   0.001  0.00  0.00    +0.002 A 
ATOM     22  C   UNL     1      -0.013   1.076   0.008  0.00  0.00    +0.028 A 
ATOM     23  C   UNL     1      -1.222   1.757   0.017  0.00  0.00    +0.069 A 
ATOM     24  N   UNL     1      -2.546   1.365   0.033  0.00  0.00    -0.332 N 
ATOM     25  C   UNL     1      -3.044  -0.013   0.030  0.00  0.00    +0.150 C 
ENDBRANCH  14  16
BRANCH   1  26
ATOM     26  C   UNL     1      -4.888   3.154   2.401  0.00  0.00    -0.019 C 
BRANCH  26  29
ATOM     27  C   UNL     1      -6.172   5.636   4.801  0.00  0.00    +0.036 A 
ATOM     28  C   UNL     1      -6.312   4.487   4.102  0.00  0.00    +0.045 A 
ATOM     29  C   UNL     1      -5.158   4.307   3.333  0.00  0.00    +0.047 A 
ATOM     30  N   UNL     1      -4.351   5.310   3.566  0.00  0.00    -0.181 NA
ATOM     31  N   UNL     1      -4.972   6.166   4.486  0.00  0.00    -0.281 N 
ATOM     32  H   UNL     1      -4.652   7.114   4.942  0.00  0.00    +0.189 HD
BRANCH  27  33
ATOM     33  C   UNL     1      -7.176   6.221   5.761  0.00  0.00    +0.057 C 
BRANCH  33  35
ATOM     34  C   UNL     1      -5.618   5.986   7.700  0.00  0.00    +0.007 C 
ATOM     35  C   UNL     1      -6.987   5.591   7.143  0.00  0.00    -0.011 C 
ATOM     36  C   UNL     1      -8.084   6.091   8.085  0.00  0.00    +0.007 C 
ENDBRANCH  33  35
ENDBRANCH  27  33
ENDBRANCH  26  29
ENDBRANCH   1  26
TORSDOF 5
