REMARK  Name = ZINC25158486
REMARK  8 active torsions:
REMARK  status: ('A' for Active; 'I' for Inactive)
REMARK    1  A    between atoms: C_1  and  C_2
REMARK    2  A    between atoms: C_2  and  C_4
REMARK    3  A    between atoms: C_2  and  C_14
REMARK    4  A    between atoms: C_4  and  C_5
REMARK    5  A    between atoms: C_20  and  O_26
REMARK    6  A    between atoms: O_26  and  C_27
REMARK    7  A    between atoms: C_31  and  C_33
REMARK    8  A    between atoms: C_34  and  C_35
REMARK                            x       y       z     vdW  Elec       q    Type
REMARK                         _______ _______ _______ _____ _____    ______ ____
ROOT
ATOM      1  C   UNL     1       2.253   6.807  -0.100  0.00  0.00    +0.126 C 
ATOM      2  C   UNL     1       1.503   5.499  -0.226  0.00  0.00    +0.041 A 
ATOM      3  C   UNL     1       0.161   5.419  -0.309  0.00  0.00    -0.016 A 
ATOM      4  C   UNL     1      -0.182   4.003  -0.414  0.00  0.00    +0.007 A 
ATOM      5  C   UNL     1      -1.383   3.299  -0.526  0.00  0.00    +0.056 A 
ATOM      6  C   UNL     1      -1.362   1.922  -0.617  0.00  0.00    +0.121 A 
ATOM      7  C   UNL     1      -0.151   1.235  -0.586  0.00  0.00    +0.047 A 
ATOM      8  C   UNL     1       1.040   1.918  -0.475  0.00  0.00    +0.030 A 
ATOM      9  C   UNL     1       1.040   3.306  -0.389  0.00  0.00    +0.047 A 
ATOM     10  N   UNL     1       2.044   4.247  -0.274  0.00  0.00    -0.356 N 
ATOM     11  H   UNL     1       3.135   4.116  -0.222  0.00  0.00    +0.166 HD
ATOM     12  C   UNL     1      -0.779   6.596  -0.296  0.00  0.00    +0.056 C 
ATOM     13  C   UNL     1      -0.036   7.818   0.260  0.00  0.00    +0.113 C 
ATOM     14  N   UNL     1       1.294   7.893  -0.364  0.00  0.00    -0.289 N 
ATOM     15  C   UNL     1       1.626   8.930  -1.159  0.00  0.00    +0.240 C 
ATOM     16  O   UNL     1       2.762   9.031  -1.584  0.00  0.00    -0.271 OA
ENDROOT
BRANCH   1  18
ATOM     17  C   UNL     1       2.818   6.679  -2.530  0.00  0.00    +0.010 C 
ATOM     18  C   UNL     1       3.390   6.857  -1.122  0.00  0.00    +0.017 C 
BRANCH  18  19
ATOM     19  C   UNL     1       4.388   5.735  -0.831  0.00  0.00    +0.040 C 
BRANCH  19  20
ATOM     20  C   UNL     1       5.616   5.920  -1.685  0.00  0.00    -0.043 A 
ATOM     21  C   UNL     1       5.681   5.332  -2.935  0.00  0.00    +0.007 A 
ATOM     22  C   UNL     1       6.803   5.504  -3.725  0.00  0.00    +0.050 A 
ATOM     23  C   UNL     1       7.870   6.255  -3.260  0.00  0.00    +0.166 A 
ATOM     24  C   UNL     1       7.806   6.842  -1.999  0.00  0.00    +0.166 A 
ATOM     25  C   UNL     1       6.676   6.671  -1.215  0.00  0.00    +0.053 A 
ATOM     26  O   UNL     1       8.968   7.523  -1.776  0.00  0.00    -0.453 OA
ATOM     27  C   UNL     1       9.906   7.009  -2.740  0.00  0.00    +0.466 C 
ATOM     28  O   UNL     1       9.072   6.568  -3.827  0.00  0.00    -0.453 OA
ENDBRANCH  19  20
ENDBRANCH  18  19
ENDBRANCH   1  18
BRANCH   6  29
ATOM     29  O   UNL     1      -2.528   1.232  -0.731  0.00  0.00    -0.495 OA
ATOM     30  C   UNL     1      -2.435  -0.191  -0.815  0.00  0.00    +0.277 C 
ENDBRANCH   6  29
BRANCH  15  31
ATOM     31  C   UNL     1       0.621   9.934  -1.510  0.00  0.00    +0.068 C 
ATOM     32  C   UNL     1       0.925  10.916  -2.383  0.00  0.00    +0.014 C 
BRANCH  32  33
ATOM     33  C   UNL     1      -0.086  11.926  -2.736  0.00  0.00    -0.007 A 
ATOM     34  C   UNL     1      -1.363  11.871  -2.167  0.00  0.00    +0.009 A 
ATOM     35  C   UNL     1      -2.304  12.821  -2.503  0.00  0.00    +0.001 A 
ATOM     36  C   UNL     1      -1.988  13.828  -3.400  0.00  0.00    +0.001 A 
ATOM     37  C   UNL     1      -0.729  13.890  -3.967  0.00  0.00    +0.020 A 
ATOM     38  C   UNL     1       0.228  12.949  -3.637  0.00  0.00    +0.048 A 
ATOM     39 CL   UNL     1       1.811  13.033  -4.344  0.00  0.00    -0.083 Cl
ENDBRANCH  32  33
ENDBRANCH  15  31
TORSDOF 6
