REMARK  Name = ZINC39699922
REMARK  8 active torsions:
REMARK  status: ('A' for Active; 'I' for Inactive)
REMARK    1  A    between atoms: C_1  and  C_2
REMARK    2  A    between atoms: C_2  and  O_3
REMARK    3  A    between atoms: O_3  and  C_4
REMARK    4  A    between atoms: C_8  and  C_11
REMARK    5  A    between atoms: C_9  and  O_10
REMARK    6  A    between atoms: N_12  and  N_13
REMARK    7  A    between atoms: C_14  and  C_16
REMARK    8  A    between atoms: C_19  and  C_22
REMARK                            x       y       z     vdW  Elec       q    Type
REMARK                         _______ _______ _______ _____ _____    ______ ____
ROOT
ATOM      1  C   UNL     1       0.802  -1.825   1.306  0.00  0.00    +0.163 A 
ATOM      2  C   UNL     1       0.260  -2.672   0.351  0.00  0.00    +0.063 A 
ATOM      3  C   UNL     1       0.367  -4.045   0.493  0.00  0.00    +0.018 A 
ATOM      4  C   UNL     1       1.014  -4.583   1.586  0.00  0.00    +0.027 A 
ATOM      5  C   UNL     1       1.565  -3.742   2.556  0.00  0.00    +0.041 A 
ATOM      6  C   UNL     1       1.462  -2.353   2.409  0.00  0.00    +0.167 A 
ATOM      7  I   UNL     1      -0.459  -5.310  -0.958  0.00  0.00    -0.044 I 
ENDROOT
BRANCH   6   8
ATOM      8  O   UNL     1       2.000  -1.526   3.343  0.00  0.00    -0.503 OA
ATOM      9  H   UNL     1       1.395  -1.299   4.063  0.00  0.00    +0.292 HD
ENDBRANCH   6   8
BRANCH   5  10
ATOM     10  C   UNL     1       2.257  -4.313   3.725  0.00  0.00    +0.142 C 
ATOM     11  N   UNL     1       2.768  -3.529   4.624  0.00  0.00    -0.188 NA
BRANCH  11  12
ATOM     12  N   UNL     1       3.426  -4.072   5.736  0.00  0.00    -0.205 N 
ATOM     13  C   UNL     1       3.956  -3.257   6.669  0.00  0.00    +0.262 C 
ATOM     14  O   UNL     1       3.864  -2.054   6.547  0.00  0.00    -0.271 OA
ATOM     15  H   UNL     1       3.499  -5.034   5.833  0.00  0.00    +0.177 HD
BRANCH  13  16
ATOM     16  C   UNL     1       4.664  -3.841   7.865  0.00  0.00    +0.240 C 
ATOM     17  C   UNL     1       3.666  -4.243   8.936  0.00  0.00    +0.035 C 
ATOM     18  C   UNL     1       3.994  -3.482   9.982  0.00  0.00    +0.059 C 
ATOM     19  N   UNL     1       5.045  -2.686   9.686  0.00  0.00    -0.159 NA
ATOM     20  N   UNL     1       5.483  -2.818   8.537  0.00  0.00    -0.170 NA
ATOM     21  C   UNL     1       3.288  -3.508  11.314  0.00  0.00    +0.067 C 
ENDBRANCH  13  16
ENDBRANCH  11  12
ENDBRANCH   5  10
BRANCH   1  22
ATOM     22  O   UNL     1       0.693  -0.477   1.160  0.00  0.00    -0.489 OA
BRANCH  22  24
ATOM     23  C   UNL     1      -0.019   1.526   0.010  0.00  0.00    +0.048 C 
ATOM     24  C   UNL     1       0.002  -0.004   0.002  0.00  0.00    +0.226 C 
ENDBRANCH  22  24
ENDBRANCH   1  22
TORSDOF 6
