REMARK  Name = ZINC39710550
REMARK  13 active torsions:
REMARK  status: ('A' for Active; 'I' for Inactive)
REMARK    1  A    between atoms: C_1  and  C_2
REMARK    2  A    between atoms: C_2  and  C_3
REMARK    3  A    between atoms: C_10  and  C_15
REMARK    4  A    between atoms: C_15  and  C_17
REMARK    5  A    between atoms: C_15  and  N_27
REMARK    6  A    between atoms: N_22  and  C_23
REMARK    7  A    between atoms: C_23  and  C_24
REMARK    8  A    between atoms: C_23  and  C_25
REMARK    9  A    between atoms: C_23  and  C_26
REMARK   10  A    between atoms: N_27  and  C_28
REMARK   11  A    between atoms: N_27  and  C_35
REMARK   12  A    between atoms: C_28  and  C_29
REMARK   13  A    between atoms: C_35  and  C_36
REMARK                            x       y       z     vdW  Elec       q    Type
REMARK                         _______ _______ _______ _____ _____    ______ ____
ROOT
ATOM      1  C   UNL     1       5.881  -1.807  -3.863  0.00  0.00    -0.009 C 
ENDROOT
BRANCH   1   9
ATOM      2  C   UNL     1       8.118  -6.314  -0.907  0.00  0.00    -0.047 A 
ATOM      3  C   UNL     1       7.268  -6.088   0.176  0.00  0.00    +0.005 A 
ATOM      4  C   UNL     1       6.204  -5.246   0.109  0.00  0.00    +0.024 A 
ATOM      5  C   UNL     1       5.914  -4.555  -1.082  0.00  0.00    +0.040 A 
ATOM      6  N   UNL     1       4.867  -3.731  -1.136  0.00  0.00    -0.285 N 
ATOM      7  C   UNL     1       4.538  -3.053  -2.222  0.00  0.00    +0.223 C 
ATOM      8  O   UNL     1       3.571  -2.315  -2.211  0.00  0.00    -0.275 OA
ATOM      9  C   UNL     1       5.369  -3.196  -3.477  0.00  0.00    +0.088 C 
ATOM     10  C   UNL     1       6.561  -4.132  -3.421  0.00  0.00    -0.006 C 
ATOM     11  C   UNL     1       6.795  -4.775  -2.242  0.00  0.00    -0.007 A 
ATOM     12  C   UNL     1       7.927  -5.691  -2.099  0.00  0.00    +0.013 A 
ATOM     13  H   UNL     1       4.321  -3.625  -0.341  0.00  0.00    +0.155 HD
BRANCH   2  15
ATOM     14  C   UNL     1      10.505  -6.493  -0.259  0.00  0.00    +0.009 C 
ATOM     15  C   UNL     1       9.278  -7.264  -0.749  0.00  0.00    +0.032 C 
ENDBRANCH   2  15
ENDBRANCH   1   9
BRANCH   1  16
ATOM     16  C   UNL     1       4.698  -0.914  -4.242  0.00  0.00    +0.205 C 
ATOM     17  N   UNL     1       3.933  -1.516  -5.342  0.00  0.00    -0.152 NA
ATOM     18  N   UNL     1       3.959  -0.754  -6.310  0.00  0.00    -0.070 NA
ATOM     19  N   UNL     1       4.686   0.410  -6.064  0.00  0.00    -0.179 N 
ATOM     20  N   UNL     1       5.177   0.375  -4.783  0.00  0.00    -0.183 NA
ATOM     21  H   UNL     1       4.824   1.131  -6.698  0.00  0.00    +0.191 HD
BRANCH  20  22
ATOM     22  C   UNL     1       4.667   1.501  -3.990  0.00  0.00    +0.035 C 
ATOM     23  C   UNL     1       5.061   1.312  -2.523  0.00  0.00    +0.029 C 
ATOM     24  C   UNL     1       5.265   2.808  -4.514  0.00  0.00    +0.029 C 
ATOM     25  C   UNL     1       3.142   1.556  -4.105  0.00  0.00    +0.029 C 
ENDBRANCH  20  22
ENDBRANCH   1  16
BRANCH   1  26
ATOM     26  N   UNL     1       6.794  -1.923  -5.008  0.00  0.00    +0.390 N 
ATOM     27  H   UNL     1       7.430  -2.691  -4.855  0.00  0.00    -0.080 HD
BRANCH  26  28
ATOM     28  C   UNL     1       7.558  -0.676  -5.152  0.00  0.00    -0.042 C 
BRANCH  28  29
ATOM     29  C   UNL     1       8.564  -0.571  -4.035  0.00  0.00    -0.064 A 
ATOM     30  C   UNL     1       8.178  -0.079  -2.802  0.00  0.00    +0.002 A 
ATOM     31  C   UNL     1       9.100   0.018  -1.777  0.00  0.00    +0.000 A 
ATOM     32  C   UNL     1      10.408  -0.377  -1.984  0.00  0.00    +0.000 A 
ATOM     33  C   UNL     1      10.794  -0.870  -3.217  0.00  0.00    +0.000 A 
ATOM     34  C   UNL     1       9.871  -0.971  -4.241  0.00  0.00    +0.002 A 
ENDBRANCH  28  29
ENDBRANCH  26  28
BRANCH  26  35
ATOM     35  C   UNL     1       6.018  -2.166  -6.231  0.00  0.00    -0.042 C 
BRANCH  35  36
ATOM     36  C   UNL     1       6.907  -2.793  -7.274  0.00  0.00    -0.064 A 
ATOM     37  C   UNL     1       7.613  -1.992  -8.151  0.00  0.00    +0.004 A 
ATOM     38  C   UNL     1       8.429  -2.566  -9.108  0.00  0.00    +0.038 A 
ATOM     39  C   UNL     1       8.539  -3.944  -9.187  0.00  0.00    +0.123 A 
ATOM     40  C   UNL     1       7.830  -4.745  -8.307  0.00  0.00    +0.038 A 
ATOM     41  C   UNL     1       7.019  -4.169  -7.348  0.00  0.00    +0.004 A 
ATOM     42  F   UNL     1       9.335  -4.506 -10.122  0.00  0.00    -0.205 F 
ENDBRANCH  35  36
ENDBRANCH  26  35
ENDBRANCH   1  26
TORSDOF 9
