REMARK  Name = ZINC39243278
REMARK  9 active torsions:
REMARK  status: ('A' for Active; 'I' for Inactive)
REMARK    1  A    between atoms: C_1  and  C_2
REMARK    2  A    between atoms: C_2  and  C_3
REMARK    3  A    between atoms: C_3  and  C_4
REMARK    4  A    between atoms: C_6  and  C_18
REMARK    5  A    between atoms: C_8  and  C_16
REMARK    6  A    between atoms: C_9  and  N_15
REMARK    7  A    between atoms: C_22  and  O_24
REMARK    8  A    between atoms: O_24  and  C_25
REMARK    9  A    between atoms: C_25  and  C_26
REMARK                            x       y       z     vdW  Elec       q    Type
REMARK                         _______ _______ _______ _____ _____    ______ ____
ROOT
ATOM      1  C   UNL     1       0.739  -2.004  -1.265  0.00  0.00    +0.069 C 
ATOM      2  C   UNL     1      -0.135  -2.762  -1.882  0.00  0.00    +0.030 C 
ATOM      3  C   UNL     1      -1.270  -2.477  -2.828  0.00  0.00    +0.098 C 
ATOM      4  C   UNL     1      -1.180  -3.541  -3.905  0.00  0.00    +0.097 C 
ATOM      5  C   UNL     1      -0.337  -4.590  -3.798  0.00  0.00    +0.195 C 
ATOM      6  O   UNL     1       0.524  -4.828  -2.792  0.00  0.00    -0.448 OA
ATOM      7  C   UNL     1       0.266  -4.197  -1.536  0.00  0.00    +0.343 C 
ATOM      8  N   UNL     1       1.490  -3.990  -0.756  0.00  0.00    -0.138 NA
ATOM      9  N   UNL     1       1.668  -2.771  -0.639  0.00  0.00    -0.155 NA
ENDROOT
BRANCH   3  10
ATOM     10  C   UNL     1      -1.113  -1.105  -3.432  0.00  0.00    -0.031 A 
ATOM     11  C   UNL     1       0.009  -0.805  -4.182  0.00  0.00    +0.005 A 
ATOM     12  C   UNL     1       0.157   0.452  -4.737  0.00  0.00    +0.004 A 
ATOM     13  C   UNL     1      -0.818   1.413  -4.543  0.00  0.00    +0.045 A 
ATOM     14  C   UNL     1      -1.944   1.114  -3.792  0.00  0.00    +0.121 A 
ATOM     15  C   UNL     1      -2.093  -0.150  -3.240  0.00  0.00    +0.050 A 
BRANCH  14  16
ATOM     16  O   UNL     1      -2.904   2.057  -3.600  0.00  0.00    -0.487 OA
BRANCH  16  17
ATOM     17  C   UNL     1      -2.687   3.335  -4.202  0.00  0.00    +0.267 C 
BRANCH  17  18
ATOM     18  C   UNL     1      -3.847   4.243  -3.883  0.00  0.00    +0.026 A 
ATOM     19  C   UNL     1      -4.944   4.285  -4.724  0.00  0.00    +0.049 A 
ATOM     20  C   UNL     1      -6.009   5.119  -4.432  0.00  0.00    +0.020 A 
ATOM     21  C   UNL     1      -5.975   5.911  -3.299  0.00  0.00    +0.003 A 
ATOM     22  C   UNL     1      -4.879   5.870  -2.458  0.00  0.00    +0.020 A 
ATOM     23  C   UNL     1      -3.817   5.031  -2.747  0.00  0.00    +0.049 A 
ATOM     24 CL   UNL     1      -2.443   4.974  -1.687  0.00  0.00    -0.083 Cl
ATOM     25 CL   UNL     1      -4.986   3.291  -6.147  0.00  0.00    -0.083 Cl
ENDBRANCH  17  18
ENDBRANCH  16  17
ENDBRANCH  14  16
ENDBRANCH   3  10
BRANCH   5  26
ATOM     26  N   UNL     1      -0.361  -5.506  -4.818  0.00  0.00    -0.329 N 
ATOM     27  H   UNL     1      -0.964  -5.382  -5.568  0.00  0.00    +0.145 HD
ATOM     28  H   UNL     1       0.225  -6.279  -4.790  0.00  0.00    +0.145 HD
ENDBRANCH   5  26
BRANCH   4  29
ATOM     29  C   UNL     1      -2.010  -3.431  -5.066  0.00  0.00    +0.101 C 
ATOM     30  N   UNL     1      -2.670  -3.343  -5.987  0.00  0.00    -0.191 NA
ENDBRANCH   4  29
BRANCH   1  31
ATOM     31  C   UNL     1       0.718  -0.497  -1.257  0.00  0.00    +0.057 C 
BRANCH  31  33
ATOM     32  C   UNL     1      -0.019   1.526   0.010  0.00  0.00    +0.004 C 
ATOM     33  C   UNL     1       0.002  -0.004   0.002  0.00  0.00    +0.003 C 
ENDBRANCH  31  33
ENDBRANCH   1  31
TORSDOF 8
