REMARK  Name = ZINC05265513
REMARK  4 active torsions:
REMARK  status: ('A' for Active; 'I' for Inactive)
REMARK    1  A    between atoms: C_1  and  O_2
REMARK    2  A    between atoms: O_2  and  C_3
REMARK    3  A    between atoms: C_6  and  C_9
REMARK    4  A    between atoms: C_9  and  C_23
REMARK                            x       y       z     vdW  Elec       q    Type
REMARK                         _______ _______ _______ _____ _____    ______ ____
ROOT
ATOM      1  C   UNL     1       1.203   2.146   0.002  0.00  0.00    +0.163 C 
ATOM      2  C   UNL     1       2.383   1.920   0.953  0.00  0.00    +0.114 C 
ATOM      3  C   UNL     1       2.811   0.475   0.829  0.00  0.00    +0.121 A 
ATOM      4  N   UNL     1       3.983  -0.037   1.026  0.00  0.00    -0.232 NA
ATOM      5  C   UNL     1       3.932  -1.371   0.827  0.00  0.00    +0.090 A 
ATOM      6  C   UNL     1       4.912  -2.366   0.917  0.00  0.00    +0.030 A 
ATOM      7  C   UNL     1       4.515  -3.663   0.650  0.00  0.00    +0.002 A 
ATOM      8  C   UNL     1       3.210  -3.976   0.309  0.00  0.00    +0.002 A 
ATOM      9  C   UNL     1       2.224  -3.008   0.213  0.00  0.00    +0.028 A 
ATOM     10  C   UNL     1       2.598  -1.695   0.474  0.00  0.00    +0.078 A 
ATOM     11  N   UNL     1       1.915  -0.514   0.473  0.00  0.00    -0.250 N 
ATOM     12  C   UNL     1       0.622  -0.238   0.211  0.00  0.00    +0.321 C 
ATOM     13  O   UNL     1      -0.189  -1.135   0.094  0.00  0.00    -0.249 OA
ATOM     14  N   UNL     1       0.244   1.049   0.083  0.00  0.00    -0.279 N 
ATOM     15  H   UNL     1      -0.703   1.254   0.038  0.00  0.00    +0.152 HD
ENDROOT
BRANCH   1  19
ATOM     16  C   UNL     1       2.665   2.438  -4.003  0.00  0.00    +0.120 A 
ATOM     17  C   UNL     1       3.285   3.145  -2.983  0.00  0.00    +0.046 A 
ATOM     18  C   UNL     1       2.811   3.049  -1.690  0.00  0.00    +0.009 A 
ATOM     19  C   UNL     1       1.718   2.249  -1.410  0.00  0.00    -0.015 A 
ATOM     20  C   UNL     1       1.102   1.539  -2.424  0.00  0.00    +0.009 A 
ATOM     21  C   UNL     1       1.569   1.636  -3.720  0.00  0.00    +0.046 A 
BRANCH  16  23
ATOM     22  C   UNL     1       2.442   1.775  -6.275  0.00  0.00    +0.277 C 
ATOM     23  O   UNL     1       3.130   2.531  -5.276  0.00  0.00    -0.495 OA
ENDBRANCH  16  23
ENDBRANCH   1  19
BRANCH   1  24
ATOM     24  C   UNL     1       0.502   3.454   0.375  0.00  0.00    +0.415 C 
ATOM     25  F   UNL     1       0.003   3.360   1.679  0.00  0.00    -0.168 F 
ATOM     26  F   UNL     1       1.415   4.511   0.300  0.00  0.00    -0.168 F 
ATOM     27  F   UNL     1      -0.555   3.686  -0.512  0.00  0.00    -0.168 F 
ENDBRANCH   1  24
TORSDOF 3
