REMARK  Name = ZINC09328775
REMARK  13 active torsions:
REMARK  status: ('A' for Active; 'I' for Inactive)
REMARK    1  A    between atoms: C_1  and  C_2
REMARK    2  A    between atoms: C_2  and  C_3
REMARK    3  A    between atoms: C_3  and  O_4
REMARK    4  A    between atoms: O_4  and  C_5
REMARK    5  A    between atoms: C_9  and  C_11
REMARK    6  A    between atoms: C_14  and  C_15
REMARK    7  A    between atoms: C_14  and  O_26
REMARK    8  A    between atoms: C_22  and  C_25
REMARK    9  A    between atoms: N_31  and  C_32
REMARK   10  A    between atoms: C_32  and  C_33
REMARK   11  A    between atoms: C_33  and  N_66
REMARK   12  A    between atoms: C_34  and  N_66
REMARK   13  A    between atoms: C_35  and  N_66
REMARK                            x       y       z     vdW  Elec       q    Type
REMARK                         _______ _______ _______ _____ _____    ______ ____
ROOT
ATOM      1  C   UNL     1      -0.136  -6.590   0.219  0.00  0.00    +0.144 C 
ATOM      2  C   UNL     1      -0.257  -5.085   0.158  0.00  0.00    +0.071 C 
ATOM      3  C   UNL     1       0.699  -4.193  -0.288  0.00  0.00    +0.133 C 
ATOM      4  C   UNL     1      -1.538  -4.776   0.639  0.00  0.00    +0.249 C 
ATOM      5  O   UNL     1      -2.013  -3.660   0.740  0.00  0.00    -0.282 OA
ATOM      6  C   UNL     1      -2.215  -6.050   1.005  0.00  0.00    +0.288 C 
ATOM      7  O   UNL     1      -3.340  -6.135   1.455  0.00  0.00    -0.266 OA
ATOM      8  N   UNL     1      -1.401  -7.091   0.764  0.00  0.00    -0.285 N 
ENDROOT
BRANCH   3   9
ATOM      9  C   UNL     1       0.481  -2.746  -0.140  0.00  0.00    +0.017 A 
ATOM     10  C   UNL     1       0.112  -2.211   1.100  0.00  0.00    +0.015 A 
ATOM     11  C   UNL     1      -0.095  -0.859   1.234  0.00  0.00    +0.046 A 
ATOM     12  C   UNL     1       0.059  -0.007   0.139  0.00  0.00    +0.124 A 
ATOM     13  C   UNL     1       0.435  -0.543  -1.090  0.00  0.00    -0.002 A 
ATOM     14  C   UNL     1       0.641  -1.891  -1.239  0.00  0.00    +0.019 A 
ATOM     15  C   UNL     1       0.547   0.615  -2.064  0.00  0.00    +0.083 C 
ATOM     16  C   UNL     1       0.578   1.832  -1.109  0.00  0.00    +0.175 C 
ATOM     17  O   UNL     1      -0.104   1.341   0.057  0.00  0.00    -0.488 OA
ATOM     18  C   UNL     1      -0.175   3.017  -1.718  0.00  0.00    +0.052 C 
ENDBRANCH   3   9
BRANCH   1  23
ATOM     19  C   UNL     1       3.262  -7.724   1.421  0.00  0.00    +0.121 A 
ATOM     20  C   UNL     1       3.091  -7.694   2.797  0.00  0.00    +0.045 A 
ATOM     21  C   UNL     1       1.878  -7.307   3.333  0.00  0.00    +0.004 A 
ATOM     22  C   UNL     1       0.836  -6.945   2.498  0.00  0.00    +0.006 A 
ATOM     23  C   UNL     1       1.003  -6.980   1.126  0.00  0.00    -0.019 A 
ATOM     24  C   UNL     1       2.214  -7.366   0.585  0.00  0.00    +0.051 A 
BRANCH  19  25
ATOM     25  O   UNL     1       4.455  -8.104   0.891  0.00  0.00    -0.492 OA
BRANCH  25  26
ATOM     26  C   UNL     1       5.489  -8.459   1.811  0.00  0.00    +0.229 C 
BRANCH  26  28
ATOM     27  C   UNL     1       7.855  -9.236   2.021  0.00  0.00    +0.007 C 
ATOM     28  C   UNL     1       6.747  -8.856   1.036  0.00  0.00    +0.038 C 
ENDBRANCH  26  28
ENDBRANCH  25  26
ENDBRANCH  19  25
ENDBRANCH   1  23
BRANCH   3  29
ATOM     29  O   UNL     1       1.834  -4.650  -0.860  0.00  0.00    -0.506 OA
ATOM     30  H   UNL     1       2.410  -3.876  -1.122  0.00  0.00    +0.292 HD
ENDBRANCH   3  29
BRANCH   8  31
ATOM     31  C   UNL     1      -1.728  -8.499   1.002  0.00  0.00    +0.090 C 
BRANCH  31  32
ATOM     32  C   UNL     1      -2.370  -9.093  -0.254  0.00  0.00    -0.060 C 
BRANCH  32  35
ATOM     33  C   UNL     1      -3.743 -10.637   1.008  0.00  0.00    -0.097 C 
ATOM     34  C   UNL     1      -3.094 -11.171  -1.263  0.00  0.00    -0.097 C 
ATOM     35  N   UNL     1      -2.674 -10.518  -0.006  0.00  0.00    +0.377 N 
ATOM     36  H   UNL     1      -1.828 -10.983   0.345  0.00  0.00    -0.083 HD
ENDBRANCH  32  35
ENDBRANCH  31  32
ENDBRANCH   8  31
TORSDOF 9
