REMARK  Name = ZINC49425042
REMARK  3 active torsions:
REMARK  status: ('A' for Active; 'I' for Inactive)
REMARK    1  A    between atoms: C_3  and  C_6
REMARK    2  A    between atoms: C_6  and  N_7
REMARK    3  A    between atoms: C_14  and  C_17
REMARK                            x       y       z     vdW  Elec       q    Type
REMARK                         _______ _______ _______ _____ _____    ______ ____
ROOT
ATOM      1  N   UNL     1       4.234   1.786   1.589  0.00  0.00    -0.295 N 
ATOM      2  C   UNL     1       5.492   2.202   1.834  0.00  0.00    +0.302 C 
ATOM      3  O   UNL     1       6.316   2.207   0.940  0.00  0.00    -0.253 OA
ATOM      4  N   UNL     1       5.838   2.611   3.071  0.00  0.00    -0.285 N 
ATOM      5  C   UNL     1       4.889   2.503   4.188  0.00  0.00    +0.109 C 
ATOM      6  C   UNL     1       4.752   3.876   4.853  0.00  0.00    +0.020 C 
ATOM      7  C   UNL     1       6.138   4.386   5.253  0.00  0.00    +0.016 C 
ATOM      8  C   UNL     1       7.007   4.540   4.003  0.00  0.00    +0.093 C 
ATOM      9  C   UNL     1       7.172   3.169   3.329  0.00  0.00    +0.122 C 
ATOM     10  H   UNL     1       3.597   1.713   2.317  0.00  0.00    +0.151 HD
ENDROOT
BRANCH   8  11
ATOM     11  C   UNL     1       8.361   5.074   4.394  0.00  0.00    +0.220 C 
ATOM     12  O   UNL     1       8.709   5.052   5.556  0.00  0.00    -0.275 OA
ATOM     13  N   UNL     1       9.185   5.575   3.453  0.00  0.00    -0.301 N 
ATOM     14  C   UNL     1      10.426   6.187   3.873  0.00  0.00    +0.108 C 
ATOM     15  C   UNL     1      10.197   7.694   4.142  0.00  0.00    +0.019 C 
ATOM     16  C   UNL     1       9.985   8.413   2.876  0.00  0.00    +0.002 C 
ATOM     17  C   UNL     1       8.744   7.974   2.104  0.00  0.00    +0.002 C 
ATOM     18  C   UNL     1       9.081   6.771   1.257  0.00  0.00    +0.019 C 
ATOM     19  C   UNL     1       8.787   5.471   2.035  0.00  0.00    +0.108 C 
ENDBRANCH   8  11
BRANCH   1  20
ATOM     20  C   UNL     1       3.828   1.445   0.224  0.00  0.00    +0.148 C 
BRANCH  20  23
ATOM     21  C   UNL     1       0.032   1.148   0.095  0.00  0.00    +0.008 A 
ATOM     22  C   UNL     1       1.268   1.766   0.060  0.00  0.00    +0.013 A 
ATOM     23  C   UNL     1       2.384   1.013   0.222  0.00  0.00    +0.007 A 
ATOM     24  S   UNL     1       1.700  -0.622   0.431  0.00  0.00    -0.100 S 
ATOM     25  C   UNL     1      -0.027  -0.192   0.289  0.00  0.00    +0.045 A 
ENDBRANCH  20  23
ENDBRANCH   1  20
TORSDOF 3
