REMARK  Name = ZINC36154942
REMARK  14 active torsions:
REMARK  status: ('A' for Active; 'I' for Inactive)
REMARK    1  A    between atoms: C_1  and  C_2
REMARK    2  A    between atoms: C_2  and  C_3
REMARK    3  A    between atoms: C_3  and  C_5
REMARK    4  A    between atoms: C_3  and  C_6
REMARK    5  A    between atoms: C_6  and  C_8
REMARK    6  A    between atoms: C_6  and  N_22
REMARK    7  A    between atoms: C_10  and  C_13
REMARK    8  A    between atoms: N_22  and  C_23
REMARK    9  A    between atoms: C_23  and  C_24
REMARK   10  A    between atoms: C_24  and  C_26
REMARK   11  A    between atoms: C_24  and  O_35
REMARK   12  A    between atoms: C_26  and  O_27
REMARK   13  A    between atoms: O_27  and  C_28
REMARK   14  A    between atoms: C_28  and  C_29
REMARK                            x       y       z     vdW  Elec       q    Type
REMARK                         _______ _______ _______ _____ _____    ______ ____
ROOT
ATOM      1  C   UNL     1       0.849  -2.021  -1.205  0.00  0.00    +0.022 C 
ENDROOT
BRANCH   1   2
ATOM      2  C   UNL     1      -0.522  -2.641  -1.132  0.00  0.00    +0.214 A 
ATOM      3  N   UNL     1      -1.137  -3.246  -2.108  0.00  0.00    -0.193 NA
ATOM      4  C   UNL     1      -2.343  -3.678  -1.695  0.00  0.00    +0.202 A 
ATOM      5  N   UNL     1      -2.499  -3.344  -0.438  0.00  0.00    -0.056 NA
ATOM      6  O   UNL     1      -1.312  -2.668  -0.050  0.00  0.00    -0.339 OA
BRANCH   4   7
ATOM      7  C   UNL     1      -3.330  -4.410  -2.526  0.00  0.00    +0.026 A 
ATOM      8  C   UNL     1      -3.039  -4.709  -3.855  0.00  0.00    +0.015 A 
ATOM      9  C   UNL     1      -3.958  -5.390  -4.627  0.00  0.00    +0.050 A 
ATOM     10  C   UNL     1      -5.174  -5.778  -4.084  0.00  0.00    +0.166 A 
ATOM     11  C   UNL     1      -5.470  -5.480  -2.754  0.00  0.00    +0.167 A 
ATOM     12  C   UNL     1      -4.549  -4.803  -1.976  0.00  0.00    +0.061 A 
ATOM     13  O   UNL     1      -6.714  -5.964  -2.467  0.00  0.00    -0.453 OA
ATOM     14  C   UNL     1      -7.340  -6.198  -3.742  0.00  0.00    +0.466 C 
ATOM     15  O   UNL     1      -6.231  -6.448  -4.627  0.00  0.00    -0.453 OA
ENDBRANCH   4   7
ENDBRANCH   1   2
BRANCH   1  16
ATOM     16  N   UNL     1       1.625  -2.406  -0.018  0.00  0.00    +0.389 N 
ATOM     17  H   UNL     1       1.197  -2.010   0.806  0.00  0.00    -0.085 HD
ATOM     18  H   UNL     1       1.641  -3.411   0.061  0.00  0.00    -0.085 HD
BRANCH  16  19
ATOM     19  C   UNL     1       2.998  -1.902  -0.146  0.00  0.00    -0.048 C 
BRANCH  19  20
ATOM     20  C   UNL     1       3.806  -2.302   1.090  0.00  0.00    +0.123 C 
BRANCH  20  21
ATOM     21  O   UNL     1       3.200  -1.742   2.257  0.00  0.00    -0.391 OA
ATOM     22  H   UNL     1       3.150  -0.777   2.250  0.00  0.00    +0.210 HD
ENDBRANCH  20  21
BRANCH  20  23
ATOM     23  C   UNL     1       5.237  -1.777   0.957  0.00  0.00    +0.189 C 
BRANCH  23  24
ATOM     24  O   UNL     1       6.021  -2.249   2.054  0.00  0.00    -0.373 OA
BRANCH  24  25
ATOM     25  C   UNL     1       7.382  -1.814   2.026  0.00  0.00    +0.195 C 
BRANCH  25  26
ATOM     26  C   UNL     1       8.112  -2.367   3.222  0.00  0.00    -0.022 A 
ATOM     27  C   UNL     1       8.144  -1.651   4.404  0.00  0.00    +0.006 A 
ATOM     28  C   UNL     1       8.814  -2.159   5.502  0.00  0.00    +0.000 A 
ATOM     29  C   UNL     1       9.451  -3.382   5.418  0.00  0.00    +0.000 A 
ATOM     30  C   UNL     1       9.418  -4.099   4.236  0.00  0.00    +0.000 A 
ATOM     31  C   UNL     1       8.745  -3.593   3.139  0.00  0.00    +0.006 A 
ENDBRANCH  25  26
ENDBRANCH  24  25
ENDBRANCH  23  24
ENDBRANCH  20  23
ENDBRANCH  19  20
ENDBRANCH  16  19
ENDBRANCH   1  16
BRANCH   1  32
ATOM     32  C   UNL     1       0.718  -0.497  -1.257  0.00  0.00    -0.020 C 
ATOM     33  C   UNL     1      -0.089  -0.097  -2.493  0.00  0.00    +0.006 C 
BRANCH  32  35
ATOM     34  C   UNL     1      -0.019   1.526   0.010  0.00  0.00    +0.004 C 
ATOM     35  C   UNL     1       0.002  -0.004   0.002  0.00  0.00    -0.001 C 
ENDBRANCH  32  35
ENDBRANCH   1  32
TORSDOF 12
