REMARK  Name = ZINC35344917
REMARK  3 active torsions:
REMARK  status: ('A' for Active; 'I' for Inactive)
REMARK    1  A    between atoms: C_3  and  O_9
REMARK    2  A    between atoms: O_9  and  C_10
REMARK    3  A    between atoms: C_15  and  N_16
REMARK                            x       y       z     vdW  Elec       q    Type
REMARK                         _______ _______ _______ _____ _____    ______ ____
ROOT
ATOM      1  C   UNL     1       3.378   3.457  -0.005  0.00  0.00    +0.151 A 
ATOM      2  C   UNL     1       2.092   3.982   0.075  0.00  0.00    +0.049 A 
ATOM      3  C   UNL     1       1.915   5.353   0.092  0.00  0.00    +0.021 A 
ATOM      4  C   UNL     1       3.010   6.181   0.029  0.00  0.00    +0.041 A 
ATOM      5  C   UNL     1       4.331   5.688  -0.054  0.00  0.00    +0.102 A 
ATOM      6  C   UNL     1       4.486   4.281  -0.063  0.00  0.00    +0.094 A 
ATOM      7  N   UNL     1       5.265   6.660  -0.107  0.00  0.00    -0.245 NA
ATOM      8  C   UNL     1       4.952   7.923  -0.082  0.00  0.00    +0.157 A 
ATOM      9  S   UNL     1       3.272   7.936   0.020  0.00  0.00    -0.075 S 
ENDROOT
BRANCH   6  10
ATOM     10  N   UNL     1       5.767   3.721  -0.138  0.00  0.00    -0.353 N 
ATOM     11  H   UNL     1       5.875   2.758  -0.148  0.00  0.00    +0.142 HD
ATOM     12  H   UNL     1       6.546   4.298  -0.179  0.00  0.00    +0.142 HD
ENDBRANCH   6  10
BRANCH   1  13
ATOM     13  O   UNL     1       3.548   2.107  -0.021  0.00  0.00    -0.453 OA
BRANCH  13  16
ATOM     14  C   UNL     1       3.985   1.557   3.549  0.00  0.00    +0.005 A 
ATOM     15  C   UNL     1       3.742   2.196   2.348  0.00  0.00    +0.048 A 
ATOM     16  C   UNL     1       3.787   1.480   1.161  0.00  0.00    +0.148 A 
ATOM     17  C   UNL     1       4.076   0.122   1.182  0.00  0.00    +0.101 A 
ATOM     18  C   UNL     1       4.318  -0.513   2.386  0.00  0.00    +0.063 A 
ATOM     19  C   UNL     1       4.272   0.205   3.569  0.00  0.00    +0.022 A 
ATOM     20 CL   UNL     1       4.678  -2.211   2.415  0.00  0.00    -0.082 Cl
ATOM     21 CL   UNL     1       4.132  -0.778  -0.302  0.00  0.00    -0.078 Cl
ENDBRANCH  13  16
ENDBRANCH   1  13
TORSDOF 3
