REMARK  Name = ZINC43078846
REMARK  10 active torsions:
REMARK  status: ('A' for Active; 'I' for Inactive)
REMARK    1  A    between atoms: C_1  and  C_2
REMARK    2  A    between atoms: C_2  and  C_3
REMARK    3  A    between atoms: C_2  and  C_4
REMARK    4  A    between atoms: C_2  and  O_5
REMARK    5  A    between atoms: O_5  and  C_6
REMARK    6  A    between atoms: N_8  and  N_9
REMARK    7  A    between atoms: N_12  and  C_13
REMARK    8  A    between atoms: C_13  and  C_14
REMARK    9  A    between atoms: C_14  and  C_16
REMARK   10  A    between atoms: C_14  and  C_22
REMARK                            x       y       z     vdW  Elec       q    Type
REMARK                         _______ _______ _______ _____ _____    ______ ____
ROOT
ATOM      1  C   UNL     1       6.163  -1.185  -5.758  0.00  0.00    +0.068 C 
ENDROOT
BRANCH   1   2
ATOM      2  C   UNL     1       6.894  -1.529  -7.030  0.00  0.00    -0.013 A 
ATOM      3  C   UNL     1       7.138  -2.761  -7.503  0.00  0.00    +0.088 A 
ATOM      4  N   UNL     1       7.826  -2.681  -8.683  0.00  0.00    -0.360 N 
ATOM      5  H   UNL     1       8.115  -3.441  -9.212  0.00  0.00    +0.165 HD
ATOM      6  C   UNL     1       8.047  -1.361  -9.007  0.00  0.00    +0.047 A 
ATOM      7  C   UNL     1       7.467  -0.582  -7.990  0.00  0.00    +0.003 A 
ATOM      8  C   UNL     1       7.532   0.811  -8.057  0.00  0.00    +0.010 A 
ATOM      9  C   UNL     1       8.156   1.411  -9.115  0.00  0.00    +0.001 A 
ATOM     10  C   UNL     1       8.726   0.646 -10.123  0.00  0.00    +0.002 A 
ATOM     11  C   UNL     1       8.681  -0.730 -10.072  0.00  0.00    +0.026 A 
ENDBRANCH   1   2
BRANCH   1  12
ATOM     12  C   UNL     1       6.893  -1.781  -4.583  0.00  0.00    -0.038 A 
ATOM     13  C   UNL     1       7.080  -3.149  -4.506  0.00  0.00    +0.004 A 
ATOM     14  C   UNL     1       7.750  -3.696  -3.428  0.00  0.00    +0.000 A 
ATOM     15  C   UNL     1       8.233  -2.875  -2.426  0.00  0.00    +0.000 A 
ATOM     16  C   UNL     1       8.046  -1.507  -2.502  0.00  0.00    +0.000 A 
ATOM     17  C   UNL     1       7.380  -0.960  -3.583  0.00  0.00    +0.004 A 
ENDBRANCH   1  12
BRANCH   1  18
ATOM     18  C   UNL     1       4.743  -1.751  -5.817  0.00  0.00    +0.118 C 
BRANCH  18  22
ATOM     19  N   UNL     1       2.023  -1.296  -3.385  0.00  0.00    -0.216 N 
ATOM     20  C   UNL     1       2.712  -1.696  -4.472  0.00  0.00    +0.316 C 
ATOM     21  O   UNL     1       2.176  -2.401  -5.306  0.00  0.00    -0.251 OA
ATOM     22  N   UNL     1       3.994  -1.316  -4.635  0.00  0.00    -0.297 N 
ATOM     23  H   UNL     1       1.100  -1.570  -3.267  0.00  0.00    +0.174 HD
ATOM     24  H   UNL     1       4.422  -0.754  -3.970  0.00  0.00    +0.150 HD
BRANCH  19  27
ATOM     25  C   UNL     1       1.952  -0.085  -1.337  0.00  0.00    +0.417 C 
ATOM     26  O   UNL     1       2.488   0.619  -0.503  0.00  0.00    -0.225 OA
ATOM     27  N   UNL     1       2.641  -0.485  -2.424  0.00  0.00    -0.198 N 
ATOM     28  H   UNL     1       3.564  -0.211  -2.541  0.00  0.00    +0.176 HD
BRANCH  25  29
ATOM     29  O   UNL     1       0.671  -0.465  -1.174  0.00  0.00    -0.444 OA
BRANCH  29  31
ATOM     30  C   UNL     1      -0.019   1.526   0.010  0.00  0.00    +0.055 C 
ATOM     31  C   UNL     1       0.002  -0.004   0.002  0.00  0.00    +0.107 C 
ATOM     32  C   UNL     1       0.742  -0.511   1.242  0.00  0.00    +0.055 C 
ATOM     33  C   UNL     1      -1.433  -0.534   0.013  0.00  0.00    +0.055 C 
ENDBRANCH  29  31
ENDBRANCH  25  29
ENDBRANCH  19  27
ENDBRANCH  18  22
ENDBRANCH   1  18
TORSDOF 7
