REMARK  Name = ZINC67602895
REMARK  8 active torsions:
REMARK  status: ('A' for Active; 'I' for Inactive)
REMARK    1  A    between atoms: C_1  and  C_2
REMARK    2  A    between atoms: C_2  and  C_3
REMARK    3  A    between atoms: C_3  and  C_4
REMARK    4  A    between atoms: N_6  and  C_7
REMARK    5  A    between atoms: C_10  and  C_13
REMARK    6  A    between atoms: C_13  and  N_14
REMARK    7  A    between atoms: C_19  and  C_31
REMARK    8  A    between atoms: C_22  and  C_25
REMARK                            x       y       z     vdW  Elec       q    Type
REMARK                         _______ _______ _______ _____ _____    ______ ____
ROOT
ATOM      1  N   UNL     1      -2.304  -8.795   1.751  0.00  0.00    -0.295 N 
ATOM      2  C   UNL     1      -2.238 -10.101   2.075  0.00  0.00    +0.303 C 
ATOM      3  O   UNL     1      -2.063 -10.935   1.207  0.00  0.00    -0.253 OA
ATOM      4  N   UNL     1      -2.368 -10.484   3.360  0.00  0.00    -0.280 N 
ATOM      5  C   UNL     1      -2.408 -11.909   3.726  0.00  0.00    +0.140 C 
ATOM      6  C   UNL     1      -1.392 -12.149   4.848  0.00  0.00    +0.133 C 
ATOM      7  O   UNL     1      -1.628 -11.215   5.905  0.00  0.00    -0.366 OA
ATOM      8  C   UNL     1      -1.453  -9.848   5.527  0.00  0.00    +0.166 C 
ATOM      9  C   UNL     1      -2.466  -9.489   4.441  0.00  0.00    +0.145 C 
ATOM     10  C   UNL     1       0.025 -11.959   4.304  0.00  0.00    +0.039 C 
ATOM     11  H   UNL     1      -2.371  -8.125   2.449  0.00  0.00    +0.151 HD
ENDROOT
BRANCH   8  12
ATOM     12  C   UNL     1      -1.665  -8.963   6.729  0.00  0.00    -0.017 A 
ATOM     13  C   UNL     1      -2.603  -9.307   7.684  0.00  0.00    +0.006 A 
ATOM     14  C   UNL     1      -2.797  -8.495   8.786  0.00  0.00    +0.000 A 
ATOM     15  C   UNL     1      -2.053  -7.339   8.932  0.00  0.00    +0.000 A 
ATOM     16  C   UNL     1      -1.115  -6.995   7.978  0.00  0.00    +0.000 A 
ATOM     17  C   UNL     1      -0.917  -7.809   6.878  0.00  0.00    +0.006 A 
ENDBRANCH   8  12
BRANCH   1  18
ATOM     18  C   UNL     1      -2.272  -8.386   0.344  0.00  0.00    +0.141 C 
BRANCH  18  22
ATOM     19  C   UNL     1      -2.517  -4.127   0.091  0.00  0.00    +0.033 A 
ATOM     20  C   UNL     1      -1.278  -4.749   0.180  0.00  0.00    +0.023 A 
ATOM     21  C   UNL     1      -1.203  -6.125   0.261  0.00  0.00    +0.007 A 
ATOM     22  C   UNL     1      -2.359  -6.884   0.255  0.00  0.00    -0.030 A 
ATOM     23  C   UNL     1      -3.594  -6.268   0.167  0.00  0.00    +0.007 A 
ATOM     24  C   UNL     1      -3.676  -4.892   0.091  0.00  0.00    +0.023 A 
BRANCH  19  27
ATOM     25  C   UNL     1      -3.614  -2.079   0.605  0.00  0.00    +0.217 C 
ATOM     26  O   UNL     1      -4.505  -2.704   1.141  0.00  0.00    -0.275 OA
ATOM     27  N   UNL     1      -2.597  -2.732   0.009  0.00  0.00    -0.285 N 
ATOM     28  H   UNL     1      -1.921  -2.236  -0.478  0.00  0.00    +0.155 HD
BRANCH  25  29
ATOM     29  C   UNL     1      -3.644  -0.572   0.606  0.00  0.00    +0.096 C 
BRANCH  29  31
ATOM     30  C   UNL     1      -4.926   1.442   1.343  0.00  0.00    +0.004 C 
ATOM     31  C   UNL     1      -4.895  -0.088   1.343  0.00  0.00    +0.006 C 
ENDBRANCH  29  31
ENDBRANCH  25  29
ENDBRANCH  19  27
ENDBRANCH  18  22
ENDBRANCH   1  18
TORSDOF 6
