REMARK  Name = ZINC03245923
REMARK  6 active torsions:
REMARK  status: ('A' for Active; 'I' for Inactive)
REMARK    1  A    between atoms: C_4  and  N_7
REMARK    2  A    between atoms: N_9  and  C_26
REMARK    3  A    between atoms: C_12  and  C_15
REMARK    4  A    between atoms: C_15  and  C_16
REMARK    5  A    between atoms: N_18  and  C_19
REMARK    6  A    between atoms: C_26  and  C_27
REMARK                            x       y       z     vdW  Elec       q    Type
REMARK                         _______ _______ _______ _____ _____    ______ ____
ROOT
ATOM      1  N   UNL     1       3.532   4.182   1.486  0.00  0.00    -0.226 NA
ATOM      2  C   UNL     1       2.330   4.331   1.992  0.00  0.00    +0.164 C 
ATOM      3  N   UNL     1       1.115   4.098   1.383  0.00  0.00    -0.245 N 
ATOM      4  C   UNL     1      -0.036   4.293   2.003  0.00  0.00    +0.235 C 
ATOM      5  O   UNL     1      -1.102   4.091   1.462  0.00  0.00    -0.274 OA
ATOM      6  C   UNL     1       0.061   4.781   3.440  0.00  0.00    +0.149 C 
ATOM      7  S   UNL     1       1.884   4.884   3.631  0.00  0.00    -0.077 S 
ENDROOT
BRANCH   1  11
ATOM      8  C   UNL     1       6.866   5.037   3.785  0.00  0.00    +0.000 A 
ATOM      9  C   UNL     1       6.830   3.880   3.027  0.00  0.00    +0.002 A 
ATOM     10  C   UNL     1       5.722   3.589   2.258  0.00  0.00    +0.028 A 
ATOM     11  C   UNL     1       4.635   4.465   2.246  0.00  0.00    +0.067 A 
ATOM     12  C   UNL     1       4.680   5.634   3.009  0.00  0.00    +0.028 A 
ATOM     13  C   UNL     1       5.792   5.909   3.778  0.00  0.00    +0.002 A 
ENDBRANCH   1  11
BRANCH   6  14
ATOM     14  C   UNL     1      -0.543   3.770   4.416  0.00  0.00    +0.120 C 
BRANCH  14  15
ATOM     15  C   UNL     1      -0.370   4.269   5.827  0.00  0.00    +0.219 C 
ATOM     16  O   UNL     1       0.183   5.330   6.032  0.00  0.00    -0.275 OA
ATOM     17  N   UNL     1      -0.828   3.538   6.862  0.00  0.00    -0.283 N 
ATOM     18  H   UNL     1      -1.327   2.722   6.696  0.00  0.00    +0.155 HD
BRANCH  17  19
ATOM     19  C   UNL     1      -0.585   3.955   8.177  0.00  0.00    +0.069 A 
ATOM     20  C   UNL     1      -0.559   5.308   8.484  0.00  0.00    +0.026 A 
ATOM     21  C   UNL     1      -0.325   5.717   9.782  0.00  0.00    +0.002 A 
ATOM     22  C   UNL     1      -0.105   4.780  10.775  0.00  0.00    +0.003 A 
ATOM     23  C   UNL     1      -0.124   3.431  10.474  0.00  0.00    +0.040 A 
ATOM     24  C   UNL     1      -0.364   3.014   9.177  0.00  0.00    +0.144 A 
ATOM     25  F   UNL     1      -0.382   1.696   8.882  0.00  0.00    -0.204 F 
ENDBRANCH  17  19
ENDBRANCH  14  15
ENDBRANCH   6  14
BRANCH   3  26
ATOM     26  C   UNL     1       1.099   3.623  -0.003  0.00  0.00    +0.150 C 
BRANCH  26  27
ATOM     27  C   UNL     1       1.120   2.117  -0.018  0.00  0.00    -0.026 A 
ATOM     28  C   UNL     1       2.327   1.444  -0.045  0.00  0.00    +0.009 A 
ATOM     29  C   UNL     1       2.352   0.062  -0.058  0.00  0.00    +0.050 A 
ATOM     30  C   UNL     1       1.165  -0.653  -0.046  0.00  0.00    +0.166 A 
ATOM     31  C   UNL     1      -0.051   0.025  -0.019  0.00  0.00    +0.167 A 
ATOM     32  C   UNL     1      -0.068   1.410  -0.005  0.00  0.00    +0.054 A 
ATOM     33  O   UNL     1      -1.062  -0.892  -0.012  0.00  0.00    -0.453 OA
ATOM     34  C   UNL     1      -0.449  -2.136   0.377  0.00  0.00    +0.466 C 
ATOM     35  O   UNL     1       0.916  -1.995  -0.056  0.00  0.00    -0.453 OA
ENDBRANCH  26  27
ENDBRANCH   3  26
TORSDOF 6
