REMARK  Name = ZINC12636827
REMARK  8 active torsions:
REMARK  status: ('A' for Active; 'I' for Inactive)
REMARK    1  A    between atoms: C_1  and  C_2
REMARK    2  A    between atoms: C_5  and  C_8
REMARK    3  A    between atoms: C_8  and  C_10
REMARK    4  A    between atoms: C_8  and  N_18
REMARK    5  A    between atoms: N_12  and  C_13
REMARK    6  A    between atoms: N_18  and  C_19
REMARK    7  A    between atoms: C_22  and  C_25
REMARK    8  A    between atoms: C_26  and  C_28
REMARK                            x       y       z     vdW  Elec       q    Type
REMARK                         _______ _______ _______ _____ _____    ______ ____
ROOT
ATOM      1  C   UNL     1      -2.384   4.177   0.540  0.00  0.00    +0.197 C 
ENDROOT
BRANCH   1   6
ATOM      2  C   UNL     1      -7.069   2.105  -2.133  0.00  0.00    +0.044 C 
ATOM      3  C   UNL     1      -5.848   2.645  -1.435  0.00  0.00    -0.050 A 
ATOM      4  C   UNL     1      -5.666   4.011  -1.317  0.00  0.00    +0.004 A 
ATOM      5  C   UNL     1      -4.545   4.506  -0.677  0.00  0.00    +0.006 A 
ATOM      6  C   UNL     1      -3.606   3.636  -0.157  0.00  0.00    -0.018 A 
ATOM      7  C   UNL     1      -3.784   2.271  -0.280  0.00  0.00    +0.006 A 
ATOM      8  C   UNL     1      -4.908   1.776  -0.914  0.00  0.00    +0.004 A 
ENDBRANCH   1   6
BRANCH   1   9
ATOM      9  C   UNL     1      -2.310   3.612   1.936  0.00  0.00    +0.239 C 
ATOM     10  O   UNL     1      -1.351   2.951   2.273  0.00  0.00    -0.273 OA
ATOM     11  N   UNL     1      -3.311   3.841   2.809  0.00  0.00    -0.311 N 
ATOM     12  H   UNL     1      -4.078   4.370   2.539  0.00  0.00    +0.149 HD
BRANCH  11  13
ATOM     13  C   UNL     1      -3.239   3.292   4.165  0.00  0.00    +0.073 C 
ATOM     14  C   UNL     1      -3.834   1.869   4.191  0.00  0.00    +0.022 C 
ATOM     15  C   UNL     1      -4.567   1.789   5.553  0.00  0.00    +0.002 C 
ATOM     16  C   UNL     1      -5.174   3.207   5.699  0.00  0.00    +0.002 C 
ATOM     17  C   UNL     1      -4.091   4.143   5.124  0.00  0.00    +0.022 C 
ENDBRANCH  11  13
ENDBRANCH   1   9
BRANCH   1  18
ATOM     18  N   UNL     1      -1.185   3.790  -0.207  0.00  0.00    -0.250 N 
ATOM     19  C   UNL     1       0.014   4.306   0.128  0.00  0.00    +0.272 C 
ATOM     20  O   UNL     1       0.998   4.043  -0.537  0.00  0.00    -0.268 OA
BRANCH  18  21
ATOM     21  C   UNL     1      -1.284   2.884  -1.268  0.00  0.00    +0.038 A 
ATOM     22  C   UNL     1      -0.752   1.607  -1.146  0.00  0.00    +0.024 A 
ATOM     23  C   UNL     1      -0.857   0.714  -2.193  0.00  0.00    +0.005 A 
ATOM     24  C   UNL     1      -1.480   1.093  -3.368  0.00  0.00    -0.050 A 
ATOM     25  C   UNL     1      -2.005   2.366  -3.496  0.00  0.00    +0.005 A 
ATOM     26  C   UNL     1      -1.909   3.262  -2.449  0.00  0.00    +0.024 A 
ATOM     27  C   UNL     1      -1.586   0.118  -4.512  0.00  0.00    +0.044 C 
ENDBRANCH  18  21
BRANCH  19  28
ATOM     28  C   UNL     1       0.134   5.190   1.302  0.00  0.00    +0.157 A 
ATOM     29  C   UNL     1       1.348   5.654   1.788  0.00  0.00    +0.101 A 
ATOM     30  S   UNL     1       0.821   6.618   3.127  0.00  0.00    +0.029 S 
ATOM     31  N   UNL     1      -0.737   6.400   3.006  0.00  0.00    -0.110 NA
ATOM     32  N   UNL     1      -0.909   5.627   1.997  0.00  0.00    -0.136 NA
ENDBRANCH  19  28
ENDBRANCH   1  18
TORSDOF 6
