REMARK  Name = ZINC66346630
REMARK  4 active torsions:
REMARK  status: ('A' for Active; 'I' for Inactive)
REMARK    1  A    between atoms: C_6  and  C_7
REMARK    2  A    between atoms: C_7  and  C_9
REMARK    3  A    between atoms: C_7  and  N_14
REMARK    4  A    between atoms: C_21  and  O_24
REMARK                            x       y       z     vdW  Elec       q    Type
REMARK                         _______ _______ _______ _____ _____    ______ ____
ROOT
ATOM      1  C   UNL     1      -1.293  -0.776   0.009  0.00  0.00    +0.136 C 
ENDROOT
BRANCH   1   2
ATOM      2  N   UNL     1      -1.163  -1.939   0.890  0.00  0.00    -0.288 N 
ATOM      3  C   UNL     1      -2.258  -2.480   1.459  0.00  0.00    +0.303 C 
ATOM      4  O   UNL     1      -3.343  -1.950   1.315  0.00  0.00    -0.253 OA
ATOM      5  N   UNL     1      -2.152  -3.610   2.186  0.00  0.00    -0.283 N 
ATOM      6  C   UNL     1      -0.835  -4.198   2.467  0.00  0.00    +0.109 C 
ATOM      7  C   UNL     1      -0.848  -5.666   2.028  0.00  0.00    +0.022 C 
ATOM      8  C   UNL     1      -2.015  -6.387   2.706  0.00  0.00    +0.034 C 
ATOM      9  C   UNL     1      -3.334  -5.742   2.274  0.00  0.00    +0.132 C 
ATOM     10  C   UNL     1      -3.350  -4.272   2.720  0.00  0.00    +0.140 C 
ATOM     11  H   UNL     1      -0.287  -2.320   1.065  0.00  0.00    +0.151 HD
BRANCH   9  12
ATOM     12  O   UNL     1      -4.426  -6.436   2.882  0.00  0.00    -0.390 OA
ATOM     13  H   UNL     1      -5.295  -6.080   2.652  0.00  0.00    +0.210 HD
ENDBRANCH   9  12
ENDBRANCH   1   2
BRANCH   1  19
ATOM     14  C   UNL     1      -0.017   1.377   0.005  0.00  0.00    +0.007 A 
ATOM     15  C   UNL     1       1.170   2.084  -0.004  0.00  0.00    +0.020 A 
ATOM     16  C   UNL     1       2.377   1.409  -0.018  0.00  0.00    +0.041 A 
ATOM     17  C   UNL     1       2.396   0.026  -0.024  0.00  0.00    +0.020 A 
ATOM     18  C   UNL     1       1.208  -0.681  -0.016  0.00  0.00    +0.007 A 
ATOM     19  C   UNL     1       0.002  -0.005  -0.001  0.00  0.00    -0.023 A 
ATOM     20 CL   UNL     1       3.869   2.297  -0.029  0.00  0.00    -0.084 Cl
ENDBRANCH   1  19
BRANCH   1  21
ATOM     21  C   UNL     1      -1.613  -1.240  -1.389  0.00  0.00    -0.016 A 
ATOM     22  C   UNL     1      -2.523  -0.548  -2.166  0.00  0.00    +0.013 A 
ATOM     23  C   UNL     1      -2.788  -0.992  -3.420  0.00  0.00    +0.045 A 
ATOM     24  S   UNL     1      -1.734  -2.427  -3.534  0.00  0.00    -0.105 S 
ATOM     25  C   UNL     1      -1.007  -2.337  -1.906  0.00  0.00    +0.051 A 
ENDBRANCH   1  21
TORSDOF 4
