REMARK  Name = ZINC01440865
REMARK  8 active torsions:
REMARK  status: ('A' for Active; 'I' for Inactive)
REMARK    1  A    between atoms: C_1  and  N_2
REMARK    2  A    between atoms: N_2  and  C_3
REMARK    3  A    between atoms: N_2  and  N_4
REMARK    4  A    between atoms: C_7  and  C_14
REMARK    5  A    between atoms: C_9  and  C_12
REMARK    6  A    between atoms: C_10  and  N_11
REMARK    7  A    between atoms: C_18  and  N_20
REMARK    8  A    between atoms: C_26  and  C_29
REMARK                            x       y       z     vdW  Elec       q    Type
REMARK                         _______ _______ _______ _____ _____    ______ ____
ROOT
ATOM      1  N   UNL     1       0.548  -0.419   0.327  0.00  0.00    -0.223 N 
ATOM      2  C   UNL     1       0.124  -1.137   1.412  0.00  0.00    +0.037 C 
ATOM      3  C   UNL     1      -0.658  -2.227   1.251  0.00  0.00    +0.026 C 
ATOM      4  C   UNL     1      -1.088  -2.677  -0.123  0.00  0.00    +0.097 C 
ATOM      5  C   UNL     1      -0.220  -2.071  -1.186  0.00  0.00    +0.078 C 
ATOM      6  C   UNL     1       0.549  -0.982  -0.927  0.00  0.00    +0.117 C 
ATOM      7  C   UNL     1      -1.090  -2.978   2.358  0.00  0.00    +0.162 C 
ATOM      8  O   UNL     1      -1.796  -3.951   2.179  0.00  0.00    -0.292 OA
ATOM      9  C   UNL     1      -0.695  -2.601   3.759  0.00  0.00    +0.088 C 
ATOM     10  C   UNL     1       0.657  -1.879   3.719  0.00  0.00    +0.032 C 
ATOM     11  C   UNL     1       0.535  -0.673   2.786  0.00  0.00    +0.061 C 
ENDROOT
BRANCH   4  12
ATOM     12  C   UNL     1      -2.517  -2.260  -0.354  0.00  0.00    -0.033 A 
ATOM     13  C   UNL     1      -2.856  -0.919  -0.345  0.00  0.00    +0.005 A 
ATOM     14  C   UNL     1      -4.167  -0.537  -0.557  0.00  0.00    +0.003 A 
ATOM     15  C   UNL     1      -5.139  -1.494  -0.779  0.00  0.00    +0.033 A 
ATOM     16  C   UNL     1      -4.801  -2.834  -0.789  0.00  0.00    +0.126 A 
ATOM     17  C   UNL     1      -3.488  -3.217  -0.581  0.00  0.00    +0.037 A 
BRANCH  16  18
ATOM     18  N   UNL     1      -5.841  -3.859  -1.027  0.00  0.00    +0.056 N 
ATOM     19  O   UNL     1      -6.997  -3.522  -1.214  0.00  0.00    -0.126 OA
ATOM     20  O   UNL     1      -5.543  -5.040  -1.036  0.00  0.00    -0.126 OA
ENDBRANCH  16  18
ENDBRANCH   4  12
BRANCH  10  21
ATOM     21  C   UNL     1       1.023  -1.413   5.105  0.00  0.00    -0.044 A 
ATOM     22  C   UNL     1       0.200  -0.529   5.777  0.00  0.00    +0.004 A 
ATOM     23  C   UNL     1       0.534  -0.105   7.049  0.00  0.00    +0.000 A 
ATOM     24  C   UNL     1       1.696  -0.558   7.646  0.00  0.00    +0.000 A 
ATOM     25  C   UNL     1       2.521  -1.439   6.972  0.00  0.00    +0.000 A 
ATOM     26  C   UNL     1       2.185  -1.866   5.701  0.00  0.00    +0.004 A 
ENDBRANCH  10  21
BRANCH   1  28
ATOM     27  C   UNL     1       2.427   0.970   0.265  0.00  0.00    +0.128 C 
ATOM     28  N   UNL     1       0.980   0.867   0.493  0.00  0.00    -0.227 NA
ATOM     29  C   UNL     1       0.242   1.786  -0.384  0.00  0.00    +0.128 C 
ENDBRANCH   1  28
BRANCH   6  30
ATOM     30  N   UNL     1       1.330  -0.442  -1.921  0.00  0.00    -0.344 N 
ATOM     31  H   UNL     1       1.589   0.492  -1.880  0.00  0.00    +0.144 HD
ATOM     32  H   UNL     1       1.622  -0.994  -2.663  0.00  0.00    +0.144 HD
ENDBRANCH   6  30
BRANCH   5  33
ATOM     33  C   UNL     1      -0.203  -2.650  -2.496  0.00  0.00    +0.099 C 
ATOM     34  N   UNL     1      -0.189  -3.110  -3.535  0.00  0.00    -0.191 NA
ENDBRANCH   5  33
TORSDOF 6
