REMARK  Name = ZINC09319317
REMARK  8 active torsions:
REMARK  status: ('A' for Active; 'I' for Inactive)
REMARK    1  A    between atoms: C_1  and  C_2
REMARK    2  A    between atoms: C_5  and  N_9
REMARK    3  A    between atoms: C_6  and  C_8
REMARK    4  A    between atoms: C_10  and  C_12
REMARK    5  A    between atoms: C_12  and  S_13
REMARK    6  A    between atoms: S_13  and  C_14
REMARK    7  A    between atoms: C_18  and  S_21
REMARK    8  A    between atoms: S_21  and  C_24
REMARK                            x       y       z     vdW  Elec       q    Type
REMARK                         _______ _______ _______ _____ _____    ______ ____
ROOT
ATOM      1  C   UNL     1      -0.356  -8.692  -2.728  0.00  0.00    +0.192 A 
ATOM      2  N   UNL     1      -0.456  -9.441  -3.817  0.00  0.00    -0.182 NA
ATOM      3  C   UNL     1      -0.534 -10.762  -3.724  0.00  0.00    +0.299 A 
ATOM      4  O   UNL     1      -0.636 -11.525  -4.840  0.00  0.00    -0.264 OA
ATOM      5  C   UNL     1      -0.509 -11.356  -2.462  0.00  0.00    +0.177 A 
ATOM      6  C   UNL     1      -0.403 -10.540  -1.351  0.00  0.00    +0.146 A 
ATOM      7  N   UNL     1      -0.324  -9.228  -1.516  0.00  0.00    -0.228 NA
ENDROOT
BRANCH   5   8
ATOM      8  S   UNL     1      -0.610 -13.106  -2.288  0.00  0.00    +0.032 S 
ATOM      9  O   UNL     1       0.340 -13.659  -3.189  0.00  0.00    -0.164 OA
ATOM     10  O   UNL     1      -0.585 -13.377  -0.893  0.00  0.00    -0.164 OA
BRANCH   8  11
ATOM     11  C   UNL     1      -2.199 -13.597  -2.869  0.00  0.00    +0.094 A 
ATOM     12  C   UNL     1      -3.269 -13.648  -1.994  0.00  0.00    +0.028 A 
ATOM     13  C   UNL     1      -4.516 -14.032  -2.449  0.00  0.00    +0.017 A 
ATOM     14  C   UNL     1      -4.694 -14.366  -3.780  0.00  0.00    +0.018 A 
ATOM     15  C   UNL     1      -3.624 -14.314  -4.654  0.00  0.00    +0.017 A 
ATOM     16  C   UNL     1      -2.378 -13.925  -4.200  0.00  0.00    +0.028 A 
ATOM     17 BR   UNL     1      -6.400 -14.892  -4.402  0.00  0.00    -0.050 Br
ENDBRANCH   8  11
ENDBRANCH   5   8
BRANCH   1  18
ATOM     18  S   UNL     1      -0.255  -6.941  -2.895  0.00  0.00    -0.077 S 
BRANCH  18  19
ATOM     19  C   UNL     1      -0.134  -6.343  -1.187  0.00  0.00    +0.173 C 
BRANCH  19  21
ATOM     20  N   UNL     1       0.059  -4.170  -0.021  0.00  0.00    -0.285 N 
ATOM     21  C   UNL     1      -0.040  -4.839  -1.187  0.00  0.00    +0.227 C 
ATOM     22  O   UNL     1      -0.054  -4.230  -2.236  0.00  0.00    -0.275 OA
ATOM     23  H   UNL     1       0.135  -4.658   0.814  0.00  0.00    +0.155 HD
BRANCH  20  28
ATOM     24  C   UNL     1       0.025   1.503   0.005  0.00  0.00    +0.044 C 
ATOM     25  C   UNL     1       0.034  -0.004  -0.002  0.00  0.00    -0.050 A 
ATOM     26  C   UNL     1       0.632  -0.685  -1.046  0.00  0.00    +0.005 A 
ATOM     27  C   UNL     1       0.641  -2.066  -1.055  0.00  0.00    +0.024 A 
ATOM     28  C   UNL     1       0.051  -2.771  -0.014  0.00  0.00    +0.036 A 
ATOM     29  C   UNL     1      -0.548  -2.083   1.033  0.00  0.00    -0.029 A 
ATOM     30  C   UNL     1      -0.550  -0.702   1.039  0.00  0.00    +0.008 A 
ATOM     31  C   UNL     1      -1.190  -2.843   2.165  0.00  0.00    +0.045 C 
ENDBRANCH  20  28
ENDBRANCH  19  21
ENDBRANCH  18  19
ENDBRANCH   1  18
TORSDOF 6
