REMARK  Name = ZINC64392064
REMARK  5 active torsions:
REMARK  status: ('A' for Active; 'I' for Inactive)
REMARK    1  A    between atoms: C_1  and  C_2
REMARK    2  A    between atoms: C_6  and  C_8
REMARK    3  A    between atoms: C_10  and  C_14
REMARK    4  A    between atoms: N_24  and  C_27
REMARK    5  A    between atoms: C_27  and  C_28
REMARK                            x       y       z     vdW  Elec       q    Type
REMARK                         _______ _______ _______ _____ _____    ______ ____
ROOT
ATOM      1  C   UNL     1       0.577  -5.701   4.057  0.00  0.00    +0.006 A 
ATOM      2  C   UNL     1       1.516  -5.940   3.066  0.00  0.00    +0.009 A 
ATOM      3  C   UNL     1       2.285  -7.085   3.094  0.00  0.00    +0.016 A 
ATOM      4  C   UNL     1       2.113  -8.002   4.127  0.00  0.00    +0.063 A 
ATOM      5  C   UNL     1       1.161  -7.759   5.132  0.00  0.00    +0.056 A 
ATOM      6  C   UNL     1       0.400  -6.600   5.090  0.00  0.00    +0.034 A 
ATOM      7  N   UNL     1       1.011  -8.690   6.150  0.00  0.00    -0.307 N 
ATOM      8  H   UNL     1       0.358  -8.536   6.850  0.00  0.00    +0.170 HD
ATOM      9  C   UNL     1       1.763  -9.804   6.174  0.00  0.00    +0.330 A 
ATOM     10  O   UNL     1       1.600 -10.595   7.083  0.00  0.00    -0.246 OA
ATOM     11  N   UNL     1       2.684 -10.081   5.239  0.00  0.00    -0.256 N 
ATOM     12  C   UNL     1       2.909  -9.240   4.205  0.00  0.00    +0.265 A 
ATOM     13  O   UNL     1       3.746  -9.498   3.362  0.00  0.00    -0.267 OA
ENDROOT
BRANCH   1  16
ATOM     14  C   UNL     1       0.052  -2.845   2.460  0.00  0.00    +0.134 C 
ATOM     15  N   UNL     1      -0.462  -4.025   2.620  0.00  0.00    -0.339 N 
ATOM     16  C   UNL     1      -0.255  -4.446   4.011  0.00  0.00    +0.274 C 
ATOM     17  O   UNL     1       0.446  -3.360   4.637  0.00  0.00    -0.243 OA
ATOM     18  N   UNL     1       0.619  -2.384   3.622  0.00  0.00    -0.247 N 
ATOM     19  H   UNL     1       1.064  -1.529   3.732  0.00  0.00    +0.196 HD
ATOM     20  H   UNL     1      -0.911  -4.544   1.933  0.00  0.00    +0.164 HD
BRANCH  14  26
ATOM     21  C   UNL     1      -0.018   1.503   0.010  0.00  0.00    +0.044 C 
ATOM     22  C   UNL     1       0.002  -0.004   0.002  0.00  0.00    -0.050 A 
ATOM     23  C   UNL     1       0.006  -0.688  -1.201  0.00  0.00    +0.003 A 
ATOM     24  C   UNL     1       0.024  -2.071  -1.216  0.00  0.00    +0.001 A 
ATOM     25  C   UNL     1       0.040  -2.777  -0.031  0.00  0.00    +0.011 A 
ATOM     26  C   UNL     1       0.036  -2.094   1.185  0.00  0.00    +0.017 A 
ATOM     27  C   UNL     1       0.023  -0.699   1.194  0.00  0.00    +0.015 A 
ENDBRANCH  14  26
ENDBRANCH   1  16
BRANCH  11  28
ATOM     28  C   UNL     1       3.462 -11.319   5.340  0.00  0.00    +0.168 C 
BRANCH  28  29
ATOM     29  C   UNL     1       2.745 -12.423   4.607  0.00  0.00    +0.008 A 
ATOM     30  C   UNL     1       1.986 -13.341   5.310  0.00  0.00    +0.008 A 
ATOM     31  C   UNL     1       1.329 -14.354   4.638  0.00  0.00    +0.000 A 
ATOM     32  C   UNL     1       1.429 -14.451   3.263  0.00  0.00    +0.003 A 
ATOM     33  C   UNL     1       2.186 -13.535   2.558  0.00  0.00    +0.039 A 
ATOM     34  C   UNL     1       2.841 -12.516   3.229  0.00  0.00    +0.128 A 
ATOM     35  F   UNL     1       3.577 -11.617   2.541  0.00  0.00    -0.205 F 
ENDBRANCH  28  29
ENDBRANCH  11  28
TORSDOF 4
