REMARK  Name = ZINC52595782
REMARK  8 active torsions:
REMARK  status: ('A' for Active; 'I' for Inactive)
REMARK    1  A    between atoms: C_1  and  C_2
REMARK    2  A    between atoms: C_7  and  C_41
REMARK    3  A    between atoms: C_11  and  O_34
REMARK    4  A    between atoms: C_13  and  C_33
REMARK    5  A    between atoms: C_16  and  O_32
REMARK    6  A    between atoms: C_21  and  C_25
REMARK    7  A    between atoms: C_37  and  C_39
REMARK    8  A    between atoms: C_37  and  C_40
REMARK                            x       y       z     vdW  Elec       q    Type
REMARK                         _______ _______ _______ _____ _____    ______ ____
ROOT
ATOM      1  C   UNL     1       0.165   1.538  -0.002  0.00  0.00    +0.012 C 
ATOM      2  C   UNL     1       0.155  -0.009  -0.005  0.00  0.00    -0.019 C 
ATOM      3  C   UNL     1      -1.296  -0.479  -0.002  0.00  0.00    +0.010 C 
ATOM      4  C   UNL     1      -1.990  -0.098   1.309  0.00  0.00    +0.033 C 
ATOM      5  C   UNL     1      -1.261  -0.793   2.453  0.00  0.00    +0.130 C 
ATOM      6  C   UNL     1       0.190  -0.316   2.531  0.00  0.00    +0.021 C 
ATOM      7  C   UNL     1       0.918  -0.510   1.210  0.00  0.00    +0.009 C 
ATOM      8  C   UNL     1       1.259  -1.999   1.082  0.00  0.00    +0.040 C 
ATOM      9  C   UNL     1       2.067  -2.248  -0.188  0.00  0.00    +0.158 C 
ATOM     10  C   UNL     1       1.193  -1.885  -1.395  0.00  0.00    +0.139 C 
ATOM     11  C   UNL     1       0.819  -0.411  -1.327  0.00  0.00    +0.075 C 
ATOM     12  C   UNL     1      -0.083  -0.041  -2.504  0.00  0.00    +0.163 C 
ATOM     13  C   UNL     1      -1.048  -1.144  -2.837  0.00  0.00    +0.107 A 
ATOM     14  C   UNL     1      -0.958  -2.393  -2.260  0.00  0.00    +0.137 A 
ATOM     15  C   UNL     1      -1.903  -3.376  -2.617  0.00  0.00    +0.093 A 
ATOM     16  C   UNL     1      -2.879  -3.072  -3.514  0.00  0.00    +0.144 A 
ATOM     17  O   UNL     1      -2.961  -1.857  -4.077  0.00  0.00    -0.422 OA
ATOM     18  C   UNL     1      -2.078  -0.900  -3.758  0.00  0.00    +0.346 A 
ATOM     19  O   UNL     1      -2.171   0.201  -4.275  0.00  0.00    -0.245 OA
ATOM     20  O   UNL     1       0.007  -2.686  -1.361  0.00  0.00    -0.482 OA
ATOM     21  C   UNL     1       1.982  -2.196  -2.676  0.00  0.00    +0.059 C 
ATOM     22  C   UNL     1       0.841  -1.193   3.626  0.00  0.00    +0.172 C 
ATOM     23  O   UNL     1       0.144  -0.934   4.846  0.00  0.00    -0.349 OA
ATOM     24  C   UNL     1      -1.264  -1.143   4.839  0.00  0.00    +0.165 C 
ATOM     25  O   UNL     1      -1.890  -0.541   3.706  0.00  0.00    -0.345 OA
ATOM     26  C   UNL     1      -1.855  -0.510   6.110  0.00  0.00    +0.074 C 
ATOM     27  C   UNL     1      -1.567  -2.644   4.866  0.00  0.00    +0.074 C 
ATOM     28  C   UNL     1       0.260   1.127   3.029  0.00  0.00    +0.016 C 
ENDROOT
BRANCH  16  29
ATOM     29  C   UNL     1      -3.874  -4.103  -3.874  0.00  0.00    +0.036 A 
ATOM     30  C   UNL     1      -4.888  -3.821  -4.798  0.00  0.00    +0.014 A 
ATOM     31  C   UNL     1      -5.795  -4.821  -5.101  0.00  0.00    +0.020 A 
ATOM     32  C   UNL     1      -5.673  -6.055  -4.487  0.00  0.00    +0.111 A 
ATOM     33  N   UNL     1      -4.708  -6.292  -3.619  0.00  0.00    -0.263 NA
ATOM     34  C   UNL     1      -3.817  -5.375  -3.303  0.00  0.00    +0.122 A 
ENDBRANCH  16  29
BRANCH  12  35
ATOM     35  O   UNL     1       0.716   0.263  -3.653  0.00  0.00    -0.386 OA
ATOM     36  H   UNL     1       0.202   0.507  -4.435  0.00  0.00    +0.210 HD
ENDBRANCH  12  35
BRANCH   9  37
ATOM     37  O   UNL     1       3.247  -1.445  -0.186  0.00  0.00    -0.388 OA
ATOM     38  H   UNL     1       3.838  -1.618   0.559  0.00  0.00    +0.210 HD
ENDBRANCH   9  37
TORSDOF 3
