REMARK  Name = ZINC37413222
REMARK  11 active torsions:
REMARK  status: ('A' for Active; 'I' for Inactive)
REMARK    1  A    between atoms: C_1  and  C_2
REMARK    2  A    between atoms: C_3  and  C_22
REMARK    3  A    between atoms: C_4  and  C_21
REMARK    4  A    between atoms: C_5  and  S_10
REMARK    5  A    between atoms: C_6  and  C_9
REMARK    6  A    between atoms: C_7  and  C_8
REMARK    7  A    between atoms: S_10  and  N_13
REMARK    8  A    between atoms: N_13  and  C_14
REMARK    9  A    between atoms: C_14  and  C_16
REMARK   10  A    between atoms: C_14  and  C_17
REMARK   11  A    between atoms: C_17  and  C_18
REMARK                            x       y       z     vdW  Elec       q    Type
REMARK                         _______ _______ _______ _____ _____    ______ ____
ROOT
ATOM      1  C   UNL     1      -0.943   1.337   0.034  0.00  0.00    +0.044 C 
ATOM      2  C   UNL     1      -0.440  -0.084   0.013  0.00  0.00    -0.044 A 
ATOM      3  C   UNL     1      -0.089  -0.675  -1.186  0.00  0.00    -0.043 A 
ATOM      4  C   UNL     1       0.372  -1.978  -1.205  0.00  0.00    -0.021 A 
ATOM      5  C   UNL     1       0.482  -2.690  -0.025  0.00  0.00    +0.112 A 
ATOM      6  C   UNL     1       0.132  -2.098   1.174  0.00  0.00    -0.021 A 
ATOM      7  C   UNL     1      -0.325  -0.793   1.194  0.00  0.00    -0.043 A 
ATOM      8  C   UNL     1      -0.701  -0.146   2.502  0.00  0.00    +0.044 C 
ATOM      9  C   UNL     1       0.252  -2.873   2.461  0.00  0.00    +0.046 C 
ATOM     10  C   UNL     1       0.753  -2.624  -2.512  0.00  0.00    +0.046 C 
ATOM     11  C   UNL     1      -0.210   0.100  -2.472  0.00  0.00    +0.044 C 
ENDROOT
BRANCH   5  12
ATOM     12  S   UNL     1       1.069  -4.351  -0.049  0.00  0.00    +0.059 S 
ATOM     13  O   UNL     1       1.784  -4.511  -1.266  0.00  0.00    -0.153 OA
ATOM     14  O   UNL     1       1.661  -4.591   1.220  0.00  0.00    -0.153 OA
BRANCH  12  15
ATOM     15  N   UNL     1      -0.258  -5.337  -0.147  0.00  0.00    -0.187 NA
ATOM     16  H   UNL     1      -0.473  -5.935   0.586  0.00  0.00    +0.148 HD
BRANCH  15  17
ATOM     17  C   UNL     1      -1.108  -5.306  -1.340  0.00  0.00    +0.084 C 
ATOM     18  C   UNL     1      -0.671  -6.409  -2.306  0.00  0.00    +0.026 C 
BRANCH  17  19
ATOM     19  C   UNL     1      -2.566  -5.531  -0.933  0.00  0.00    +0.145 C 
BRANCH  19  20
ATOM     20  C   UNL     1      -3.033  -4.380  -0.081  0.00  0.00    +0.358 C 
ATOM     21  O   UNL     1      -2.271  -3.464   0.178  0.00  0.00    -0.246 OA
ATOM     22  O   UNL     1      -4.174  -4.365   0.350  0.00  0.00    -0.246 OA
ENDBRANCH  19  20
ENDBRANCH  17  19
ENDBRANCH  15  17
ENDBRANCH  12  15
ENDBRANCH   5  12
TORSDOF 5
