REMARK  Name = ZINC09536265
REMARK  9 active torsions:
REMARK  status: ('A' for Active; 'I' for Inactive)
REMARK    1  A    between atoms: C_1  and  C_2
REMARK    2  A    between atoms: C_5  and  C_32
REMARK    3  A    between atoms: C_5  and  C_33
REMARK    4  A    between atoms: N_11  and  C_15
REMARK    5  A    between atoms: C_15  and  C_16
REMARK    6  A    between atoms: N_18  and  C_19
REMARK    7  A    between atoms: C_19  and  C_20
REMARK    8  A    between atoms: C_25  and  C_26
REMARK    9  A    between atoms: C_26  and  N_69
REMARK                            x       y       z     vdW  Elec       q    Type
REMARK                         _______ _______ _______ _____ _____    ______ ____
ROOT
ATOM      1  C   UNL     1       0.148   0.251   0.399  0.00  0.00    +0.231 C 
ATOM      2  O   UNL     1       0.331  -0.890   0.768  0.00  0.00    -0.274 OA
ATOM      3  N   UNL     1       1.198   1.070   0.194  0.00  0.00    -0.310 N 
ATOM      4  H   UNL     1       1.052   1.982  -0.101  0.00  0.00    +0.149 HD
ENDROOT
BRANCH   1   5
ATOM      5  C   UNL     1      -1.254   0.750   0.163  0.00  0.00    +0.213 C 
BRANCH   5  15
ATOM      6  C   UNL     1      -3.731  -3.563   4.771  0.00  0.00    +0.007 C 
ATOM      7  C   UNL     1      -3.994  -2.394   3.816  0.00  0.00    -0.011 C 
ATOM      8  C   UNL     1      -5.488  -2.078   3.803  0.00  0.00    +0.009 C 
ATOM      9  C   UNL     1      -5.791  -0.904   2.879  0.00  0.00    -0.032 C 
ATOM     10  C   UNL     1      -5.206  -1.087   1.490  0.00  0.00    +0.041 C 
ATOM     11  C   UNL     1      -3.791  -1.630   1.444  0.00  0.00    +0.113 C 
ATOM     12  C   UNL     1      -3.566  -2.789   2.403  0.00  0.00    +0.038 C 
ATOM     13  C   UNL     1      -2.764  -0.545   1.659  0.00  0.00    +0.247 C 
ATOM     14  O   UNL     1      -2.464   0.009   2.695  0.00  0.00    -0.273 OA
ATOM     15  N   UNL     1      -2.209  -0.323   0.447  0.00  0.00    -0.215 N 
ATOM     16  C   UNL     1      -2.622  -1.224  -0.451  0.00  0.00    +0.310 C 
ATOM     17  O   UNL     1      -2.237  -1.254  -1.604  0.00  0.00    -0.252 OA
ATOM     18  N   UNL     1      -3.510  -2.090   0.065  0.00  0.00    -0.285 N 
ATOM     19  C   UNL     1      -7.325  -0.797   2.742  0.00  0.00    +0.011 C 
ATOM     20  C   UNL     1      -5.296   0.401   3.510  0.00  0.00    +0.011 C 
ATOM     21  H   UNL     1      -3.897  -2.866  -0.365  0.00  0.00    +0.151 HD
ENDBRANCH   5  15
ENDBRANCH   1   5
BRANCH   3  22
ATOM     22  C   UNL     1       2.562   0.582   0.418  0.00  0.00    +0.139 C 
BRANCH  22  23
ATOM     23  C   UNL     1       3.544   1.685   0.120  0.00  0.00    -0.029 A 
ATOM     24  C   UNL     1       4.191   1.724  -1.101  0.00  0.00    +0.005 A 
ATOM     25  C   UNL     1       5.089   2.738  -1.376  0.00  0.00    +0.000 A 
ATOM     26  C   UNL     1       5.348   3.708  -0.426  0.00  0.00    +0.000 A 
ATOM     27  C   UNL     1       4.705   3.667   0.797  0.00  0.00    +0.002 A 
ATOM     28  C   UNL     1       3.803   2.655   1.070  0.00  0.00    -0.059 A 
BRANCH  28  29
ATOM     29  C   UNL     1       3.103   2.610   2.403  0.00  0.00    -0.042 C 
BRANCH  29  35
ATOM     30  C   UNL     1       1.788   4.613   2.047  0.00  0.00    -0.050 C 
ATOM     31  C   UNL     1       0.363   5.134   1.847  0.00  0.00    +0.141 C 
ATOM     32  O   UNL     1      -0.433   4.778   2.981  0.00  0.00    -0.383 OA
ATOM     33  C   UNL     1      -0.495   3.369   3.221  0.00  0.00    +0.141 C 
ATOM     34  C   UNL     1       0.922   2.830   3.434  0.00  0.00    -0.050 C 
ATOM     35  N   UNL     1       1.735   3.149   2.242  0.00  0.00    +0.385 N 
ATOM     36  H   UNL     1       1.302   2.717   1.417  0.00  0.00    -0.081 HD
ENDBRANCH  29  35
ENDBRANCH  28  29
ENDBRANCH  22  23
ENDBRANCH   3  22
TORSDOF 6
