REMARK  Name = ZINC64953274
REMARK  11 active torsions:
REMARK  status: ('A' for Active; 'I' for Inactive)
REMARK    1  A    between atoms: C_1  and  C_2
REMARK    2  A    between atoms: C_2  and  C_3
REMARK    3  A    between atoms: C_3  and  N_4
REMARK    4  A    between atoms: C_8  and  C_26
REMARK    5  A    between atoms: C_13  and  C_14
REMARK    6  A    between atoms: C_13  and  C_15
REMARK    7  A    between atoms: N_17  and  C_18
REMARK    8  A    between atoms: C_18  and  C_19
REMARK    9  A    between atoms: N_28  and  C_29
REMARK   10  A    between atoms: C_29  and  C_30
REMARK   11  A    between atoms: C_30  and  C_31
REMARK                            x       y       z     vdW  Elec       q    Type
REMARK                         _______ _______ _______ _____ _____    ______ ____
ROOT
ATOM      1  N   UNL     1      -1.413  -1.998   0.005  0.00  0.00    -0.281 N 
ATOM      2  C   UNL     1      -1.410  -2.652  -1.183  0.00  0.00    +0.266 C 
ATOM      3  O   UNL     1      -1.219  -2.071  -2.234  0.00  0.00    -0.268 OA
ATOM      4  C   UNL     1      -1.650  -4.103  -1.128  0.00  0.00    +0.137 A 
ATOM      5  C   UNL     1      -1.551  -5.087  -2.076  0.00  0.00    +0.155 A 
ATOM      6  N   UNL     1      -1.874  -6.248  -1.470  0.00  0.00    -0.230 NA
ATOM      7  C   UNL     1      -2.167  -6.021  -0.213  0.00  0.00    +0.200 A 
ATOM      8  N   UNL     1      -2.055  -4.716   0.042  0.00  0.00    -0.323 N 
ATOM      9  C   UNL     1      -2.296  -3.952   1.266  0.00  0.00    +0.158 C 
ATOM     10  C   UNL     1      -1.392  -2.715   1.275  0.00  0.00    +0.128 C 
ATOM     11  C   UNL     1      -1.858  -1.770   2.384  0.00  0.00    +0.043 C 
ENDROOT
BRANCH  10  12
ATOM     12  C   UNL     1       0.023  -3.143   1.568  0.00  0.00    +0.238 C 
ATOM     13  O   UNL     1       0.427  -3.160   2.711  0.00  0.00    -0.273 OA
ATOM     14  N   UNL     1       0.840  -3.507   0.559  0.00  0.00    -0.309 N 
ATOM     15  H   UNL     1       0.516  -3.494  -0.355  0.00  0.00    +0.149 HD
BRANCH  14  16
ATOM     16  C   UNL     1       2.215  -3.923   0.844  0.00  0.00    +0.139 C 
BRANCH  16  17
ATOM     17  C   UNL     1       2.910  -4.276  -0.446  0.00  0.00    -0.030 A 
ATOM     18  C   UNL     1       2.858  -5.571  -0.927  0.00  0.00    +0.008 A 
ATOM     19  C   UNL     1       3.495  -5.895  -2.110  0.00  0.00    +0.038 A 
ATOM     20  C   UNL     1       4.186  -4.923  -2.813  0.00  0.00    +0.123 A 
ATOM     21  C   UNL     1       4.238  -3.626  -2.330  0.00  0.00    +0.038 A 
ATOM     22  C   UNL     1       3.596  -3.303  -1.150  0.00  0.00    +0.008 A 
ATOM     23  F   UNL     1       4.809  -5.239  -3.969  0.00  0.00    -0.205 F 
ENDBRANCH  16  17
ENDBRANCH  14  16
ENDBRANCH  10  12
BRANCH   5  24
ATOM     24  C   UNL     1      -1.164  -4.911  -3.492  0.00  0.00    +0.265 C 
ATOM     25  O   UNL     1      -0.896  -3.803  -3.915  0.00  0.00    -0.268 OA
ATOM     26  N   UNL     1      -1.109  -5.978  -4.314  0.00  0.00    -0.310 N 
ATOM     27  H   UNL     1      -1.323  -6.862  -3.976  0.00  0.00    +0.149 HD
BRANCH  26  28
ATOM     28  C   UNL     1      -0.726  -5.803  -5.717  0.00  0.00    +0.109 C 
BRANCH  28  29
ATOM     29  C   UNL     1      -0.742  -7.160  -6.423  0.00  0.00    +0.054 C 
BRANCH  29  30
ATOM     30  C   UNL     1      -0.348  -6.980  -7.866  0.00  0.00    -0.046 A 
ATOM     31  C   UNL     1      -1.316  -6.726  -8.820  0.00  0.00    +0.005 A 
ATOM     32  C   UNL     1      -0.955  -6.561 -10.144  0.00  0.00    +0.020 A 
ATOM     33  C   UNL     1       0.375  -6.650 -10.515  0.00  0.00    +0.041 A 
ATOM     34  C   UNL     1       1.343  -6.905  -9.559  0.00  0.00    +0.020 A 
ATOM     35  C   UNL     1       0.982  -7.064  -8.235  0.00  0.00    +0.005 A 
ATOM     36 CL   UNL     1       0.829  -6.444 -12.177  0.00  0.00    -0.084 Cl
ENDBRANCH  29  30
ENDBRANCH  28  29
ENDBRANCH  26  28
ENDBRANCH   5  24
BRANCH   1  37
ATOM     37  C   UNL     1      -1.433  -0.534   0.013  0.00  0.00    +0.109 C 
BRANCH  37  39
ATOM     38  C   UNL     1      -0.019   1.526   0.010  0.00  0.00    +0.005 C 
ATOM     39  C   UNL     1       0.002  -0.004   0.002  0.00  0.00    +0.016 C 
ENDBRANCH  37  39
ENDBRANCH   1  37
TORSDOF 9
