REMARK  Name = ZINC64702779
REMARK  7 active torsions:
REMARK  status: ('A' for Active; 'I' for Inactive)
REMARK    1  A    between atoms: C_1  and  C_2
REMARK    2  A    between atoms: C_2  and  C_3
REMARK    3  A    between atoms: C_6  and  C_9
REMARK    4  A    between atoms: C_17  and  S_21
REMARK    5  A    between atoms: S_21  and  C_22
REMARK    6  A    between atoms: C_22  and  C_23
REMARK    7  A    between atoms: N_25  and  C_26
REMARK                            x       y       z     vdW  Elec       q    Type
REMARK                         _______ _______ _______ _____ _____    ______ ____
ROOT
ATOM      1  C   UNL     1      -4.943  -1.712   1.090  0.00  0.00    +0.047 C 
ATOM      2  C   UNL     1      -5.482  -1.786  -0.149  0.00  0.00    +0.027 C 
ATOM      3  C   UNL     1      -6.885  -2.279   0.085  0.00  0.00    +0.193 C 
ATOM      4  C   UNL     1      -7.407  -3.296  -0.883  0.00  0.00    +0.276 C 
ATOM      5  O   UNL     1      -7.059  -3.312  -2.040  0.00  0.00    -0.270 OA
ATOM      6  N   UNL     1      -8.292  -4.198  -0.388  0.00  0.00    -0.081 NA
ATOM      7  N   UNL     1      -8.587  -4.283   0.806  0.00  0.00    -0.163 NA
ATOM      8  C   UNL     1      -7.982  -3.440   1.854  0.00  0.00    +0.272 C 
ATOM      9  N   UNL     1      -6.687  -3.009   1.379  0.00  0.00    -0.178 NA
ATOM     10  N   UNL     1      -5.897  -2.140   2.044  0.00  0.00    -0.274 N 
ATOM     11  H   UNL     1      -5.969  -1.868   2.972  0.00  0.00    +0.167 HD
ENDROOT
BRANCH   1  15
ATOM     12  C   UNL     1      -0.994  -0.415   1.976  0.00  0.00    -0.048 A 
ATOM     13  C   UNL     1      -1.835  -0.810   3.000  0.00  0.00    +0.004 A 
ATOM     14  C   UNL     1      -3.119  -1.232   2.719  0.00  0.00    +0.010 A 
ATOM     15  C   UNL     1      -3.567  -1.260   1.399  0.00  0.00    -0.003 A 
ATOM     16  C   UNL     1      -2.714  -0.861   0.370  0.00  0.00    +0.010 A 
ATOM     17  C   UNL     1      -1.434  -0.436   0.665  0.00  0.00    +0.004 A 
BRANCH  12  19
ATOM     18  C   UNL     1       0.404   1.555   2.535  0.00  0.00    +0.009 C 
ATOM     19  C   UNL     1       0.406   0.045   2.290  0.00  0.00    +0.032 C 
ENDBRANCH  12  19
ENDBRANCH   1  15
BRANCH   8  20
ATOM     20  S   UNL     1      -9.022  -1.985   2.155  0.00  0.00    -0.107 S 
BRANCH  20  21
ATOM     21  C   UNL     1     -10.422  -2.636   3.108  0.00  0.00    +0.168 C 
BRANCH  21  22
ATOM     22  C   UNL     1     -11.435  -1.542   3.324  0.00  0.00    +0.227 C 
ATOM     23  O   UNL     1     -11.233  -0.431   2.878  0.00  0.00    -0.275 OA
ATOM     24  N   UNL     1     -12.566  -1.796   4.011  0.00  0.00    -0.285 N 
ATOM     25  H   UNL     1     -12.694  -2.661   4.431  0.00  0.00    +0.155 HD
BRANCH  24  26
ATOM     26  C   UNL     1     -13.556  -0.812   4.120  0.00  0.00    +0.033 A 
ATOM     27  C   UNL     1     -14.323  -0.722   5.273  0.00  0.00    +0.025 A 
ATOM     28  C   UNL     1     -15.299   0.249   5.378  0.00  0.00    +0.022 A 
ATOM     29  C   UNL     1     -15.512   1.133   4.334  0.00  0.00    +0.041 A 
ATOM     30  C   UNL     1     -14.748   1.046   3.183  0.00  0.00    +0.022 A 
ATOM     31  C   UNL     1     -13.767   0.079   3.076  0.00  0.00    +0.025 A 
ATOM     32 CL   UNL     1     -16.740   2.353   4.468  0.00  0.00    -0.084 Cl
ENDBRANCH  24  26
ENDBRANCH  21  22
ENDBRANCH  20  21
ENDBRANCH   8  20
TORSDOF 6
