REMARK  Name = ZINC09432875
REMARK  13 active torsions:
REMARK  status: ('A' for Active; 'I' for Inactive)
REMARK    1  A    between atoms: C_1  and  O_2
REMARK    2  A    between atoms: O_2  and  C_3
REMARK    3  A    between atoms: C_3  and  C_4
REMARK    4  A    between atoms: C_4  and  N_5
REMARK    5  A    between atoms: C_6  and  C_35
REMARK    6  A    between atoms: C_8  and  C_18
REMARK    7  A    between atoms: N_20  and  C_21
REMARK    8  A    between atoms: C_21  and  C_22
REMARK    9  A    between atoms: C_22  and  C_23
REMARK   10  A    between atoms: C_23  and  N_75
REMARK   11  A    between atoms: C_24  and  C_25
REMARK   12  A    between atoms: C_24  and  N_75
REMARK   13  A    between atoms: C_30  and  N_75
REMARK                            x       y       z     vdW  Elec       q    Type
REMARK                         _______ _______ _______ _____ _____    ______ ____
ROOT
ATOM      1  N   UNL     1      -8.285  -3.489   6.942  0.00  0.00    -0.287 N 
ATOM      2  C   UNL     1      -7.000  -4.182   6.883  0.00  0.00    +0.129 C 
ATOM      3  C   UNL     1      -5.861  -3.198   6.626  0.00  0.00    +0.131 C 
ATOM      4  C   UNL     1      -5.940  -2.048   7.595  0.00  0.00    -0.021 A 
ATOM      5  C   UNL     1      -4.794  -1.427   8.043  0.00  0.00    +0.005 A 
ATOM      6  C   UNL     1      -4.884  -0.362   8.924  0.00  0.00    +0.000 A 
ATOM      7  C   UNL     1      -6.119   0.085   9.358  0.00  0.00    +0.001 A 
ATOM      8  C   UNL     1      -7.274  -0.533   8.921  0.00  0.00    +0.013 A 
ATOM      9  C   UNL     1      -7.188  -1.608   8.039  0.00  0.00    +0.041 A 
ATOM     10  C   UNL     1      -8.404  -2.301   7.564  0.00  0.00    +0.247 C 
ATOM     11  O   UNL     1      -9.500  -1.803   7.734  0.00  0.00    -0.270 OA
ENDROOT
BRANCH   2  12
ATOM     12  C   UNL     1      -6.757  -4.889   8.192  0.00  0.00    +0.011 A 
ATOM     13  C   UNL     1      -6.247  -6.125   8.412  0.00  0.00    +0.013 A 
ATOM     14  C   UNL     1      -6.113  -6.573   9.713  0.00  0.00    +0.008 A 
ATOM     15  C   UNL     1      -6.496  -5.762  10.730  0.00  0.00    +0.045 A 
ATOM     16  S   UNL     1      -7.061  -4.312   9.854  0.00  0.00    -0.100 S 
ENDBRANCH   2  12
BRANCH   3  17
ATOM     17  C   UNL     1      -5.963  -2.672   5.218  0.00  0.00    +0.223 C 
ATOM     18  O   UNL     1      -6.860  -3.049   4.493  0.00  0.00    -0.275 OA
ATOM     19  N   UNL     1      -5.058  -1.783   4.763  0.00  0.00    -0.315 N 
ATOM     20  H   UNL     1      -4.340  -1.482   5.342  0.00  0.00    +0.149 HD
BRANCH  19  21
ATOM     21  C   UNL     1      -5.157  -1.272   3.394  0.00  0.00    +0.102 C 
BRANCH  21  22
ATOM     22  C   UNL     1      -4.017  -0.286   3.134  0.00  0.00    +0.000 C 
BRANCH  22  23
ATOM     23  C   UNL     1      -4.120   0.248   1.704  0.00  0.00    -0.076 C 
BRANCH  23  24
ATOM     24  N   UNL     1      -2.922   1.061   1.408  0.00  0.00    +0.386 N 
ATOM     25  H   UNL     1      -2.083   0.492   1.576  0.00  0.00    -0.081 HD
BRANCH  24  26
ATOM     26  C   UNL     1      -2.884   2.245   2.293  0.00  0.00    -0.068 C 
ATOM     27  C   UNL     1      -2.359   1.825   3.681  0.00  0.00    -0.015 C 
ATOM     28  C   UNL     1      -3.175   2.692   4.673  0.00  0.00    -0.002 C 
ATOM     29  C   UNL     1      -4.581   2.724   4.023  0.00  0.00    -0.002 C 
ATOM     30  C   UNL     1      -4.295   2.817   2.510  0.00  0.00    -0.015 C 
ENDBRANCH  24  26
BRANCH  24  31
ATOM     31  C   UNL     1      -2.937   1.488  -0.007  0.00  0.00    -0.003 C 
BRANCH  31  32
ATOM     32  C   UNL     1      -1.568   2.002  -0.372  0.00  0.00    +0.089 A 
ATOM     33  C   UNL     1      -0.524   1.250  -0.763  0.00  0.00    +0.042 A 
ATOM     34  C   UNL     1       0.550   2.136  -1.008  0.00  0.00    +0.041 A 
ATOM     35  C   UNL     1       0.100   3.376  -0.746  0.00  0.00    +0.195 A 
ATOM     36  O   UNL     1      -1.183   3.288  -0.358  0.00  0.00    -0.470 OA
ENDBRANCH  31  32
ENDBRANCH  24  31
ENDBRANCH  23  24
ENDBRANCH  22  23
ENDBRANCH  21  22
ENDBRANCH  19  21
ENDBRANCH   3  17
BRANCH   1  37
ATOM     37  C   UNL     1      -9.461  -4.097   6.315  0.00  0.00    +0.137 C 
BRANCH  37  38
ATOM     38  C   UNL     1     -10.179  -4.986   7.332  0.00  0.00    +0.178 C 
BRANCH  38  40
ATOM     39  C   UNL     1     -11.384  -4.916   9.402  0.00  0.00    +0.194 C 
ATOM     40  O   UNL     1     -10.692  -4.179   8.393  0.00  0.00    -0.381 OA
ENDBRANCH  38  40
ENDBRANCH  37  38
ENDBRANCH   1  37
TORSDOF 12
