REMARK  Name = ZINC40019760
REMARK  18 active torsions:
REMARK  status: ('A' for Active; 'I' for Inactive)
REMARK    1  A    between atoms: C_1  and  C_2
REMARK    2  A    between atoms: C_2  and  C_3
REMARK    3  A    between atoms: C_3  and  C_4
REMARK    4  A    between atoms: C_4  and  N_5
REMARK    5  A    between atoms: N_5  and  C_6
REMARK    6  A    between atoms: N_5  and  C_10
REMARK    7  A    between atoms: C_6  and  C_7
REMARK    8  A    between atoms: C_7  and  C_8
REMARK    9  A    between atoms: C_8  and  C_9
REMARK   10  A    between atoms: C_10  and  C_11
REMARK   11  A    between atoms: C_11  and  C_12
REMARK   12  A    between atoms: C_12  and  N_13
REMARK   13  A    between atoms: C_14  and  C_34
REMARK   14  A    between atoms: C_16  and  C_21
REMARK   15  A    between atoms: C_21  and  C_23
REMARK   16  A    between atoms: C_29  and  O_32
REMARK   17  A    between atoms: O_32  and  C_33
REMARK   18  A    between atoms: C_37  and  C_39
REMARK                            x       y       z     vdW  Elec       q    Type
REMARK                         _______ _______ _______ _____ _____    ______ ____
ROOT
ATOM      1  N   UNL     1       3.389  -6.304  -0.363  0.00  0.00    -0.281 N 
ATOM      2  C   UNL     1       2.981  -6.274  -1.772  0.00  0.00    +0.180 C 
ATOM      3  C   UNL     1       3.901  -7.229  -2.497  0.00  0.00    +0.082 C 
ATOM      4  C   UNL     1       4.743  -7.739  -1.569  0.00  0.00    +0.249 C 
ATOM      5  C   UNL     1       4.423  -7.157  -0.250  0.00  0.00    +0.288 C 
ATOM      6  O   UNL     1       5.007  -7.413   0.785  0.00  0.00    -0.266 OA
ATOM      7  O   UNL     1       5.726  -8.638  -1.813  0.00  0.00    -0.282 OA
ENDROOT
BRANCH   2   8
ATOM      8  C   UNL     1       3.134  -4.882  -2.327  0.00  0.00    +0.130 A 
ATOM      9  C   UNL     1       4.274  -4.170  -2.360  0.00  0.00    +0.047 A 
ATOM     10  C   UNL     1       3.964  -2.928  -2.961  0.00  0.00    +0.045 A 
ATOM     11  C   UNL     1       2.653  -2.955  -3.259  0.00  0.00    +0.102 A 
ATOM     12  O   UNL     1       2.156  -4.144  -2.878  0.00  0.00    -0.463 OA
ATOM     13  C   UNL     1       1.874  -1.844  -3.914  0.00  0.00    +0.086 C 
ENDBRANCH   2   8
BRANCH   3  14
ATOM     14  C   UNL     1       3.884  -7.541  -3.930  0.00  0.00    +0.230 C 
ATOM     15  O   UNL     1       4.763  -8.231  -4.413  0.00  0.00    -0.283 OA
BRANCH  14  16
ATOM     16  C   UNL     1       2.805  -7.022  -4.782  0.00  0.00    +0.176 A 
ATOM     17  C   UNL     1       2.738  -7.163  -6.135  0.00  0.00    +0.062 A 
ATOM     18  C   UNL     1       1.506  -6.497  -6.550  0.00  0.00    +0.025 A 
ATOM     19  C   UNL     1       0.877  -6.293  -7.783  0.00  0.00    +0.012 A 
ATOM     20  C   UNL     1      -0.304  -5.608  -7.838  0.00  0.00    +0.004 A 
ATOM     21  C   UNL     1      -0.885  -5.112  -6.678  0.00  0.00    +0.049 A 
ATOM     22  C   UNL     1      -0.281  -5.302  -5.449  0.00  0.00    +0.163 A 
ATOM     23  C   UNL     1       0.925  -5.999  -5.370  0.00  0.00    +0.177 A 
ATOM     24  O   UNL     1       1.729  -6.339  -4.343  0.00  0.00    -0.448 OA
BRANCH  22  25
ATOM     25  O   UNL     1      -0.860  -4.811  -4.321  0.00  0.00    -0.491 OA
ATOM     26  C   UNL     1      -2.094  -4.108  -4.479  0.00  0.00    +0.277 C 
ENDBRANCH  22  25
ENDBRANCH  14  16
ENDBRANCH   3  14
BRANCH   1  27
ATOM     27  C   UNL     1       2.783  -5.535   0.727  0.00  0.00    +0.107 C 
BRANCH  27  28
ATOM     28  C   UNL     1       3.440  -4.155   0.805  0.00  0.00    +0.000 C 
BRANCH  28  29
ATOM     29  C   UNL     1       2.911  -3.407   2.030  0.00  0.00    -0.077 C 
BRANCH  29  30
ATOM     30  N   UNL     1       3.475  -2.051   2.056  0.00  0.00    +0.380 N 
ATOM     31  H   UNL     1       4.481  -2.104   2.005  0.00  0.00    -0.082 HD
BRANCH  30  32
ATOM     32  C   UNL     1       2.966  -1.286   0.910  0.00  0.00    -0.079 C 
BRANCH  32  33
ATOM     33  C   UNL     1       1.454  -1.102   1.050  0.00  0.00    -0.019 C 
BRANCH  33  35
ATOM     34  C   UNL     1      -0.621  -0.344  -0.117  0.00  0.00    +0.004 C 
ATOM     35  C   UNL     1       0.905  -0.418  -0.204  0.00  0.00    -0.005 C 
ENDBRANCH  33  35
ENDBRANCH  32  33
ENDBRANCH  30  32
BRANCH  30  36
ATOM     36  C   UNL     1       3.082  -1.381   3.304  0.00  0.00    -0.079 C 
BRANCH  36  37
ATOM     37  C   UNL     1       3.738  -0.001   3.370  0.00  0.00    -0.019 C 
BRANCH  37  38
ATOM     38  C   UNL     1       3.440   0.641   4.726  0.00  0.00    -0.005 C 
ATOM     39  C   UNL     1       4.096   2.022   4.793  0.00  0.00    +0.004 C 
ENDBRANCH  37  38
ENDBRANCH  36  37
ENDBRANCH  30  36
ENDBRANCH  29  30
ENDBRANCH  28  29
ENDBRANCH  27  28
ENDBRANCH   1  27
TORSDOF 14
