REMARK  Name = ZINC38914972
REMARK  6 active torsions:
REMARK  status: ('A' for Active; 'I' for Inactive)
REMARK    1  A    between atoms: C_1  and  C_2
REMARK    2  A    between atoms: C_2  and  C_3
REMARK    3  A    between atoms: C_3  and  C_4
REMARK    4  A    between atoms: C_6  and  C_18
REMARK    5  A    between atoms: C_8  and  C_16
REMARK    6  A    between atoms: C_9  and  N_15
REMARK                            x       y       z     vdW  Elec       q    Type
REMARK                         _______ _______ _______ _____ _____    ______ ____
ROOT
ATOM      1  C   UNL     1       0.739  -2.004  -1.265  0.00  0.00    +0.069 C 
ATOM      2  C   UNL     1      -0.135  -2.762  -1.882  0.00  0.00    +0.030 C 
ATOM      3  C   UNL     1      -1.423  -2.480  -2.608  0.00  0.00    +0.098 C 
ATOM      4  C   UNL     1      -2.385  -3.567  -2.166  0.00  0.00    +0.097 C 
ATOM      5  C   UNL     1      -1.974  -4.625  -1.436  0.00  0.00    +0.195 C 
ATOM      6  O   UNL     1      -0.727  -4.855  -0.986  0.00  0.00    -0.448 OA
ATOM      7  C   UNL     1       0.349  -4.195  -1.657  0.00  0.00    +0.343 C 
ATOM      8  N   UNL     1       1.507  -3.990  -0.780  0.00  0.00    -0.138 NA
ATOM      9  N   UNL     1       1.668  -2.771  -0.639  0.00  0.00    -0.155 NA
ENDROOT
BRANCH   3  10
ATOM     10  C   UNL     1      -1.206  -2.546  -4.098  0.00  0.00    -0.024 A 
ATOM     11  C   UNL     1      -0.768  -3.694  -4.694  0.00  0.00    +0.025 A 
ATOM     12  C   UNL     1      -0.575  -3.732  -6.072  0.00  0.00    +0.112 A 
ATOM     13  N   UNL     1      -0.802  -2.686  -6.830  0.00  0.00    -0.255 NA
ATOM     14  C   UNL     1      -1.232  -1.532  -6.310  0.00  0.00    +0.071 A 
ATOM     15  C   UNL     1      -1.455  -1.427  -4.914  0.00  0.00    +0.004 A 
ATOM     16  C   UNL     1      -1.911  -0.214  -4.374  0.00  0.00    +0.010 A 
ATOM     17  C   UNL     1      -2.140   0.846  -5.198  0.00  0.00    +0.001 A 
ATOM     18  C   UNL     1      -1.927   0.743  -6.571  0.00  0.00    +0.002 A 
ATOM     19  C   UNL     1      -1.473  -0.413  -7.127  0.00  0.00    +0.028 A 
ENDBRANCH   3  10
BRANCH   5  20
ATOM     20  N   UNL     1      -2.925  -5.561  -1.119  0.00  0.00    -0.329 N 
ATOM     21  H   UNL     1      -3.840  -5.444  -1.419  0.00  0.00    +0.145 HD
ATOM     22  H   UNL     1      -2.683  -6.341  -0.596  0.00  0.00    +0.145 HD
ENDBRANCH   5  20
BRANCH   4  23
ATOM     23  C   UNL     1      -3.765  -3.468  -2.534  0.00  0.00    +0.101 C 
ATOM     24  N   UNL     1      -4.861  -3.389  -2.826  0.00  0.00    -0.191 NA
ENDBRANCH   4  23
BRANCH   1  25
ATOM     25  C   UNL     1       0.718  -0.497  -1.257  0.00  0.00    +0.057 C 
BRANCH  25  27
ATOM     26  C   UNL     1      -0.019   1.526   0.010  0.00  0.00    +0.004 C 
ATOM     27  C   UNL     1       0.002  -0.004   0.002  0.00  0.00    +0.003 C 
ENDBRANCH  25  27
ENDBRANCH   1  25
TORSDOF 5
