REMARK  Name = ZINC58236560
REMARK  8 active torsions:
REMARK  status: ('A' for Active; 'I' for Inactive)
REMARK    1  A    between atoms: C_1  and  C_2
REMARK    2  A    between atoms: C_5  and  C_8
REMARK    3  A    between atoms: C_10  and  C_13
REMARK    4  A    between atoms: C_13  and  C_14
REMARK    5  A    between atoms: N_16  and  C_17
REMARK    6  A    between atoms: C_17  and  C_18
REMARK    7  A    between atoms: C_17  and  C_19
REMARK    8  A    between atoms: C_22  and  N_25
REMARK                            x       y       z     vdW  Elec       q    Type
REMARK                         _______ _______ _______ _____ _____    ______ ____
ROOT
ATOM      1  C   UNL     1       1.206  -6.750   2.963  0.00  0.00    +0.219 C 
ATOM      2  O   UNL     1       2.051  -5.934   2.661  0.00  0.00    -0.275 OA
ATOM      3  N   UNL     1       1.372  -7.519   4.057  0.00  0.00    -0.308 N 
ATOM      4  H   UNL     1       0.696  -8.171   4.298  0.00  0.00    +0.149 HD
ENDROOT
BRANCH   3   5
ATOM      5  C   UNL     1       2.573  -7.370   4.882  0.00  0.00    +0.100 C 
ATOM      6  C   UNL     1       3.704  -8.218   4.295  0.00  0.00    +0.033 C 
BRANCH   5   7
ATOM      7  C   UNL     1       2.279  -7.829   6.286  0.00  0.00    -0.027 A 
ATOM      8  C   UNL     1       1.504  -8.956   6.496  0.00  0.00    +0.007 A 
ATOM      9  C   UNL     1       1.232  -9.379   7.782  0.00  0.00    +0.023 A 
ATOM     10  C   UNL     1       1.737  -8.673   8.865  0.00  0.00    +0.035 A 
ATOM     11  C   UNL     1       2.515  -7.542   8.652  0.00  0.00    +0.023 A 
ATOM     12  C   UNL     1       2.788  -7.127   7.363  0.00  0.00    +0.007 A 
BRANCH  10  13
ATOM     13  N   UNL     1       1.463  -9.099  10.170  0.00  0.00    -0.270 N 
ATOM     14  C   UNL     1       1.337 -10.414  10.436  0.00  0.00    +0.301 C 
ATOM     15  O   UNL     1       1.556 -11.235   9.566  0.00  0.00    -0.253 OA
ATOM     16  N   UNL     1       0.967 -10.820  11.667  0.00  0.00    -0.313 N 
ATOM     17  H   UNL     1       1.364  -8.448  10.882  0.00  0.00    +0.156 HD
ATOM     18  H   UNL     1       0.792 -10.165  12.361  0.00  0.00    +0.146 HD
ATOM     19  H   UNL     1       0.876 -11.767  11.859  0.00  0.00    +0.146 HD
ENDBRANCH  10  13
ENDBRANCH   5   7
ENDBRANCH   3   5
BRANCH   1  20
ATOM     20  C   UNL     1      -0.030  -6.903   2.114  0.00  0.00    +0.151 C 
BRANCH  20  23
ATOM     21  C   UNL     1       0.253  -3.780   0.192  0.00  0.00    +0.109 A 
ATOM     22  N   UNL     1       0.197  -4.653   1.187  0.00  0.00    -0.243 NA
ATOM     23  C   UNL     1       0.029  -5.934   0.961  0.00  0.00    +0.058 A 
ATOM     24  C   UNL     1      -0.091  -6.387  -0.315  0.00  0.00    +0.071 A 
ATOM     25  S   UNL     1       0.042  -4.852  -1.223  0.00  0.00    -0.075 S 
BRANCH  21  30
ATOM     26  C   UNL     1       0.957   1.929   0.375  0.00  0.00    +0.044 C 
ATOM     27  C   UNL     1       0.773   0.434   0.327  0.00  0.00    -0.050 A 
ATOM     28  C   UNL     1       0.627  -0.203  -0.892  0.00  0.00    +0.004 A 
ATOM     29  C   UNL     1       0.458  -1.571  -0.943  0.00  0.00    +0.011 A 
ATOM     30  C   UNL     1       0.434  -2.313   0.239  0.00  0.00    +0.007 A 
ATOM     31  C   UNL     1       0.582  -1.664   1.465  0.00  0.00    +0.011 A 
ATOM     32  C   UNL     1       0.755  -0.296   1.502  0.00  0.00    +0.004 A 
ENDBRANCH  21  30
ENDBRANCH  20  23
ENDBRANCH   1  20
TORSDOF 6
