REMARK  Name = ZINC30521143
REMARK  3 active torsions:
REMARK  status: ('A' for Active; 'I' for Inactive)
REMARK    1  A    between atoms: C_3  and  S_17
REMARK    2  A    between atoms: C_6  and  N_7
REMARK    3  A    between atoms: S_17  and  C_18
REMARK                            x       y       z     vdW  Elec       q    Type
REMARK                         _______ _______ _______ _____ _____    ______ ____
ROOT
ATOM      1  C   UNL     1      -0.016   1.376   0.200  0.00  0.00    +0.024 A 
ATOM      2  C   UNL     1       1.168   2.086   0.202  0.00  0.00    +0.016 A 
ATOM      3  C   UNL     1       2.375   1.424   0.016  0.00  0.00    +0.008 A 
ATOM      4  C   UNL     1       2.391   0.048  -0.173  0.00  0.00    +0.016 A 
ATOM      5  C   UNL     1       1.207  -0.662  -0.175  0.00  0.00    +0.024 A 
ATOM      6  C   UNL     1      -0.000  -0.000   0.012  0.00  0.00    +0.032 A 
ENDROOT
BRANCH   6   7
ATOM      7  N   UNL     1      -1.201  -0.721   0.010  0.00  0.00    -0.298 N 
ATOM      8  C   UNL     1      -2.362  -0.136  -0.485  0.00  0.00    +0.146 A 
ATOM      9  C   UNL     1      -3.587  -0.818  -0.373  0.00  0.00    +0.049 A 
ATOM     10  C   UNL     1      -4.728  -0.255  -0.854  0.00  0.00    +0.055 A 
ATOM     11  C   UNL     1      -4.664   1.012  -1.460  0.00  0.00    +0.200 A 
ATOM     12  N   UNL     1      -5.562   1.815  -2.015  0.00  0.00    -0.107 NA
ATOM     13  N   UNL     1      -4.995   2.889  -2.438  0.00  0.00    -0.021 NA
ATOM     14  N   UNL     1      -3.728   2.865  -2.197  0.00  0.00    -0.021 NA
ATOM     15  N   UNL     1      -3.457   1.650  -1.554  0.00  0.00    -0.108 N 
ATOM     16  N   UNL     1      -2.303   1.051  -1.048  0.00  0.00    -0.131 NA
ATOM     17  H   UNL     1      -1.223  -1.627   0.353  0.00  0.00    +0.154 HD
ENDBRANCH   6   7
BRANCH   3  18
ATOM     18  S   UNL     1       3.886   2.331   0.018  0.00  0.00    -0.122 S 
BRANCH  18  19
ATOM     19  C   UNL     1       5.157   1.065  -0.256  0.00  0.00    +0.051 C 
ATOM     20  C   UNL     1       5.081   0.525  -1.706  0.00  0.00    +0.014 C 
ATOM     21  C   UNL     1       6.510  -0.021  -1.942  0.00  0.00    +0.001 C 
ATOM     22  C   UNL     1       7.427   0.994  -1.229  0.00  0.00    +0.001 C 
ATOM     23  C   UNL     1       6.566   1.686  -0.157  0.00  0.00    +0.014 C 
ENDBRANCH  18  19
ENDBRANCH   3  18
TORSDOF 3
