REMARK  Name = ZINC14729250
REMARK  6 active torsions:
REMARK  status: ('A' for Active; 'I' for Inactive)
REMARK    1  A    between atoms: C_1  and  C_2
REMARK    2  A    between atoms: C_15  and  C_17
REMARK    3  A    between atoms: C_17  and  C_19
REMARK    4  A    between atoms: C_17  and  N_60
REMARK    5  A    between atoms: C_22  and  C_25
REMARK    6  A    between atoms: C_25  and  C_27
REMARK                            x       y       z     vdW  Elec       q    Type
REMARK                         _______ _______ _______ _____ _____    ______ ____
ROOT
ATOM      1  C   UNL     1       0.969  -5.593  -3.610  0.00  0.00    -0.004 C 
ATOM      2  C   UNL     1      -0.433  -5.973  -4.089  0.00  0.00    -0.005 C 
ENDROOT
BRANCH   1  16
ATOM      3  C   UNL     1       1.398   3.572   0.259  0.00  0.00    +0.008 C 
ATOM      4  C   UNL     1       1.415   2.064  -0.000  0.00  0.00    -0.009 C 
ATOM      5  C   UNL     1      -0.019   1.524   0.010  0.00  0.00    +0.008 C 
ATOM      6  C   UNL     1       0.002  -0.004   0.002  0.00  0.00    +0.037 C 
ATOM      7  C   UNL     1       0.872  -0.480  -1.159  0.00  0.00    -0.023 A 
ATOM      8  C   UNL     1       1.763   0.357  -1.739  0.00  0.00    -0.004 A 
ATOM      9  S   UNL     1       2.537  -0.601  -3.017  0.00  0.00    -0.073 S 
ATOM     10  C   UNL     1       1.667  -2.117  -2.771  0.00  0.00    +0.116 A 
ATOM     11  C   UNL     1       0.798  -1.827  -1.696  0.00  0.00    +0.075 A 
ATOM     12  C   UNL     1      -0.062  -2.886  -1.250  0.00  0.00    +0.260 A 
ATOM     13  O   UNL     1      -0.849  -2.739  -0.330  0.00  0.00    -0.267 OA
ATOM     14  N   UNL     1       0.056  -4.059  -1.916  0.00  0.00    -0.312 N 
ATOM     15  H   UNL     1      -0.507  -4.802  -1.647  0.00  0.00    +0.170 HD
ATOM     16  C   UNL     1       0.923  -4.243  -2.941  0.00  0.00    +0.097 A 
ATOM     17  N   UNL     1       1.726  -3.299  -3.378  0.00  0.00    -0.228 NA
ATOM     18  C   UNL     1       2.034   1.785  -1.377  0.00  0.00    +0.046 C 
ENDBRANCH   1  16
BRANCH   1  24
ATOM     19  C   UNL     1       1.423  -4.555  -5.749  0.00  0.00    -0.077 C 
ATOM     20  C   UNL     1       2.469  -4.420  -6.859  0.00  0.00    -0.007 C 
ATOM     21  C   UNL     1       2.677  -5.783  -7.525  0.00  0.00    +0.057 C 
ATOM     22  C   UNL     1       3.108  -6.800  -6.464  0.00  0.00    -0.007 C 
ATOM     23  C   UNL     1       2.044  -6.866  -5.366  0.00  0.00    -0.077 C 
ATOM     24  N   UNL     1       1.908  -5.529  -4.749  0.00  0.00    +0.386 N 
ATOM     25  H   UNL     1       2.827  -5.226  -4.407  0.00  0.00    -0.081 HD
BRANCH  21  26
ATOM     26  C   UNL     1       3.748  -5.671  -8.579  0.00  0.00    +0.166 C 
ATOM     27  O   UNL     1       4.898  -5.947  -8.307  0.00  0.00    -0.292 OA
BRANCH  26  28
ATOM     28  C   UNL     1       3.400  -5.226  -9.938  0.00  0.00    +0.018 A 
ATOM     29  C   UNL     1       2.075  -4.912 -10.256  0.00  0.00    +0.011 A 
ATOM     30  C   UNL     1       1.757  -4.491 -11.530  0.00  0.00    +0.001 A 
ATOM     31  C   UNL     1       2.744  -4.389 -12.496  0.00  0.00    +0.000 A 
ATOM     32  C   UNL     1       4.056  -4.704 -12.190  0.00  0.00    +0.001 A 
ATOM     33  C   UNL     1       4.391  -5.121 -10.919  0.00  0.00    +0.011 A 
ENDBRANCH  26  28
ENDBRANCH  21  26
ENDBRANCH   1  24
TORSDOF 4
