REMARK  Name = ZINC00942350
REMARK  11 active torsions:
REMARK  status: ('A' for Active; 'I' for Inactive)
REMARK    1  A    between atoms: C_1  and  C_2
REMARK    2  A    between atoms: C_5  and  O_12
REMARK    3  A    between atoms: C_6  and  C_8
REMARK    4  A    between atoms: C_8  and  C_9
REMARK    5  A    between atoms: C_8  and  C_10
REMARK    6  A    between atoms: C_8  and  C_11
REMARK    7  A    between atoms: O_12  and  C_13
REMARK    8  A    between atoms: C_13  and  C_14
REMARK    9  A    between atoms: N_16  and  C_17
REMARK   10  A    between atoms: C_19  and  N_24
REMARK   11  A    between atoms: C_22  and  C_23
REMARK                            x       y       z     vdW  Elec       q    Type
REMARK                         _______ _______ _______ _____ _____    ______ ____
ROOT
ATOM      1  C   UNL     1      -0.063  -0.003   0.012  0.00  0.00    +0.255 C 
ATOM      2  O   UNL     1       0.961  -0.646  -0.088  0.00  0.00    -0.272 OA
ATOM      3  N   UNL     1      -0.016   1.344   0.009  0.00  0.00    -0.282 N 
ATOM      4  H   UNL     1      -0.839   1.857   0.004  0.00  0.00    +0.155 HD
ENDROOT
BRANCH   3   5
ATOM      5  C   UNL     1       1.219   2.001   0.009  0.00  0.00    +0.039 A 
ATOM      6  C   UNL     1       2.346   1.365   0.515  0.00  0.00    +0.056 A 
ATOM      7  C   UNL     1       3.564   2.014   0.508  0.00  0.00    +0.128 A 
ATOM      8  C   UNL     1       3.662   3.300   0.007  0.00  0.00    +0.033 A 
ATOM      9  C   UNL     1       2.542   3.937  -0.492  0.00  0.00    +0.007 A 
ATOM     10  C   UNL     1       1.321   3.291  -0.493  0.00  0.00    -0.029 A 
ATOM     11  C   UNL     1       0.100   3.987  -1.038  0.00  0.00    +0.045 C 
BRANCH   7  12
ATOM     12  N   UNL     1       4.766   1.336   1.043  0.00  0.00    +0.056 N 
ATOM     13  O   UNL     1       5.841   1.909   1.041  0.00  0.00    -0.126 OA
ATOM     14  O   UNL     1       4.681   0.204   1.484  0.00  0.00    -0.126 OA
ENDBRANCH   7  12
ENDBRANCH   3   5
BRANCH   1  15
ATOM     15  C   UNL     1      -1.388  -0.711   0.138  0.00  0.00    +0.324 C 
BRANCH  15  16
ATOM     16  O   UNL     1      -1.177  -2.124   0.116  0.00  0.00    -0.482 OA
BRANCH  16  21
ATOM     17  C   UNL     1      -5.740  -5.397   0.548  0.00  0.00    +0.044 C 
ATOM     18  C   UNL     1      -4.519  -4.522   0.433  0.00  0.00    -0.050 A 
ATOM     19  C   UNL     1      -4.653  -3.145   0.448  0.00  0.00    +0.007 A 
ATOM     20  C   UNL     1      -3.535  -2.341   0.342  0.00  0.00    +0.046 A 
ATOM     21  C   UNL     1      -2.278  -2.914   0.220  0.00  0.00    +0.125 A 
ATOM     22  C   UNL     1      -2.147  -4.295   0.200  0.00  0.00    -0.000 A 
ATOM     23  C   UNL     1      -3.267  -5.096   0.311  0.00  0.00    +0.011 A 
BRANCH  22  24
ATOM     24  C   UNL     1      -0.783  -4.921   0.061  0.00  0.00    -0.009 C 
ATOM     25  C   UNL     1      -0.919  -6.445   0.066  0.00  0.00    +0.015 C 
ATOM     26  C   UNL     1      -0.146  -4.470  -1.255  0.00  0.00    +0.015 C 
ATOM     27  C   UNL     1       0.100  -4.484   1.231  0.00  0.00    +0.015 C 
ENDBRANCH  22  24
ENDBRANCH  16  21
ENDBRANCH  15  16
ENDBRANCH   1  15
TORSDOF 6
