REMARK  Name = ZINC63974603
REMARK  4 active torsions:
REMARK  status: ('A' for Active; 'I' for Inactive)
REMARK    1  A    between atoms: C_1  and  O_2
REMARK    2  A    between atoms: O_2  and  C_3
REMARK    3  A    between atoms: C_3  and  C_5
REMARK    4  A    between atoms: C_7  and  O_32
REMARK                            x       y       z     vdW  Elec       q    Type
REMARK                         _______ _______ _______ _____ _____    ______ ____
ROOT
ATOM      1  C   UNL     1       0.657  -2.104  -1.120  0.00  0.00    +0.130 C 
ATOM      2  C   UNL     1       1.517  -2.639   0.027  0.00  0.00    +0.129 C 
ATOM      3  C   UNL     1       2.930  -2.065  -0.084  0.00  0.00    +0.032 C 
ATOM      4  C   UNL     1       3.546  -2.482  -1.421  0.00  0.00    +0.007 C 
ATOM      5  C   UNL     1       2.688  -1.946  -2.568  0.00  0.00    +0.007 C 
ATOM      6  C   UNL     1       1.272  -2.522  -2.457  0.00  0.00    +0.011 C 
ATOM      7  C   UNL     1       0.435  -1.954  -3.603  0.00  0.00    +0.026 C 
ATOM      8  C   UNL     1       0.409  -0.423  -3.534  0.00  0.00    +0.083 C 
ATOM      9  C   UNL     1      -0.363   0.071  -4.765  0.00  0.00    +0.123 C 
ATOM     10  C   UNL     1      -0.203   1.582  -4.820  0.00  0.00    -0.036 C 
ATOM     11  C   UNL     1      -1.425   2.090  -4.874  0.00  0.00    -0.001 A 
ATOM     12  C   UNL     1      -1.911   3.472  -5.022  0.00  0.00    +0.010 A 
ATOM     13  C   UNL     1      -3.260   3.637  -5.024  0.00  0.00    +0.001 A 
ATOM     14  C   UNL     1      -4.165   2.578  -4.894  0.00  0.00    +0.002 A 
ATOM     15  C   UNL     1      -3.808   1.276  -4.759  0.00  0.00    +0.026 A 
ATOM     16  C   UNL     1      -2.415   0.976  -4.749  0.00  0.00    +0.043 A 
ATOM     17  N   UNL     1      -1.800  -0.184  -4.657  0.00  0.00    -0.376 N 
ATOM     18  C   UNL     1       1.158   2.228  -4.718  0.00  0.00    +0.049 C 
ATOM     19  C   UNL     1       1.828   1.585  -3.495  0.00  0.00    +0.089 C 
ATOM     20  N   UNL     1       1.776   0.115  -3.547  0.00  0.00    -0.297 NA
ATOM     21  C   UNL     1       2.611  -0.423  -2.483  0.00  0.00    +0.088 C 
ATOM     22  H   UNL     1      -2.215  -1.052  -4.536  0.00  0.00    +0.160 HD
ENDROOT
BRANCH   1  23
ATOM     23  C   UNL     1       0.598  -0.600  -1.043  0.00  0.00    +0.313 C 
ATOM     24  O   UNL     1       0.988   0.069  -1.971  0.00  0.00    -0.250 OA
BRANCH  23  26
ATOM     25  C   UNL     1       0.086   1.426   0.061  0.00  0.00    +0.280 C 
ATOM     26  O   UNL     1       0.113  -0.003   0.057  0.00  0.00    -0.468 OA
ENDBRANCH  23  26
ENDBRANCH   1  23
BRANCH   2  27
ATOM     27  O   UNL     1       0.941  -2.250   1.276  0.00  0.00    -0.391 OA
ATOM     28  H   UNL     1       1.434  -2.556   2.049  0.00  0.00    +0.210 HD
ENDBRANCH   2  27
TORSDOF 3
