REMARK  Name = ZINC08821766
REMARK  8 active torsions:
REMARK  status: ('A' for Active; 'I' for Inactive)
REMARK    1  A    between atoms: C_1  and  C_2
REMARK    2  A    between atoms: C_2  and  C_3
REMARK    3  A    between atoms: C_6  and  N_9
REMARK    4  A    between atoms: N_9  and  C_10
REMARK    5  A    between atoms: C_15  and  C_16
REMARK    6  A    between atoms: C_19  and  O_22
REMARK    7  A    between atoms: O_22  and  C_23
REMARK    8  A    between atoms: C_23  and  C_24
REMARK                            x       y       z     vdW  Elec       q    Type
REMARK                         _______ _______ _______ _____ _____    ______ ____
ROOT
ATOM      1  C   UNL     1       4.265  -0.969  -4.806  0.00  0.00    +0.175 C 
ATOM      2  N   UNL     1       5.090  -1.022  -3.773  0.00  0.00    -0.152 NA
ATOM      3  C   UNL     1       6.313  -1.496  -3.870  0.00  0.00    +0.276 C 
ATOM      4  O   UNL     1       7.065  -1.540  -2.909  0.00  0.00    -0.267 OA
ATOM      5  C   UNL     1       6.728  -1.974  -5.210  0.00  0.00    +0.079 C 
ATOM      6  C   UNL     1       7.908  -2.507  -5.615  0.00  0.00    +0.028 C 
ATOM      7  S   UNL     1       5.234  -1.658  -6.140  0.00  0.00    -0.050 S 
ENDROOT
BRANCH   6   8
ATOM      8  C   UNL     1       8.148  -2.760  -7.041  0.00  0.00    -0.024 A 
ATOM      9  C   UNL     1       9.278  -3.481  -7.447  0.00  0.00    +0.011 A 
ATOM     10  C   UNL     1       9.497  -3.716  -8.785  0.00  0.00    +0.046 A 
ATOM     11  C   UNL     1       8.600  -3.239  -9.734  0.00  0.00    +0.121 A 
ATOM     12  C   UNL     1       7.477  -2.522  -9.337  0.00  0.00    +0.046 A 
ATOM     13  C   UNL     1       7.244  -2.287  -8.001  0.00  0.00    +0.011 A 
BRANCH  11  14
ATOM     14  O   UNL     1       8.822  -3.472 -11.053  0.00  0.00    -0.487 OA
BRANCH  14  15
ATOM     15  C   UNL     1       7.861  -2.954 -11.974  0.00  0.00    +0.264 C 
BRANCH  15  16
ATOM     16  C   UNL     1       8.270  -3.309 -13.380  0.00  0.00    -0.010 A 
ATOM     17  C   UNL     1       9.085  -2.454 -14.099  0.00  0.00    +0.008 A 
ATOM     18  C   UNL     1       9.461  -2.779 -15.389  0.00  0.00    +0.020 A 
ATOM     19  C   UNL     1       9.022  -3.960 -15.960  0.00  0.00    +0.041 A 
ATOM     20  C   UNL     1       8.206  -4.814 -15.241  0.00  0.00    +0.020 A 
ATOM     21  C   UNL     1       7.835  -4.491 -13.949  0.00  0.00    +0.008 A 
ATOM     22 CL   UNL     1       9.493  -4.369 -17.580  0.00  0.00    -0.084 Cl
ENDBRANCH  15  16
ENDBRANCH  14  15
ENDBRANCH  11  14
ENDBRANCH   6   8
BRANCH   1  23
ATOM     23  N   UNL     1       2.976  -0.504  -4.843  0.00  0.00    -0.192 NA
BRANCH  23  27
ATOM     24  C   UNL     1       1.435   1.619  -1.608  0.00  0.00    -0.047 A 
ATOM     25  C   UNL     1       2.800   1.590  -1.827  0.00  0.00    +0.005 A 
ATOM     26  C   UNL     1       3.314   0.887  -2.899  0.00  0.00    +0.025 A 
ATOM     27  C   UNL     1       2.459   0.208  -3.757  0.00  0.00    +0.056 A 
ATOM     28  C   UNL     1       1.088   0.239  -3.534  0.00  0.00    +0.025 A 
ATOM     29  C   UNL     1       0.581   0.940  -2.458  0.00  0.00    +0.005 A 
BRANCH  24  31
ATOM     30  C   UNL     1       0.802   1.470   0.785  0.00  0.00    +0.009 C 
ATOM     31  C   UNL     1       0.877   2.387  -0.438  0.00  0.00    +0.032 C 
ENDBRANCH  24  31
ENDBRANCH  23  27
ENDBRANCH   1  23
TORSDOF 7
