REMARK  Name = ZINC39232085
REMARK  8 active torsions:
REMARK  status: ('A' for Active; 'I' for Inactive)
REMARK    1  A    between atoms: C_1  and  S_2
REMARK    2  A    between atoms: S_2  and  C_3
REMARK    3  A    between atoms: C_3  and  C_4
REMARK    4  A    between atoms: C_4  and  C_5
REMARK    5  A    between atoms: C_5  and  C_7
REMARK    6  A    between atoms: C_5  and  N_24
REMARK    7  A    between atoms: C_25  and  C_27
REMARK    8  A    between atoms: C_27  and  C_28
REMARK                            x       y       z     vdW  Elec       q    Type
REMARK                         _______ _______ _______ _____ _____    ______ ____
ROOT
ATOM      1  C   UNL     1       1.877  -3.823   3.058  0.00  0.00    +0.236 C 
ATOM      2  O   UNL     1       1.327  -4.388   3.979  0.00  0.00    -0.274 OA
ATOM      3  N   UNL     1       2.595  -4.533   2.165  0.00  0.00    -0.300 N 
ATOM      4  C   UNL     1       3.360  -3.855   1.109  0.00  0.00    +0.106 C 
ATOM      5  C   UNL     1       4.813  -4.336   1.168  0.00  0.00    +0.009 C 
ATOM      6  C   UNL     1       4.845  -5.862   1.087  0.00  0.00    -0.037 C 
ATOM      7  C   UNL     1       4.089  -6.460   2.273  0.00  0.00    +0.009 C 
ATOM      8  C   UNL     1       2.633  -6.001   2.232  0.00  0.00    +0.106 C 
ATOM      9  C   UNL     1       6.296  -6.347   1.102  0.00  0.00    +0.140 C 
ATOM     10  C   UNL     1       6.923  -5.811  -0.181  0.00  0.00    +0.042 C 
ATOM     11  N   UNL     1       7.942  -5.135   0.179  0.00  0.00    -0.243 NA
ATOM     12  C   UNL     1       8.041  -5.058   1.529  0.00  0.00    +0.216 C 
ATOM     13  N   UNL     1       7.096  -5.725   2.158  0.00  0.00    -0.264 NA
ATOM     14  C   UNL     1       6.267  -6.018  -1.523  0.00  0.00    +0.034 C 
ATOM     15  C   UNL     1       4.789  -5.623  -1.337  0.00  0.00    -0.076 C 
ATOM     16  N   UNL     1       4.222  -6.303  -0.170  0.00  0.00    +0.385 N 
ATOM     17  H   UNL     1       4.358  -7.298  -0.272  0.00  0.00    -0.085 HD
ATOM     18  H   UNL     1       3.232  -6.112  -0.129  0.00  0.00    -0.085 HD
ENDROOT
BRANCH   1  19
ATOM     19  C   UNL     1       1.759  -2.328   2.911  0.00  0.00    +0.160 C 
BRANCH  19  20
ATOM     20  N   UNL     1       1.432  -1.734   4.209  0.00  0.00    -0.304 N 
ATOM     21  C   UNL     1       1.758  -0.452   4.465  0.00  0.00    +0.218 C 
ATOM     22  O   UNL     1       2.321   0.211   3.620  0.00  0.00    -0.275 OA
ATOM     23  H   UNL     1       0.981  -2.264   4.885  0.00  0.00    +0.149 HD
BRANCH  21  24
ATOM     24  C   UNL     1       1.421   0.159   5.801  0.00  0.00    +0.130 C 
BRANCH  24  25
ATOM     25  C   UNL     1       1.889   1.592   5.830  0.00  0.00    -0.038 A 
ATOM     26  C   UNL     1       3.165   1.893   6.267  0.00  0.00    +0.007 A 
ATOM     27  C   UNL     1       3.595   3.206   6.294  0.00  0.00    +0.038 A 
ATOM     28  C   UNL     1       2.747   4.220   5.882  0.00  0.00    +0.123 A 
ATOM     29  C   UNL     1       1.468   3.917   5.445  0.00  0.00    +0.038 A 
ATOM     30  C   UNL     1       1.043   2.603   5.414  0.00  0.00    +0.007 A 
ATOM     31  F   UNL     1       3.166   5.505   5.909  0.00  0.00    -0.205 F 
ENDBRANCH  24  25
ENDBRANCH  21  24
ENDBRANCH  19  20
BRANCH  19  32
ATOM     32  C   UNL     1       0.651  -2.001   1.907  0.00  0.00    +0.042 C 
BRANCH  32  33
ATOM     33  C   UNL     1       0.632  -0.494   1.643  0.00  0.00    +0.071 C 
BRANCH  33  35
ATOM     34  C   UNL     1      -0.572   1.694   0.251  0.00  0.00    +0.084 C 
ATOM     35  S   UNL     1      -0.681  -0.105   0.453  0.00  0.00    -0.164 S 
ENDBRANCH  33  35
ENDBRANCH  32  33
ENDBRANCH  19  32
ENDBRANCH   1  19
TORSDOF 7
