REMARK  Name = ZINC24069172
REMARK  10 active torsions:
REMARK  status: ('A' for Active; 'I' for Inactive)
REMARK    1  A    between atoms: C_1  and  C_2
REMARK    2  A    between atoms: C_2  and  C_3
REMARK    3  A    between atoms: C_8  and  N_9
REMARK    4  A    between atoms: C_10  and  C_12
REMARK    5  A    between atoms: C_12  and  N_13
REMARK    6  A    between atoms: C_19  and  C_21
REMARK    7  A    between atoms: C_22  and  C_23
REMARK    8  A    between atoms: C_26  and  C_29
REMARK    9  A    between atoms: C_29  and  O_31
REMARK   10  A    between atoms: O_31  and  C_32
REMARK                            x       y       z     vdW  Elec       q    Type
REMARK                         _______ _______ _______ _____ _____    ______ ____
ROOT
ATOM      1  N   UNL     1       3.412   3.208   0.993  0.00  0.00    +0.387 N 
ATOM      2  C   UNL     1       3.281   1.763   1.226  0.00  0.00    -0.059 C 
ATOM      3  C   UNL     1       2.460   1.139   0.093  0.00  0.00    +0.089 C 
ATOM      4  N   UNL     1       1.188   1.868  -0.020  0.00  0.00    -0.302 N 
ATOM      5  C   UNL     1       1.234   3.335  -0.125  0.00  0.00    +0.089 C 
ATOM      6  C   UNL     1       2.103   3.873   1.023  0.00  0.00    -0.059 C 
ATOM      7  C   UNL     1       0.012   1.211  -0.032  0.00  0.00    +0.239 C 
ATOM      8  O   UNL     1      -0.005  -0.006  -0.041  0.00  0.00    -0.271 OA
ATOM      9  H   UNL     1       3.836   3.347  -0.013  0.00  0.00    -0.081 HD
ENDROOT
BRANCH   7  10
ATOM     10  C   UNL     1      -1.248   1.961  -0.041  0.00  0.00    +0.068 C 
ATOM     11  C   UNL     1      -2.422   1.308   0.060  0.00  0.00    +0.013 C 
BRANCH  11  12
ATOM     12  C   UNL     1      -3.687   2.062   0.051  0.00  0.00    -0.025 A 
ATOM     13  C   UNL     1      -3.670   3.456  -0.056  0.00  0.00    +0.009 A 
ATOM     14  C   UNL     1      -4.853   4.160  -0.069  0.00  0.00    +0.015 A 
ATOM     15  C   UNL     1      -6.070   3.482   0.035  0.00  0.00    +0.059 A 
ATOM     16  C   UNL     1      -6.088   2.089   0.148  0.00  0.00    +0.015 A 
ATOM     17  C   UNL     1      -4.906   1.384   0.156  0.00  0.00    +0.009 A 
BRANCH  15  18
ATOM     18  C   UNL     1      -7.339   4.238   0.027  0.00  0.00    +0.339 C 
ATOM     19  O   UNL     1      -8.398   3.649   0.118  0.00  0.00    -0.245 OA
BRANCH  18  20
ATOM     20  O   UNL     1      -7.323   5.581  -0.082  0.00  0.00    -0.464 OA
ATOM     21  C   UNL     1      -8.607   6.258  -0.083  0.00  0.00    +0.280 C 
ENDBRANCH  18  20
ENDBRANCH  15  18
ENDBRANCH  11  12
ENDBRANCH   7  10
BRANCH   1  22
ATOM     22  C   UNL     1       4.334   3.816   1.961  0.00  0.00    +0.019 C 
BRANCH  22  24
ATOM     23  N   UNL     1       4.465   4.129   4.412  0.00  0.00    -0.287 N 
ATOM     24  C   UNL     1       3.771   3.669   3.352  0.00  0.00    +0.201 C 
ATOM     25  O   UNL     1       2.694   3.136   3.516  0.00  0.00    -0.278 OA
ATOM     26  H   UNL     1       5.403   4.682   4.257  0.00  0.00    +0.155 HD
BRANCH  23  32
ATOM     27  C   UNL     1       4.883   3.819   6.770  0.00  0.00    -0.026 A 
ATOM     28  C   UNL     1       4.413   3.595   8.049  0.00  0.00    +0.005 A 
ATOM     29  C   UNL     1       3.056   3.455   8.274  0.00  0.00    +0.000 A 
ATOM     30  C   UNL     1       2.165   3.538   7.219  0.00  0.00    +0.002 A 
ATOM     31  C   UNL     1       2.629   3.766   5.939  0.00  0.00    +0.023 A 
ATOM     32  C   UNL     1       3.992   3.902   5.709  0.00  0.00    +0.036 A 
BRANCH  27  34
ATOM     33  C   UNL     1       6.728   5.459   6.527  0.00  0.00    +0.009 C 
ATOM     34  C   UNL     1       6.363   3.973   6.526  0.00  0.00    +0.033 C 
ENDBRANCH  27  34
ENDBRANCH  23  32
ENDBRANCH  22  24
ENDBRANCH   1  22
TORSDOF 8
