REMARK  Name = ZINC02188865
REMARK  7 active torsions:
REMARK  status: ('A' for Active; 'I' for Inactive)
REMARK    1  A    between atoms: C_1  and  C_2
REMARK    2  A    between atoms: C_2  and  C_36
REMARK    3  A    between atoms: C_6  and  C_26
REMARK    4  A    between atoms: C_8  and  C_24
REMARK    5  A    between atoms: C_9  and  N_23
REMARK    6  A    between atoms: N_10  and  C_11
REMARK    7  A    between atoms: C_12  and  C_21
REMARK                            x       y       z     vdW  Elec       q    Type
REMARK                         _______ _______ _______ _____ _____    ______ ____
ROOT
ATOM      1  C   UNL     1       0.773  -0.539   1.308  0.00  0.00    +0.011 C 
ATOM      2  C   UNL     1       0.039  -0.048   0.059  0.00  0.00    -0.023 C 
ATOM      3  C   UNL     1      -0.005   1.482   0.057  0.00  0.00    +0.058 C 
ATOM      4  C   UNL     1       1.401   2.028   0.022  0.00  0.00    +0.025 C 
ATOM      5  C   UNL     1       2.394   1.353  -0.595  0.00  0.00    +0.025 C 
ATOM      6  C   UNL     1       3.794   1.911  -0.647  0.00  0.00    +0.097 C 
ATOM      7  C   UNL     1       3.993   2.974   0.392  0.00  0.00    +0.077 C 
ATOM      8  C   UNL     1       2.934   3.586   0.982  0.00  0.00    +0.107 C 
ATOM      9  N   UNL     1       1.649   3.229   0.635  0.00  0.00    -0.253 N 
ATOM     10  C   UNL     1       2.153   0.113  -1.212  0.00  0.00    +0.162 C 
ATOM     11  O   UNL     1       3.066  -0.463  -1.770  0.00  0.00    -0.292 OA
ATOM     12  C   UNL     1       0.786  -0.515  -1.194  0.00  0.00    +0.086 C 
ATOM     13  C   UNL     1      -1.387  -0.603   0.050  0.00  0.00    +0.011 C 
ENDROOT
BRANCH   9  14
ATOM     14  C   UNL     1       0.597   4.093   0.909  0.00  0.00    +0.095 A 
ATOM     15  C   UNL     1      -0.134   4.216   2.079  0.00  0.00    +0.084 A 
ATOM     16  C   UNL     1      -1.193   5.214   2.116  0.00  0.00    -0.018 A 
ATOM     17  C   UNL     1      -1.358   5.912   0.970  0.00  0.00    -0.004 A 
ATOM     18  S   UNL     1      -0.125   5.274  -0.133  0.00  0.00    -0.076 S 
ATOM     19  C   UNL     1      -2.369   6.978   0.685  0.00  0.00    +0.043 C 
ATOM     20  C   UNL     1      -2.365   7.998   1.831  0.00  0.00    +0.005 C 
ATOM     21  C   UNL     1      -3.364   7.538   2.889  0.00  0.00    +0.001 C 
ATOM     22  C   UNL     1      -3.409   6.012   2.942  0.00  0.00    +0.005 C 
ATOM     23  C   UNL     1      -2.050   5.454   3.352  0.00  0.00    +0.037 C 
BRANCH  15  24
ATOM     24  C   UNL     1       0.146   3.392   3.216  0.00  0.00    +0.102 C 
ATOM     25  N   UNL     1       0.367   2.738   4.118  0.00  0.00    -0.191 NA
ENDBRANCH  15  24
ENDBRANCH   9  14
BRANCH   6  26
ATOM     26  C   UNL     1       4.040   2.501  -2.012  0.00  0.00    -0.035 A 
ATOM     27  C   UNL     1       3.242   3.532  -2.473  0.00  0.00    +0.007 A 
ATOM     28  C   UNL     1       3.470   4.077  -3.722  0.00  0.00    +0.038 A 
ATOM     29  C   UNL     1       4.492   3.584  -4.516  0.00  0.00    +0.123 A 
ATOM     30  C   UNL     1       5.287   2.549  -4.056  0.00  0.00    +0.038 A 
ATOM     31  C   UNL     1       5.061   2.008  -2.804  0.00  0.00    +0.007 A 
ATOM     32  F   UNL     1       4.712   4.114  -5.739  0.00  0.00    -0.205 F 
ENDBRANCH   6  26
BRANCH   8  33
ATOM     33  N   UNL     1       3.143   4.562   1.926  0.00  0.00    -0.345 N 
ATOM     34  H   UNL     1       4.043   4.755   2.232  0.00  0.00    +0.144 HD
ATOM     35  H   UNL     1       2.392   5.058   2.286  0.00  0.00    +0.144 HD
ENDBRANCH   8  33
BRANCH   7  36
ATOM     36  C   UNL     1       5.322   3.351   0.768  0.00  0.00    +0.099 C 
ATOM     37  N   UNL     1       6.377   3.650   1.067  0.00  0.00    -0.191 NA
ENDBRANCH   7  36
TORSDOF 5
