REMARK  Name = ZINC63818109
REMARK  11 active torsions:
REMARK  status: ('A' for Active; 'I' for Inactive)
REMARK    1  A    between atoms: CD1_1  and  CG1_2
REMARK    2  A    between atoms: CG1_2  and  CB_3
REMARK    3  A    between atoms: CB_3  and  CG2_5
REMARK    4  A    between atoms: CB_3  and  CA_6
REMARK    5  A    between atoms: CA_6  and  C_8
REMARK    6  A    between atoms: CA_6  and  N_10
REMARK    7  A    between atoms: C_8  and  O_9
REMARK    8  A    between atoms: C_11  and  C_13
REMARK    9  A    between atoms: N_21  and  C_24
REMARK   10  A    between atoms: C_24  and  C_25
REMARK   11  A    between atoms: C_25  and  C_26
REMARK                            x       y       z     vdW  Elec       q    Type
REMARK                         _______ _______ _______ _____ _____    ______ ____
ROOT
ATOM      1  C   UNK A   0       2.578  -4.265   3.707  0.00  0.00    +0.037 A 
ATOM      2  C   UNK A   0       2.731  -3.432   4.815  0.00  0.00    +0.014 A 
ATOM      3  C   UNK A   0       3.399  -3.882   5.941  0.00  0.00    +0.014 A 
ATOM      4  C   UNK A   0       3.919  -5.167   5.968  0.00  0.00    +0.049 A 
ATOM      5  C   UNK A   0       3.767  -6.014   4.851  0.00  0.00    +0.050 A 
ATOM      6  C   UNK A   0       3.094  -5.564   3.729  0.00  0.00    +0.027 A 
ATOM      7  C   UNK A   0       4.427  -7.286   5.215  0.00  0.00    +0.254 C 
ATOM      8  O   UNK A   0       4.508  -8.270   4.508  0.00  0.00    -0.270 OA
ATOM      9  N   UNK A   0       4.924  -7.171   6.460  0.00  0.00    -0.234 N 
ATOM     10  C   UNK A   0       4.668  -5.955   6.973  0.00  0.00    +0.254 C 
ATOM     11  O   UNK A   0       4.995  -5.567   8.077  0.00  0.00    -0.270 OA
ENDROOT
BRANCH   1  13
ATOM     12  N   ILE A   1       1.364  -2.523   2.486  0.00  0.00    -0.306 N 
ATOM     13  C   UNK A   0       1.862  -3.775   2.508  0.00  0.00    +0.244 C 
ATOM     14  O   UNK A   0       1.723  -4.501   1.544  0.00  0.00    -0.270 OA
ATOM     15  H   ILE A   1       1.475  -1.943   3.255  0.00  0.00    +0.149 HD
BRANCH  12  16
ATOM     16  CA  ILE A   1       0.655  -2.037   1.299  0.00  0.00    +0.101 C 
BRANCH  16  17
ATOM     17  CB  ILE A   1       0.742  -0.511   1.242  0.00  0.00    +0.008 C 
ATOM     18  CG2 ILE A   1       2.210  -0.086   1.169  0.00  0.00    +0.009 C 
BRANCH  17  20
ATOM     19  CD1 ILE A   1      -0.019   1.526   0.010  0.00  0.00    +0.004 C 
ATOM     20  CG1 ILE A   1       0.002  -0.004   0.002  0.00  0.00    +0.002 C 
ENDBRANCH  17  20
ENDBRANCH  16  17
BRANCH  16  21
ATOM     21  C   ILE A   1      -0.812  -2.462   1.372  0.00  0.00    +0.178 C 
BRANCH  21  22
ATOM     22  O   ILE A   1      -1.442  -1.814   2.479  0.00  0.00    -0.393 OA
ATOM     23  H   ILE A   1      -2.376  -2.038   2.586  0.00  0.00    +0.209 HD
ENDBRANCH  21  22
ENDBRANCH  16  21
ENDBRANCH  12  16
ENDBRANCH   1  13
BRANCH   9  24
ATOM     24  C   UNK A   0       5.650  -8.231   7.163  0.00  0.00    +0.121 C 
BRANCH  24  25
ATOM     25  C   UNK A   0       7.146  -8.109   6.867  0.00  0.00    +0.052 C 
BRANCH  25  26
ATOM     26  C   UNK A   0       7.892  -9.200   7.591  0.00  0.00    -0.040 C 
ATOM     27  C   UNK A   0       8.265 -10.400   7.091  0.00  0.00    -0.001 A 
ATOM     28  C   UNK A   0       8.092 -11.026   5.774  0.00  0.00    +0.010 A 
ATOM     29  C   UNK A   0       8.585 -12.268   5.569  0.00  0.00    +0.001 A 
ATOM     30  C   UNK A   0       9.255 -12.972   6.579  0.00  0.00    +0.002 A 
ATOM     31  C   UNK A   0       9.453 -12.463   7.814  0.00  0.00    +0.026 A 
ATOM     32  C   UNK A   0       8.976 -11.164   8.141  0.00  0.00    +0.043 A 
ATOM     33  N   UNK A   0       9.041 -10.463   9.246  0.00  0.00    -0.380 N 
ATOM     34  C   UNK A   0       8.383  -9.171   9.021  0.00  0.00    +0.144 C 
ATOM     35  H   UNK A   0       9.458 -10.749  10.074  0.00  0.00    +0.160 HD
ENDBRANCH  25  26
ENDBRANCH  24  25
ENDBRANCH   9  24
TORSDOF 9
