REMARK  Name = ZINC06173099
REMARK  7 active torsions:
REMARK  status: ('A' for Active; 'I' for Inactive)
REMARK    1  A    between atoms: C_4  and  C_7
REMARK    2  A    between atoms: C_7  and  N_8
REMARK    3  A    between atoms: C_13  and  C_15
REMARK    4  A    between atoms: N_20  and  S_22
REMARK    5  A    between atoms: S_22  and  C_25
REMARK    6  A    between atoms: C_28  and  O_31
REMARK    7  A    between atoms: O_31  and  C_32
REMARK                            x       y       z     vdW  Elec       q    Type
REMARK                         _______ _______ _______ _____ _____    ______ ____
ROOT
ATOM      1  C   UNL     1      -3.561   4.487   2.722  0.00  0.00    +0.071 C 
ATOM      2  C   UNL     1      -4.179   3.509   3.724  0.00  0.00    +0.014 C 
ATOM      3  C   UNL     1      -5.680   3.381   3.455  0.00  0.00    +0.018 C 
ATOM      4  C   UNL     1      -6.346   4.749   3.640  0.00  0.00    +0.109 C 
ATOM      5  N   UNL     1      -5.661   5.728   2.785  0.00  0.00    -0.176 NA
ATOM      6  C   UNL     1      -4.203   5.867   2.898  0.00  0.00    +0.120 C 
ENDROOT
BRANCH   1  12
ATOM      7  N   UNL     1       1.157   4.072   1.394  0.00  0.00    -0.224 N 
ATOM      8  C   UNL     1       0.064   4.331   2.174  0.00  0.00    +0.164 A 
ATOM      9  C   UNL     1       0.565   4.766   3.414  0.00  0.00    +0.195 A 
ATOM     10  C   UNL     1      -0.360   5.104   4.419  0.00  0.00    +0.303 A 
ATOM     11  N   UNL     1      -1.654   5.003   4.147  0.00  0.00    -0.194 NA
ATOM     12  C   UNL     1      -2.077   4.587   2.967  0.00  0.00    +0.117 A 
ATOM     13  N   UNL     1      -1.252   4.257   1.997  0.00  0.00    -0.326 N 
ATOM     14  O   UNL     1       0.061   5.534   5.632  0.00  0.00    -0.263 OA
ATOM     15  N   UNL     1       1.908   4.762   3.340  0.00  0.00    -0.122 NA
ATOM     16  N   UNL     1       2.285   4.363   2.175  0.00  0.00    -0.063 NA
ATOM     17  H   UNL     1      -1.617   3.947   1.120  0.00  0.00    +0.169 HD
BRANCH   7  18
ATOM     18  C   UNL     1       1.151   3.590   0.011  0.00  0.00    +0.182 C 
BRANCH  18  22
ATOM     19  C   UNL     1       1.206  -0.681  -0.012  0.00  0.00    +0.000 A 
ATOM     20  C   UNL     1       0.000  -0.006   0.003  0.00  0.00    +0.000 A 
ATOM     21  C   UNL     1      -0.018   1.377   0.011  0.00  0.00    +0.005 A 
ATOM     22  C   UNL     1       1.170   2.083   0.003  0.00  0.00    -0.026 A 
ATOM     23  C   UNL     1       2.376   1.408  -0.013  0.00  0.00    +0.005 A 
ATOM     24  C   UNL     1       2.394   0.026  -0.020  0.00  0.00    +0.000 A 
ENDBRANCH  18  22
ENDBRANCH   7  18
ENDBRANCH   1  12
BRANCH   5  25
ATOM     25  S   UNL     1      -6.516   6.657   1.714  0.00  0.00    +0.061 S 
ATOM     26  O   UNL     1      -7.848   6.720   2.204  0.00  0.00    -0.153 OA
ATOM     27  O   UNL     1      -5.737   7.821   1.474  0.00  0.00    -0.153 OA
BRANCH  25  28
ATOM     28  C   UNL     1      -6.581   5.771   0.192  0.00  0.00    +0.106 A 
ATOM     29  C   UNL     1      -5.594   5.958  -0.758  0.00  0.00    +0.032 A 
ATOM     30  C   UNL     1      -5.639   5.261  -1.950  0.00  0.00    +0.048 A 
ATOM     31  C   UNL     1      -6.683   4.381  -2.198  0.00  0.00    +0.130 A 
ATOM     32  C   UNL     1      -7.675   4.200  -1.245  0.00  0.00    +0.048 A 
ATOM     33  C   UNL     1      -7.622   4.895  -0.053  0.00  0.00    +0.032 A 
BRANCH  31  34
ATOM     34  O   UNL     1      -6.733   3.699  -3.372  0.00  0.00    -0.406 OA
BRANCH  34  35
ATOM     35  C   UNL     1      -5.678   3.936  -4.306  0.00  0.00    +0.575 C 
ATOM     36  F   UNL     1      -4.454   3.591  -3.723  0.00  0.00    -0.133 F 
ATOM     37  F   UNL     1      -5.885   3.158  -5.450  0.00  0.00    -0.133 F 
ATOM     38  F   UNL     1      -5.662   5.289  -4.658  0.00  0.00    -0.133 F 
ENDBRANCH  34  35
ENDBRANCH  31  34
ENDBRANCH  25  28
ENDBRANCH   5  25
TORSDOF 7
