REMARK  Name = ZINC32929439
REMARK  6 active torsions:
REMARK  status: ('A' for Active; 'I' for Inactive)
REMARK    1  A    between atoms: C_1  and  C_2
REMARK    2  A    between atoms: C_3  and  C_20
REMARK    3  A    between atoms: C_6  and  N_19
REMARK    4  A    between atoms: C_7  and  C_11
REMARK    5  A    between atoms: C_11  and  C_13
REMARK    6  A    between atoms: C_20  and  C_22
REMARK                            x       y       z     vdW  Elec       q    Type
REMARK                         _______ _______ _______ _____ _____    ______ ____
ROOT
ATOM      1  C   UNL     1      -8.109   6.910   0.172  0.00  0.00    +0.066 C 
ATOM      2  C   UNL     1      -7.283   5.651   0.112  0.00  0.00    +0.050 A 
ATOM      3  C   UNL     1      -7.900   4.422  -0.173  0.00  0.00    +0.039 A 
ATOM      4  C   UNL     1      -7.138   3.257  -0.229  0.00  0.00    +0.025 A 
ATOM      5  C   UNL     1      -5.747   3.340   0.004  0.00  0.00    +0.030 A 
ATOM      6  C   UNL     1      -4.762   2.268  -0.003  0.00  0.00    +0.052 A 
ATOM      7  C   UNL     1      -3.446   2.588   0.254  0.00  0.00    +0.084 A 
ATOM      8  S   UNL     1      -3.492   4.349   0.520  0.00  0.00    -0.063 S 
ATOM      9  C   UNL     1      -5.230   4.629   0.281  0.00  0.00    +0.111 A 
ATOM     10  N   UNL     1      -5.987   5.707   0.325  0.00  0.00    -0.244 NA
ENDROOT
BRANCH   6  11
ATOM     11  N   UNL     1      -5.138   0.958  -0.261  0.00  0.00    -0.356 N 
ATOM     12  H   UNL     1      -4.382   0.159  -0.262  0.00  0.00    +0.142 HD
ATOM     13  H   UNL     1      -6.192   0.718  -0.463  0.00  0.00    +0.142 HD
ENDBRANCH   6  11
BRANCH   3  14
ATOM     14  C   UNL     1      -9.348   4.365  -0.411  0.00  0.00    +0.162 C 
ATOM     15  O   UNL     1      -9.993   5.390  -0.472  0.00  0.00    -0.292 OA
ATOM     16  C   UNL     1     -10.032   3.033  -0.579  0.00  0.00    +0.091 C 
ENDBRANCH   3  14
BRANCH   7  17
ATOM     17  C   UNL     1      -2.324   1.721   0.300  0.00  0.00    +0.218 C 
ATOM     18  O   UNL     1      -2.467   0.527   0.097  0.00  0.00    -0.284 OA
BRANCH  17  19
ATOM     19  C   UNL     1      -0.990   2.262   0.593  0.00  0.00    +0.088 A 
ATOM     20  C   UNL     1       0.182   1.541   0.670  0.00  0.00    +0.031 A 
ATOM     21  C   UNL     1       1.205   2.449   0.963  0.00  0.00    +0.020 A 
ATOM     22  C   UNL     1       0.651   3.681   1.064  0.00  0.00    +0.083 A 
ATOM     23  N   UNL     1      -0.684   3.580   0.844  0.00  0.00    -0.358 N 
ATOM     24  H   UNL     1      -1.480   4.339   0.840  0.00  0.00    +0.165 HD
ENDBRANCH  17  19
ENDBRANCH   7  17
TORSDOF 4
