REMARK  Name = ZINC23223712
REMARK  9 active torsions:
REMARK  status: ('A' for Active; 'I' for Inactive)
REMARK    1  A    between atoms: C_1  and  C_2
REMARK    2  A    between atoms: C_2  and  C_4
REMARK    3  A    between atoms: C_2  and  S_11
REMARK    4  A    between atoms: N_9  and  C_10
REMARK    5  A    between atoms: S_11  and  C_12
REMARK    6  A    between atoms: N_22  and  C_23
REMARK    7  A    between atoms: C_23  and  C_24
REMARK    8  A    between atoms: C_24  and  C_25
REMARK    9  A    between atoms: C_24  and  C_26
REMARK                            x       y       z     vdW  Elec       q    Type
REMARK                         _______ _______ _______ _____ _____    ______ ____
ROOT
ATOM      1  C   UNL     1      -0.136  -0.087   2.816  0.00  0.00    +0.173 A 
ATOM      2  N   UNL     1      -1.238   0.570   2.549  0.00  0.00    -0.223 NA
ATOM      3  C   UNL     1      -2.063   0.997   3.533  0.00  0.00    +0.079 A 
ATOM      4  C   UNL     1      -3.239   1.697   3.249  0.00  0.00    +0.029 A 
ATOM      5  C   UNL     1      -4.047   2.110   4.271  0.00  0.00    +0.017 A 
ATOM      6  C   UNL     1      -3.717   1.846   5.595  0.00  0.00    +0.019 A 
ATOM      7  C   UNL     1      -2.564   1.157   5.906  0.00  0.00    +0.030 A 
ATOM      8  C   UNL     1      -1.726   0.726   4.879  0.00  0.00    +0.066 A 
ATOM      9  C   UNL     1      -0.485  -0.012   5.149  0.00  0.00    +0.262 A 
ATOM     10  O   UNL     1      -0.142  -0.275   6.287  0.00  0.00    -0.267 OA
ATOM     11  N   UNL     1       0.260  -0.394   4.086  0.00  0.00    -0.287 N 
ATOM     12 BR   UNL     1      -4.860   2.435   6.981  0.00  0.00    -0.050 Br
ENDROOT
BRANCH   1  13
ATOM     13  S   UNL     1       0.879  -0.605   1.472  0.00  0.00    -0.075 S 
BRANCH  13  15
ATOM     14  C   UNL     1      -0.019   1.526   0.010  0.00  0.00    +0.029 C 
ATOM     15  C   UNL     1       0.002  -0.004   0.002  0.00  0.00    +0.137 C 
BRANCH  15  16
ATOM     16  C   UNL     1       0.707  -0.490  -1.238  0.00  0.00    +0.233 C 
ATOM     17  O   UNL     1       1.864  -0.849  -1.176  0.00  0.00    -0.274 OA
ATOM     18  N   UNL     1       0.053  -0.526  -2.415  0.00  0.00    -0.239 N 
ATOM     19  C   UNL     1       0.683  -0.961  -3.524  0.00  0.00    +0.306 C 
ATOM     20  O   UNL     1       1.843  -1.320  -3.462  0.00  0.00    -0.252 OA
ATOM     21  N   UNL     1       0.029  -0.997  -4.702  0.00  0.00    -0.302 N 
ATOM     22  C   UNL     1       0.715  -1.469  -5.907  0.00  0.00    +0.129 C 
ATOM     23  H   UNL     1      -0.873  -0.239  -2.465  0.00  0.00    +0.159 HD
ATOM     24  H   UNL     1      -0.896  -0.710  -4.751  0.00  0.00    +0.150 HD
ENDBRANCH  15  16
ENDBRANCH  13  15
ENDBRANCH   1  13
BRANCH  11  25
ATOM     25  C   UNL     1       1.504  -1.137   4.300  0.00  0.00    +0.130 C 
BRANCH  25  26
ATOM     26  C   UNL     1       2.667  -0.153   4.447  0.00  0.00    +0.003 C 
ATOM     27  C   UNL     1       3.944  -0.921   4.794  0.00  0.00    +0.009 C 
ATOM     28  C   UNL     1       2.867   0.600   3.131  0.00  0.00    +0.009 C 
ENDBRANCH  25  26
ENDBRANCH  11  25
TORSDOF 5
