REMARK  Name = ZINC37810894
REMARK  5 active torsions:
REMARK  status: ('A' for Active; 'I' for Inactive)
REMARK    1  A    between atoms: C_1  and  S_2
REMARK    2  A    between atoms: S_2  and  N_5
REMARK    3  A    between atoms: N_5  and  C_6
REMARK    4  A    between atoms: C_6  and  C_7
REMARK    5  A    between atoms: C_14  and  C_16
REMARK                            x       y       z     vdW  Elec       q    Type
REMARK                         _______ _______ _______ _____ _____    ______ ____
ROOT
ATOM      1  C   UNL     1       3.005  -0.803  -2.504  0.00  0.00    +0.091 C 
ATOM      2  C   UNL     1       4.455  -0.354  -2.291  0.00  0.00    +0.024 C 
ATOM      3  C   UNL     1       5.381  -1.206  -3.162  0.00  0.00    +0.003 C 
ATOM      4  C   UNL     1       5.265  -2.675  -2.749  0.00  0.00    +0.019 C 
ATOM      5  C   UNL     1       3.825  -3.150  -2.968  0.00  0.00    +0.108 C 
ATOM      6  N   UNL     1       2.913  -2.248  -2.251  0.00  0.00    -0.297 N 
ATOM      7  C   UNL     1       2.011  -2.735  -1.377  0.00  0.00    +0.219 C 
ATOM      8  O   UNL     1       1.208  -1.991  -0.856  0.00  0.00    -0.275 OA
ENDROOT
BRANCH   7   9
ATOM      9  C   UNL     1       2.000  -4.206  -1.046  0.00  0.00    +0.072 C 
ATOM     10  C   UNL     1       1.489  -4.998  -2.252  0.00  0.00    -0.007 C 
ATOM     11  C   UNL     1       1.405  -6.481  -1.883  0.00  0.00    -0.082 C 
ATOM     12  N   UNL     1       0.484  -6.657  -0.754  0.00  0.00    +0.379 N 
ATOM     13  C   UNL     1       1.006  -5.958   0.427  0.00  0.00    -0.082 C 
ATOM     14  C   UNL     1       1.073  -4.456   0.147  0.00  0.00    -0.007 C 
ATOM     15  H   UNL     1      -0.419  -6.278  -0.996  0.00  0.00    -0.086 HD
ATOM     16  H   UNL     1       0.391  -7.640  -0.548  0.00  0.00    -0.086 HD
ENDBRANCH   7   9
BRANCH   1  17
ATOM     17  C   UNL     1       2.088  -0.053  -1.536  0.00  0.00    +0.128 C 
BRANCH  17  18
ATOM     18  N   UNL     1       0.692  -0.251  -1.933  0.00  0.00    -0.193 NA
ATOM     19  H   UNL     1       0.483  -0.600  -2.813  0.00  0.00    +0.148 HD
BRANCH  18  21
ATOM     20  C   UNL     1      -0.419   1.919  -0.654  0.00  0.00    +0.214 C 
ATOM     21  S   UNL     1      -0.529   0.122  -0.879  0.00  0.00    +0.027 S 
ATOM     22  O   UNL     1      -0.183  -0.544   0.328  0.00  0.00    -0.158 OA
ATOM     23  O   UNL     1      -1.723  -0.212  -1.574  0.00  0.00    -0.158 OA
ENDBRANCH  18  21
ENDBRANCH  17  18
ENDBRANCH   1  17
TORSDOF 4
