REMARK  Name = ZINC20714892
REMARK  6 active torsions:
REMARK  status: ('A' for Active; 'I' for Inactive)
REMARK    1  A    between atoms: C_1  and  C_2
REMARK    2  A    between atoms: C_2  and  C_3
REMARK    3  A    between atoms: C_2  and  C_4
REMARK    4  A    between atoms: C_4  and  C_6
REMARK    5  A    between atoms: C_4  and  N_15
REMARK    6  A    between atoms: C_16  and  C_18
REMARK                            x       y       z     vdW  Elec       q    Type
REMARK                         _______ _______ _______ _____ _____    ______ ____
ROOT
ATOM      1  C   UNL     1       3.833  -0.910  -0.041  0.00  0.00    +0.144 C 
ENDROOT
BRANCH   1   2
ATOM      2  C   UNL     1       3.670  -2.280  -0.648  0.00  0.00    +0.158 A 
ATOM      3  N   UNL     1       2.721  -3.138  -0.376  0.00  0.00    -0.132 NA
ATOM      4  N   UNL     1       2.876  -4.210  -1.072  0.00  0.00    -0.129 NA
ATOM      5  C   UNL     1       3.955  -4.092  -1.829  0.00  0.00    +0.161 A 
ATOM      6  N   UNL     1       4.487  -2.852  -1.573  0.00  0.00    -0.285 N 
ATOM      7  C   UNL     1       5.618  -2.439  -2.214  0.00  0.00    +0.094 A 
ATOM      8  C   UNL     1       6.231  -3.243  -3.108  0.00  0.00    +0.018 A 
ATOM      9  C   UNL     1       5.710  -4.518  -3.391  0.00  0.00    +0.005 A 
ATOM     10  C   UNL     1       4.583  -4.942  -2.760  0.00  0.00    +0.048 A 
ENDBRANCH   1   2
BRANCH   1  11
ATOM     11  N   UNL     1       2.537  -0.226  -0.024  0.00  0.00    -0.301 N 
ATOM     12  C   UNL     1       2.486   1.121  -0.016  0.00  0.00    +0.248 C 
ATOM     13  O   UNL     1       3.515   1.768  -0.022  0.00  0.00    -0.270 OA
ATOM     14  H   UNL     1       1.606  -0.812  -0.019  0.00  0.00    +0.150 HD
BRANCH  12  15
ATOM     15  C   UNL     1       1.180   1.810   0.001  0.00  0.00    +0.074 A 
ATOM     16  C   UNL     1      -0.013   1.076   0.008  0.00  0.00    +0.019 A 
ATOM     17  C   UNL     1      -1.209   1.768   0.017  0.00  0.00    +0.041 A 
ATOM     18  C   UNL     1      -1.191   3.154   0.030  0.00  0.00    +0.131 A 
ATOM     19  N   UNL     1      -0.052   3.821   0.023  0.00  0.00    -0.223 NA
ATOM     20  C   UNL     1       1.114   3.206   0.009  0.00  0.00    +0.143 A 
ATOM     21 CL   UNL     1       2.579   4.137  -0.000  0.00  0.00    -0.061 Cl
ATOM     22 CL   UNL     1      -2.692   4.027   0.049  0.00  0.00    -0.062 Cl
ENDBRANCH  12  15
ENDBRANCH   1  11
BRANCH   1  24
ATOM     23  C   UNL     1       5.710  -1.759   1.373  0.00  0.00    +0.009 C 
ATOM     24  C   UNL     1       4.357  -1.045   1.390  0.00  0.00    +0.011 C 
ATOM     25  C   UNL     1       4.522   0.346   2.006  0.00  0.00    +0.009 C 
ENDBRANCH   1  24
TORSDOF 4
