REMARK  Name = ZINC66703375
REMARK  12 active torsions:
REMARK  status: ('A' for Active; 'I' for Inactive)
REMARK    1  A    between atoms: C_1  and  C_2
REMARK    2  A    between atoms: C_2  and  C_3
REMARK    3  A    between atoms: C_3  and  N_4
REMARK    4  A    between atoms: N_4  and  C_5
REMARK    5  A    between atoms: C_5  and  C_6
REMARK    6  A    between atoms: C_11  and  O_12
REMARK    7  A    between atoms: N_15  and  C_16
REMARK    8  A    between atoms: C_16  and  C_18
REMARK    9  A    between atoms: C_16  and  C_26
REMARK   10  A    between atoms: C_20  and  C_23
REMARK   11  A    between atoms: C_26  and  C_27
REMARK   12  A    between atoms: C_26  and  C_28
REMARK                            x       y       z     vdW  Elec       q    Type
REMARK                         _______ _______ _______ _____ _____    ______ ____
ROOT
ATOM      1  N   UNL     1      -1.413  -1.998   0.005  0.00  0.00    -0.281 N 
ATOM      2  C   UNL     1      -1.415  -2.666  -1.166  0.00  0.00    +0.303 C 
ATOM      3  O   UNL     1      -1.399  -3.882  -1.173  0.00  0.00    -0.253 OA
ATOM      4  N   UNL     1      -1.436  -1.986  -2.329  0.00  0.00    -0.287 N 
ATOM      5  H   UNL     1      -1.449  -1.016  -2.324  0.00  0.00    +0.151 HD
ENDROOT
BRANCH   1   6
ATOM      6  C   UNL     1      -1.433  -0.534   0.013  0.00  0.00    +0.109 C 
BRANCH   6   8
ATOM      7  C   UNL     1      -0.019   1.526   0.010  0.00  0.00    +0.005 C 
ATOM      8  C   UNL     1       0.002  -0.004   0.002  0.00  0.00    +0.016 C 
ENDBRANCH   6   8
ENDBRANCH   1   6
BRANCH   1   9
ATOM      9  C   UNL     1      -1.391  -2.738   1.269  0.00  0.00    +0.148 C 
BRANCH   9  10
ATOM     10  C   UNL     1      -2.804  -3.010   1.716  0.00  0.00    +0.011 A 
ATOM     11  C   UNL     1      -3.391  -2.213   2.681  0.00  0.00    +0.009 A 
ATOM     12  C   UNL     1      -4.687  -2.463   3.091  0.00  0.00    +0.001 A 
ATOM     13  C   UNL     1      -5.400  -3.511   2.539  0.00  0.00    +0.004 A 
ATOM     14  C   UNL     1      -4.818  -4.311   1.574  0.00  0.00    +0.046 A 
ATOM     15  C   UNL     1      -3.519  -4.059   1.157  0.00  0.00    +0.122 A 
BRANCH  15  16
ATOM     16  O   UNL     1      -2.947  -4.841   0.204  0.00  0.00    -0.506 OA
ATOM     17  H   UNL     1      -2.478  -5.610   0.556  0.00  0.00    +0.292 HD
ENDBRANCH  15  16
ENDBRANCH   9  10
ENDBRANCH   1   9
BRANCH   4  18
ATOM     18  C   UNL     1      -1.438  -2.712  -3.602  0.00  0.00    +0.166 C 
BRANCH  18  19
ATOM     19  C   UNL     1      -0.860  -1.834  -4.682  0.00  0.00    +0.248 A 
ATOM     20  N   UNL     1       0.010  -2.201  -5.582  0.00  0.00    -0.194 NA
ATOM     21  C   UNL     1       0.305  -1.171  -6.383  0.00  0.00    +0.175 A 
ATOM     22  N   UNL     1      -0.376  -0.130  -6.000  0.00  0.00    -0.061 NA
ATOM     23  O   UNL     1      -1.154  -0.543  -4.886  0.00  0.00    -0.336 OA
BRANCH  21  24
ATOM     24  C   UNL     1       1.270  -1.210  -7.540  0.00  0.00    +0.060 C 
ATOM     25  C   UNL     1       1.625   0.120  -8.208  0.00  0.00    +0.012 C 
ATOM     26  C   UNL     1       0.720  -0.882  -8.929  0.00  0.00    +0.012 C 
ENDBRANCH  21  24
ENDBRANCH  18  19
BRANCH  18  27
ATOM     27  C   UNL     1      -2.873  -3.093  -3.969  0.00  0.00    +0.012 C 
ATOM     28  C   UNL     1      -2.876  -3.851  -5.298  0.00  0.00    +0.009 C 
ATOM     29  C   UNL     1      -3.461  -3.984  -2.873  0.00  0.00    +0.009 C 
ENDBRANCH  18  27
ENDBRANCH   4  18
TORSDOF 9
