REMARK  Name = ZINC02486831
REMARK  7 active torsions:
REMARK  status: ('A' for Active; 'I' for Inactive)
REMARK    1  A    between atoms: C_1  and  C_2
REMARK    2  A    between atoms: C_2  and  O_3
REMARK    3  A    between atoms: O_3  and  C_4
REMARK    4  A    between atoms: C_6  and  C_15
REMARK    5  A    between atoms: C_9  and  O_10
REMARK    6  A    between atoms: O_10  and  C_11
REMARK    7  A    between atoms: C_11  and  C_12
REMARK                            x       y       z     vdW  Elec       q    Type
REMARK                         _______ _______ _______ _____ _____    ______ ____
ROOT
ATOM      1  C   UNL     1       1.531   0.037   6.144  0.00  0.00    +0.092 C 
ATOM      2  C   UNL     1       1.223   1.098   7.171  0.00  0.00    +0.045 C 
ATOM      3  C   UNL     1       2.153   2.016   7.492  0.00  0.00    +0.113 C 
ATOM      4  C   UNL     1       1.858   3.087   8.515  0.00  0.00    +0.075 C 
ATOM      5  C   UNL     1       0.870   2.550   9.553  0.00  0.00    +0.016 C 
ATOM      6  C   UNL     1      -0.407   2.113   8.828  0.00  0.00    +0.080 C 
ATOM      7  C   UNL     1      -0.048   1.097   7.777  0.00  0.00    +0.163 C 
ATOM      8  O   UNL     1      -0.867   0.264   7.447  0.00  0.00    -0.292 OA
ATOM      9  O   UNL     1       3.364   2.004   6.909  0.00  0.00    -0.464 OA
ATOM     10  C   UNL     1       3.850   0.865   6.386  0.00  0.00    +0.113 C 
ATOM     11  C   UNL     1       3.023  -0.123   5.997  0.00  0.00    +0.045 C 
ATOM     12  C   UNL     1       3.520  -1.322   5.451  0.00  0.00    +0.163 C 
ATOM     13  O   UNL     1       2.741  -2.183   5.093  0.00  0.00    -0.292 OA
ATOM     14  C   UNL     1       5.000  -1.554   5.303  0.00  0.00    +0.080 C 
ATOM     15  C   UNL     1       5.737  -0.751   6.381  0.00  0.00    +0.016 C 
ATOM     16  C   UNL     1       5.346   0.721   6.243  0.00  0.00    +0.075 C 
ENDROOT
BRANCH   1  19
ATOM     17  C   UNL     1      -0.561   0.005   2.998  0.00  0.00    +0.163 A 
ATOM     18  C   UNL     1      -0.010  -0.365   4.215  0.00  0.00    +0.054 A 
ATOM     19  C   UNL     1       0.939   0.439   4.818  0.00  0.00    -0.030 A 
ATOM     20  C   UNL     1       1.344   1.611   4.208  0.00  0.00    +0.023 A 
ATOM     21  C   UNL     1       0.803   1.984   2.991  0.00  0.00    +0.063 A 
ATOM     22  C   UNL     1      -0.148   1.182   2.381  0.00  0.00    +0.177 A 
ATOM     23 BR   UNL     1       1.361   3.589   2.160  0.00  0.00    -0.046 Br
BRANCH  17  24
ATOM     24  O   UNL     1      -1.498  -0.782   2.406  0.00  0.00    -0.489 OA
BRANCH  24  26
ATOM     25  C   UNL     1      -2.931  -2.725   2.284  0.00  0.00    +0.048 C 
ATOM     26  C   UNL     1      -1.874  -1.975   3.098  0.00  0.00    +0.226 C 
ENDBRANCH  24  26
ENDBRANCH  17  24
BRANCH  22  27
ATOM     27  O   UNL     1      -0.682   1.547   1.184  0.00  0.00    -0.476 OA
BRANCH  27  28
ATOM     28  C   UNL     1      -0.013   1.086   0.008  0.00  0.00    +0.354 C 
BRANCH  28  29
ATOM     29  C   UNL     1      -0.742   1.585  -1.213  0.00  0.00    +0.393 C 
ATOM     30  O   UNL     1      -1.732   2.266  -1.089  0.00  0.00    -0.243 OA
ATOM     31  O   UNL     1      -0.290   1.274  -2.438  0.00  0.00    -0.243 OA
ENDBRANCH  28  29
ENDBRANCH  27  28
ENDBRANCH  22  27
ENDBRANCH   1  19
TORSDOF 6
