REMARK  Name = ZINC14894595
REMARK  11 active torsions:
REMARK  status: ('A' for Active; 'I' for Inactive)
REMARK    1  A    between atoms: C_1  and  C_2
REMARK    2  A    between atoms: C_6  and  O_9
REMARK    3  A    between atoms: C_7  and  C_8
REMARK    4  A    between atoms: O_9  and  C_10
REMARK    5  A    between atoms: C_10  and  C_12
REMARK    6  A    between atoms: C_10  and  C_13
REMARK    7  A    between atoms: N_15  and  N_16
REMARK    8  A    between atoms: C_17  and  C_19
REMARK    9  A    between atoms: C_20  and  C_32
REMARK   10  A    between atoms: N_22  and  C_25
REMARK   11  A    between atoms: C_23  and  C_24
REMARK                            x       y       z     vdW  Elec       q    Type
REMARK                         _______ _______ _______ _____ _____    ______ ____
ROOT
ATOM      1  N   UNL     1       3.652   2.185  -0.554  0.00  0.00    -0.230 N 
ATOM      2  C   UNL     1       4.464   2.148  -1.629  0.00  0.00    +0.264 C 
ATOM      3  O   UNL     1       4.015   1.855  -2.720  0.00  0.00    -0.269 OA
ATOM      4  H   UNL     1       4.010   2.418   0.317  0.00  0.00    +0.173 HD
ENDROOT
BRANCH   2   5
ATOM      5  C   UNL     1       5.896   2.462  -1.482  0.00  0.00    +0.082 A 
ATOM      6  C   UNL     1       6.931   1.545  -1.188  0.00  0.00    +0.073 A 
ATOM      7  N   UNL     1       8.056   2.204  -1.143  0.00  0.00    -0.171 NA
ATOM      8  N   UNL     1       7.799   3.557  -1.393  0.00  0.00    -0.236 N 
ATOM      9  C   UNL     1       6.478   3.709  -1.599  0.00  0.00    +0.054 A 
ATOM     10  C   UNL     1       5.765   5.001  -1.903  0.00  0.00    +0.066 C 
ATOM     11  C   UNL     1       6.764   0.063  -0.969  0.00  0.00    +0.068 C 
BRANCH   8  12
ATOM     12  C   UNL     1       8.756   4.581  -1.423  0.00  0.00    +0.066 A 
ATOM     13  C   UNL     1       9.980   4.370  -2.044  0.00  0.00    +0.030 A 
ATOM     14  C   UNL     1      10.920   5.381  -2.077  0.00  0.00    +0.040 A 
ATOM     15  C   UNL     1      10.646   6.602  -1.483  0.00  0.00    +0.124 A 
ATOM     16  C   UNL     1       9.428   6.813  -0.859  0.00  0.00    +0.040 A 
ATOM     17  C   UNL     1       8.484   5.806  -0.828  0.00  0.00    +0.030 A 
ATOM     18  F   UNL     1      11.569   7.588  -1.511  0.00  0.00    -0.205 F 
ENDBRANCH   8  12
ENDBRANCH   2   5
BRANCH   1  21
ATOM     19  C   UNL     1       1.478   1.923   0.381  0.00  0.00    +0.270 C 
ATOM     20  O   UNL     1       1.926   2.215   1.469  0.00  0.00    -0.270 OA
ATOM     21  N   UNL     1       2.290   1.886  -0.694  0.00  0.00    -0.231 N 
ATOM     22  H   UNL     1       1.932   1.652  -1.565  0.00  0.00    +0.173 HD
BRANCH  19  23
ATOM     23  C   UNL     1       0.014   1.602   0.230  0.00  0.00    +0.257 C 
ATOM     24  C   UNL     1      -0.147   0.137  -0.183  0.00  0.00    +0.062 C 
BRANCH  23  25
ATOM     25  O   UNL     1      -0.653   1.821   1.475  0.00  0.00    -0.480 OA
BRANCH  25  31
ATOM     26  C   UNL     1      -4.774   3.053   3.782  0.00  0.00    +0.044 C 
ATOM     27  C   UNL     1      -4.027   2.684   2.526  0.00  0.00    -0.044 A 
ATOM     28  C   UNL     1      -4.699   2.609   1.320  0.00  0.00    +0.004 A 
ATOM     29  C   UNL     1      -4.018   2.271   0.166  0.00  0.00    +0.004 A 
ATOM     30  C   UNL     1      -2.661   2.013   0.214  0.00  0.00    +0.046 A 
ATOM     31  C   UNL     1      -1.986   2.081   1.424  0.00  0.00    +0.125 A 
ATOM     32  C   UNL     1      -2.672   2.421   2.581  0.00  0.00    -0.006 A 
ATOM     33  C   UNL     1      -1.941   2.502   3.896  0.00  0.00    +0.048 C 
ENDBRANCH  25  31
ENDBRANCH  23  25
ENDBRANCH  19  23
ENDBRANCH   1  21
TORSDOF 6
