REMARK  Name = ZINC16608054
REMARK  3 active torsions:
REMARK  status: ('A' for Active; 'I' for Inactive)
REMARK    1  A    between atoms: C_1  and  C_2
REMARK    2  A    between atoms: N_6  and  N_14
REMARK    3  A    between atoms: N_14  and  C_15
REMARK                            x       y       z     vdW  Elec       q    Type
REMARK                         _______ _______ _______ _____ _____    ______ ____
ROOT
ATOM      1  C   UNL     1      -0.808   1.763  -1.207  0.00  0.00    +0.029 C 
ATOM      2  C   UNL     1      -0.053   1.142  -0.030  0.00  0.00    +0.133 C 
ATOM      3  C   UNL     1      -0.561   1.682   1.298  0.00  0.00    +0.246 C 
ATOM      4  O   UNL     1      -1.609   1.298   1.774  0.00  0.00    -0.273 OA
ATOM      5  N   UNL     1       0.186   2.591   1.918  0.00  0.00    -0.205 N 
ATOM      6  C   UNL     1       1.446   3.016   1.301  0.00  0.00    +0.102 C 
ATOM      7  S   UNL     1       1.700   1.721   0.020  0.00  0.00    -0.121 S 
ATOM      8  C   UNL     1       1.312   4.376   0.636  0.00  0.00    +0.039 C 
ATOM      9  C   UNL     1       1.110   5.454   1.706  0.00  0.00    +0.003 C 
ATOM     10  C   UNL     1       2.297   5.439   2.671  0.00  0.00    +0.000 C 
ATOM     11  C   UNL     1       2.385   4.073   3.355  0.00  0.00    +0.003 C 
ATOM     12  C   UNL     1       2.594   2.987   2.296  0.00  0.00    +0.039 C 
ENDROOT
BRANCH   5  13
ATOM     13  N   UNL     1      -0.224   3.133   3.143  0.00  0.00    -0.261 N 
ATOM     14  H   UNL     1      -0.569   4.039   3.181  0.00  0.00    +0.170 HD
BRANCH  13  15
ATOM     15  C   UNL     1      -0.137   2.369   4.309  0.00  0.00    +0.045 A 
ATOM     16  C   UNL     1       0.351   1.069   4.255  0.00  0.00    +0.024 A 
ATOM     17  C   UNL     1       0.441   0.319   5.411  0.00  0.00    +0.002 A 
ATOM     18  C   UNL     1       0.035   0.855   6.619  0.00  0.00    +0.000 A 
ATOM     19  C   UNL     1      -0.456   2.147   6.675  0.00  0.00    +0.002 A 
ATOM     20  C   UNL     1      -0.544   2.905   5.524  0.00  0.00    +0.024 A 
ENDBRANCH  13  15
ENDBRANCH   5  13
TORSDOF 2
