REMARK  Name = ZINC01382003
REMARK  13 active torsions:
REMARK  status: ('A' for Active; 'I' for Inactive)
REMARK    1  A    between atoms: C_1  and  C_2
REMARK    2  A    between atoms: C_6  and  C_15
REMARK    3  A    between atoms: C_13  and  C_14
REMARK    4  A    between atoms: C_15  and  C_17
REMARK    5  A    between atoms: C_15  and  N_28
REMARK    6  A    between atoms: N_21  and  C_22
REMARK    7  A    between atoms: C_22  and  C_23
REMARK    8  A    between atoms: N_28  and  C_29
REMARK    9  A    between atoms: N_28  and  C_36
REMARK   10  A    between atoms: C_29  and  C_30
REMARK   11  A    between atoms: C_36  and  C_37
REMARK   12  A    between atoms: C_40  and  O_43
REMARK   13  A    between atoms: O_43  and  C_44
REMARK                            x       y       z     vdW  Elec       q    Type
REMARK                         _______ _______ _______ _____ _____    ______ ____
ROOT
ATOM      1  C   UNL     1       0.316  -4.956  -3.712  0.00  0.00    +0.163 C 
ENDROOT
BRANCH   1   7
ATOM      2  C   UNL     1       2.006   1.977  -1.543  0.00  0.00    +0.044 C 
ATOM      3  C   UNL     1       1.587   0.565  -1.223  0.00  0.00    -0.047 A 
ATOM      4  C   UNL     1       1.437  -0.342  -2.234  0.00  0.00    +0.013 A 
ATOM      5  C   UNL     1       1.048  -1.652  -1.937  0.00  0.00    -0.001 A 
ATOM      6  C   UNL     1       0.878  -2.650  -2.995  0.00  0.00    +0.021 A 
ATOM      7  C   UNL     1       0.500  -3.905  -2.647  0.00  0.00    +0.042 A 
ATOM      8  C   UNL     1       0.278  -4.231  -1.292  0.00  0.00    +0.254 A 
ATOM      9  O   UNL     1      -0.062  -5.365  -1.002  0.00  0.00    -0.268 OA
ATOM     10  N   UNL     1       0.431  -3.322  -0.314  0.00  0.00    -0.322 N 
ATOM     11  H   UNL     1       0.271  -3.579   0.608  0.00  0.00    +0.169 HD
ATOM     12  C   UNL     1       0.814  -2.029  -0.601  0.00  0.00    +0.049 A 
ATOM     13  C   UNL     1       0.972  -1.088   0.411  0.00  0.00    +0.030 A 
ATOM     14  C   UNL     1       1.362   0.197   0.096  0.00  0.00    -0.046 A 
ATOM     15  C   UNL     1       1.540   1.213   1.194  0.00  0.00    +0.044 C 
ENDBRANCH   1   7
BRANCH   1  16
ATOM     16  C   UNL     1      -1.133  -5.367  -3.767  0.00  0.00    +0.174 A 
ATOM     17  N   UNL     1      -1.688  -6.363  -3.120  0.00  0.00    -0.111 NA
ATOM     18  N   UNL     1      -2.939  -6.389  -3.429  0.00  0.00    -0.023 NA
ATOM     19  N   UNL     1      -3.196  -5.436  -4.255  0.00  0.00    -0.043 NA
ATOM     20  N   UNL     1      -2.108  -4.780  -4.484  0.00  0.00    -0.220 N 
BRANCH  20  21
ATOM     21  C   UNL     1      -1.963  -3.616  -5.363  0.00  0.00    +0.221 C 
BRANCH  21  22
ATOM     22  C   UNL     1      -1.769  -4.081  -6.783  0.00  0.00    +0.126 A 
ATOM     23  C   UNL     1      -2.748  -4.299  -7.680  0.00  0.00    +0.046 A 
ATOM     24  C   UNL     1      -2.122  -4.721  -8.875  0.00  0.00    +0.041 A 
ATOM     25  C   UNL     1      -0.798  -4.736  -8.637  0.00  0.00    +0.195 A 
ATOM     26  O   UNL     1      -0.590  -4.342  -7.371  0.00  0.00    -0.466 OA
ENDBRANCH  21  22
ENDBRANCH  20  21
ENDBRANCH   1  16
BRANCH   1  27
ATOM     27  N   UNL     1       1.146  -6.125  -3.394  0.00  0.00    -0.280 NA
BRANCH  27  28
ATOM     28  C   UNL     1       2.476  -5.716  -2.926  0.00  0.00    +0.121 C 
BRANCH  28  29
ATOM     29  C   UNL     1       3.156  -6.884  -2.260  0.00  0.00    -0.033 A 
ATOM     30  C   UNL     1       2.900  -7.168  -0.932  0.00  0.00    +0.005 A 
ATOM     31  C   UNL     1       3.523  -8.239  -0.321  0.00  0.00    +0.000 A 
ATOM     32  C   UNL     1       4.404  -9.028  -1.038  0.00  0.00    +0.000 A 
ATOM     33  C   UNL     1       4.660  -8.744  -2.367  0.00  0.00    +0.000 A 
ATOM     34  C   UNL     1       4.033  -7.675  -2.979  0.00  0.00    +0.005 A 
ENDBRANCH  28  29
ENDBRANCH  27  28
BRANCH  27  35
ATOM     35  C   UNL     1       1.248  -7.028  -4.549  0.00  0.00    +0.121 C 
BRANCH  35  36
ATOM     36  C   UNL     1      -0.011  -7.849  -4.658  0.00  0.00    -0.033 A 
ATOM     37  C   UNL     1      -0.166  -8.981  -3.880  0.00  0.00    +0.008 A 
ATOM     38  C   UNL     1      -1.319  -9.736  -3.979  0.00  0.00    +0.046 A 
ATOM     39  C   UNL     1      -2.321  -9.357  -4.860  0.00  0.00    +0.120 A 
ATOM     40  C   UNL     1      -2.163  -8.220  -5.639  0.00  0.00    +0.046 A 
ATOM     41  C   UNL     1      -1.010  -7.466  -5.533  0.00  0.00    +0.008 A 
BRANCH  39  42
ATOM     42  O   UNL     1      -3.456 -10.098  -4.959  0.00  0.00    -0.495 OA
ATOM     43  C   UNL     1      -4.445  -9.648  -5.887  0.00  0.00    +0.277 C 
ENDBRANCH  39  42
ENDBRANCH  35  36
ENDBRANCH  27  35
ENDBRANCH   1  27
TORSDOF 10
