REMARK  Name = ZINC01118167
REMARK  9 active torsions:
REMARK  status: ('A' for Active; 'I' for Inactive)
REMARK    1  A    between atoms: C_1  and  N_2
REMARK    2  A    between atoms: N_2  and  C_3
REMARK    3  A    between atoms: N_2  and  S_25
REMARK    4  A    between atoms: C_8  and  C_9
REMARK    5  A    between atoms: N_11  and  C_12
REMARK    6  A    between atoms: C_13  and  C_21
REMARK    7  A    between atoms: C_21  and  O_23
REMARK    8  A    between atoms: O_23  and  C_24
REMARK    9  A    between atoms: S_25  and  C_28
REMARK                            x       y       z     vdW  Elec       q    Type
REMARK                         _______ _______ _______ _____ _____    ______ ____
ROOT
ATOM      1  C   UNL     1       0.406  -0.556   1.281  0.00  0.00    +0.063 A 
ATOM      2  C   UNL     1      -0.595  -0.674   2.238  0.00  0.00    +0.025 A 
ATOM      3  C   UNL     1      -0.441  -1.548   3.295  0.00  0.00    +0.002 A 
ATOM      4  C   UNL     1       0.709  -2.313   3.411  0.00  0.00    +0.001 A 
ATOM      5  C   UNL     1       1.712  -2.210   2.473  0.00  0.00    +0.015 A 
ATOM      6  C   UNL     1       1.569  -1.334   1.393  0.00  0.00    +0.060 A 
ENDROOT
BRANCH   6   7
ATOM      7  C   UNL     1       2.636  -1.223   0.383  0.00  0.00    +0.250 C 
ATOM      8  O   UNL     1       2.466  -0.538  -0.608  0.00  0.00    -0.270 OA
ATOM      9  N   UNL     1       3.800  -1.880   0.556  0.00  0.00    -0.275 N 
ATOM     10  H   UNL     1       3.935  -2.426   1.346  0.00  0.00    +0.156 HD
BRANCH   9  11
ATOM     11  C   UNL     1       4.802  -1.775  -0.394  0.00  0.00    +0.087 A 
ATOM     12  C   UNL     1       6.051  -2.379  -0.386  0.00  0.00    +0.091 A 
ATOM     13  C   UNL     1       6.927  -2.105  -1.512  0.00  0.00    -0.021 A 
ATOM     14  C   UNL     1       6.395  -1.280  -2.438  0.00  0.00    -0.004 A 
ATOM     15  S   UNL     1       4.782  -0.895  -1.824  0.00  0.00    -0.077 S 
ATOM     16  C   UNL     1       7.044  -0.810  -3.704  0.00  0.00    +0.043 C 
ATOM     17  C   UNL     1       8.549  -1.103  -3.612  0.00  0.00    +0.005 C 
ATOM     18  C   UNL     1       8.744  -2.547  -3.141  0.00  0.00    +0.005 C 
ATOM     19  C   UNL     1       8.328  -2.678  -1.674  0.00  0.00    +0.037 C 
BRANCH  12  20
ATOM     20  C   UNL     1       6.469  -3.253   0.712  0.00  0.00    +0.342 C 
ATOM     21  O   UNL     1       6.245  -4.448   0.656  0.00  0.00    -0.245 OA
BRANCH  20  22
ATOM     22  O   UNL     1       7.103  -2.735   1.784  0.00  0.00    -0.464 OA
ATOM     23  C   UNL     1       7.482  -3.647   2.817  0.00  0.00    +0.280 C 
ENDBRANCH  20  22
ENDBRANCH  12  20
ENDBRANCH   9  11
ENDBRANCH   6   7
BRANCH   1  25
ATOM     24  C   UNL     1      -0.457  -0.107  -0.991  0.00  0.00    +0.157 C 
ATOM     25  N   UNL     1       0.253   0.322   0.216  0.00  0.00    -0.205 N 
BRANCH  25  26
ATOM     26  S   UNL     1       0.874   1.854   0.311  0.00  0.00    +0.074 S 
ATOM     27  O   UNL     1       1.822   1.843   1.369  0.00  0.00    -0.150 OA
ATOM     28  O   UNL     1       1.217   2.236  -1.014  0.00  0.00    -0.150 OA
BRANCH  26  29
ATOM     29  C   UNL     1      -0.436   2.917   0.818  0.00  0.00    +0.109 A 
ATOM     30  C   UNL     1      -1.244   3.518  -0.128  0.00  0.00    +0.029 A 
ATOM     31  C   UNL     1      -2.272   4.352   0.270  0.00  0.00    +0.002 A 
ATOM     32  C   UNL     1      -2.492   4.584   1.615  0.00  0.00    +0.000 A 
ATOM     33  C   UNL     1      -1.685   3.982   2.562  0.00  0.00    +0.002 A 
ATOM     34  C   UNL     1      -0.659   3.145   2.163  0.00  0.00    +0.029 A 
ENDBRANCH  26  29
ENDBRANCH  25  26
ENDBRANCH   1  25
TORSDOF 7
