REMARK  Name = ZINC36802141
REMARK  10 active torsions:
REMARK  status: ('A' for Active; 'I' for Inactive)
REMARK    1  A    between atoms: C_1  and  C_2
REMARK    2  A    between atoms: C_2  and  C_3
REMARK    3  A    between atoms: C_2  and  C_4
REMARK    4  A    between atoms: C_4  and  C_5
REMARK    5  A    between atoms: C_4  and  C_6
REMARK    6  A    between atoms: C_4  and  N_8
REMARK    7  A    between atoms: C_9  and  C_11
REMARK    8  A    between atoms: C_11  and  N_12
REMARK    9  A    between atoms: C_15  and  C_19
REMARK   10  A    between atoms: C_15  and  C_20
REMARK                            x       y       z     vdW  Elec       q    Type
REMARK                         _______ _______ _______ _____ _____    ______ ____
ROOT
ATOM      1  N   UNL     1       5.088  -0.472  -3.376  0.00  0.00    -0.215 N 
ATOM      2  C   UNL     1       5.695  -1.671  -3.481  0.00  0.00    +0.251 C 
ATOM      3  O   UNL     1       5.774  -2.529  -2.628  0.00  0.00    -0.272 OA
ATOM      4  C   UNL     1       6.258  -1.723  -4.887  0.00  0.00    +0.136 C 
ATOM      5  N   UNL     1       5.866  -0.426  -5.466  0.00  0.00    -0.281 N 
ATOM      6  C   UNL     1       5.184   0.230  -4.511  0.00  0.00    +0.310 C 
ATOM      7  O   UNL     1       4.710   1.340  -4.660  0.00  0.00    -0.252 OA
ATOM      8  C   UNL     1       7.782  -1.858  -4.853  0.00  0.00    +0.047 C 
ATOM      9  H   UNL     1       6.059  -0.109  -6.362  0.00  0.00    +0.152 HD
ENDROOT
BRANCH   4  10
ATOM     10  C   UNL     1       5.641  -2.858  -5.663  0.00  0.00    +0.003 A 
ATOM     11  C   UNL     1       4.939  -2.600  -6.825  0.00  0.00    +0.009 A 
ATOM     12  C   UNL     1       4.373  -3.640  -7.537  0.00  0.00    +0.020 A 
ATOM     13  C   UNL     1       4.510  -4.942  -7.088  0.00  0.00    +0.042 A 
ATOM     14  C   UNL     1       5.213  -5.201  -5.926  0.00  0.00    +0.040 A 
ATOM     15  C   UNL     1       5.784  -4.160  -5.216  0.00  0.00    +0.048 A 
ATOM     16 CL   UNL     1       6.672  -4.485  -3.760  0.00  0.00    -0.083 Cl
ATOM     17 CL   UNL     1       3.799  -6.248  -7.982  0.00  0.00    -0.083 Cl
ENDBRANCH   4  10
BRANCH   1  18
ATOM     18  C   UNL     1       4.402   0.000  -2.171  0.00  0.00    +0.213 C 
BRANCH  18  20
ATOM     19  N   UNL     1       2.125  -0.091  -1.209  0.00  0.00    -0.296 N 
ATOM     20  C   UNL     1       2.955  -0.418  -2.220  0.00  0.00    +0.232 C 
ATOM     21  O   UNL     1       2.538  -1.048  -3.168  0.00  0.00    -0.274 OA
ATOM     22  H   UNL     1       2.459   0.413  -0.451  0.00  0.00    +0.150 HD
BRANCH  19  23
ATOM     23  C   UNL     1       0.718  -0.497  -1.257  0.00  0.00    +0.121 C 
ATOM     24  C   UNL     1       0.630  -2.023  -1.329  0.00  0.00    +0.048 C 
BRANCH  23  26
ATOM     25  C   UNL     1      -0.019   1.526   0.010  0.00  0.00    +0.010 C 
ATOM     26  C   UNL     1       0.002  -0.004   0.002  0.00  0.00    +0.020 C 
ATOM     27  C   UNL     1      -1.433  -0.534   0.013  0.00  0.00    +0.010 C 
ENDBRANCH  23  26
BRANCH  23  28
ATOM     28  C   UNL     1       0.078   0.087  -2.446  0.00  0.00    +0.088 C 
ATOM     29  N   UNL     1      -0.415   0.539  -3.365  0.00  0.00    -0.194 NA
ENDBRANCH  23  28
ENDBRANCH  19  23
ENDBRANCH  18  20
ENDBRANCH   1  18
TORSDOF 6
