REMARK  Name = ZINC20748563
REMARK  7 active torsions:
REMARK  status: ('A' for Active; 'I' for Inactive)
REMARK    1  A    between atoms: C_1  and  C_2
REMARK    2  A    between atoms: C_2  and  O_3
REMARK    3  A    between atoms: O_3  and  C_4
REMARK    4  A    between atoms: C_9  and  C_10
REMARK    5  A    between atoms: C_21  and  S_26
REMARK    6  A    between atoms: S_26  and  N_29
REMARK    7  A    between atoms: N_32  and  C_35
REMARK                            x       y       z     vdW  Elec       q    Type
REMARK                         _______ _______ _______ _____ _____    ______ ____
ROOT
ATOM      1  C   UNL     1       3.692   1.792  -0.050  0.00  0.00    +0.108 C 
ATOM      2  C   UNL     1       3.455   3.079  -0.820  0.00  0.00    +0.029 C 
ATOM      3  C   UNL     1       4.592   4.110  -0.826  0.00  0.00    +0.033 C 
ATOM      4  C   UNL     1       3.817   5.422  -0.969  0.00  0.00    -0.030 C 
ATOM      5  C   UNL     1       2.588   5.278  -0.488  0.00  0.00    -0.023 C 
ATOM      6  C   UNL     1       2.444   3.897   0.038  0.00  0.00    +0.049 C 
ATOM      7  C   UNL     1       1.149   3.182   0.020  0.00  0.00    -0.018 A 
ATOM      8  C   UNL     1      -0.061   3.842   0.028  0.00  0.00    +0.034 A 
ATOM      9  C   UNL     1      -1.245   3.129   0.030  0.00  0.00    +0.106 A 
ATOM     10  C   UNL     1      -1.218   1.746   0.017  0.00  0.00    +0.030 A 
ATOM     11  C   UNL     1      -0.013   1.076   0.008  0.00  0.00    +0.025 A 
ATOM     12  C   UNL     1       1.183   1.784   0.000  0.00  0.00    +0.031 A 
ATOM     13  N   UNL     1       2.394   1.082  -0.050  0.00  0.00    -0.336 N 
ATOM     14  H   UNL     1       2.369  -0.017  -0.089  0.00  0.00    +0.147 HD
ENDROOT
BRANCH   1  20
ATOM     15  C   UNL     1       6.086   1.193  -0.494  0.00  0.00    +0.125 A 
ATOM     16  C   UNL     1       7.049   0.421  -1.128  0.00  0.00    +0.046 A 
ATOM     17  C   UNL     1       6.667  -0.572  -2.008  0.00  0.00    +0.004 A 
ATOM     18  C   UNL     1       5.326  -0.801  -2.256  0.00  0.00    +0.001 A 
ATOM     19  C   UNL     1       4.364  -0.036  -1.622  0.00  0.00    +0.009 A 
ATOM     20  C   UNL     1       4.741   0.959  -0.740  0.00  0.00    +0.015 A 
BRANCH  15  21
ATOM     21  O   UNL     1       6.459   2.174   0.368  0.00  0.00    -0.492 OA
BRANCH  21  23
ATOM     22  C   UNL     1       8.085   3.499   1.569  0.00  0.00    +0.048 C 
ATOM     23  C   UNL     1       7.861   2.359   0.573  0.00  0.00    +0.225 C 
ENDBRANCH  21  23
ENDBRANCH  15  21
ENDBRANCH   1  20
BRANCH   9  24
ATOM     24  S   UNL     1      -2.787   3.981   0.040  0.00  0.00    +0.061 S 
ATOM     25  O   UNL     1      -3.743   3.084   0.590  0.00  0.00    -0.153 OA
ATOM     26  O   UNL     1      -2.538   5.264   0.596  0.00  0.00    -0.153 OA
BRANCH  24  27
ATOM     27  N   UNL     1      -3.222   4.225  -1.539  0.00  0.00    -0.180 NA
ATOM     28  C   UNL     1      -2.815   5.444  -2.255  0.00  0.00    +0.091 C 
ATOM     29  C   UNL     1      -2.160   5.028  -3.581  0.00  0.00    -0.062 C 
ATOM     30  N   UNL     1      -3.077   4.151  -4.321  0.00  0.00    +0.380 N 
ATOM     31  C   UNL     1      -3.332   2.905  -3.586  0.00  0.00    -0.062 C 
ATOM     32  C   UNL     1      -4.031   3.231  -2.262  0.00  0.00    +0.091 C 
ATOM     33  C   UNL     1      -2.566   3.872  -5.670  0.00  0.00    -0.096 C 
ATOM     34  H   UNL     1      -4.036   4.681  -4.424  0.00  0.00    -0.082 HD
ENDBRANCH  24  27
ENDBRANCH   9  24
TORSDOF 5
