REMARK  Name = ZINC00303744
REMARK  5 active torsions:
REMARK  status: ('A' for Active; 'I' for Inactive)
REMARK    1  A    between atoms: C_3  and  N_9
REMARK    2  A    between atoms: C_6  and  C_7
REMARK    3  A    between atoms: C_10  and  C_12
REMARK    4  A    between atoms: C_12  and  N_13
REMARK    5  A    between atoms: C_16  and  C_18
REMARK                            x       y       z     vdW  Elec       q    Type
REMARK                         _______ _______ _______ _____ _____    ______ ____
ROOT
ATOM      1  C   UNL     1       2.276   5.676   0.226  0.00  0.00    +0.239 C 
ENDROOT
BRANCH   1   2
ATOM      2  N   UNL     1       3.646   6.187   0.313  0.00  0.00    -0.259 N 
ATOM      3  C   UNL     1       4.426   6.554  -0.729  0.00  0.00    +0.043 A 
ATOM      4  C   UNL     1       5.612   6.968  -0.231  0.00  0.00    +0.005 A 
ATOM      5  C   UNL     1       5.556   6.850   1.165  0.00  0.00    +0.169 A 
ATOM      6  N   UNL     1       4.377   6.388   1.490  0.00  0.00    -0.166 NA
ATOM      7  C   UNL     1       6.532   7.393  -1.355  0.00  0.00    +0.039 C 
ATOM      8  C   UNL     1       5.914   6.782  -2.631  0.00  0.00    +0.011 C 
ATOM      9  C   UNL     1       4.426   6.658  -2.239  0.00  0.00    +0.056 C 
BRANCH   5  10
ATOM     10  C   UNL     1       6.662   7.202   2.126  0.00  0.00    +0.436 C 
ATOM     11  F   UNL     1       6.539   8.543   2.508  0.00  0.00    -0.164 F 
ATOM     12  F   UNL     1       6.575   6.385   3.257  0.00  0.00    -0.164 F 
ATOM     13  F   UNL     1       7.900   7.007   1.503  0.00  0.00    -0.164 F 
ENDBRANCH   5  10
ENDBRANCH   1   2
BRANCH   1  15
ATOM     14  N   UNL     1       1.155   3.482   0.010  0.00  0.00    -0.284 N 
ATOM     15  C   UNL     1       2.307   4.174   0.104  0.00  0.00    +0.239 C 
ATOM     16  O   UNL     1       3.369   3.588   0.091  0.00  0.00    -0.273 OA
ATOM     17  H   UNL     1       0.310   3.953  -0.057  0.00  0.00    +0.155 HD
BRANCH  14  20
ATOM     18  C   UNL     1       2.162   0.030   0.751  0.00  0.00    +0.020 A 
ATOM     19  C   UNL     1       2.137   1.407   0.750  0.00  0.00    +0.024 A 
ATOM     20  C   UNL     1       1.177   2.086   0.008  0.00  0.00    +0.034 A 
ATOM     21  C   UNL     1       0.239   1.378  -0.737  0.00  0.00    +0.024 A 
ATOM     22  C   UNL     1       0.258   0.002  -0.741  0.00  0.00    +0.020 A 
ATOM     23  C   UNL     1       1.222  -0.685   0.004  0.00  0.00    +0.052 A 
BRANCH  23  24
ATOM     24  C   UNL     1       1.245  -2.116   0.002  0.00  0.00    +0.099 C 
ATOM     25  N   UNL     1       1.263  -3.252  -0.000  0.00  0.00    -0.191 NA
ENDBRANCH  23  24
ENDBRANCH  14  20
ENDBRANCH   1  15
TORSDOF 5
