REMARK  Name = ZINC08934569
REMARK  5 active torsions:
REMARK  status: ('A' for Active; 'I' for Inactive)
REMARK    1  A    between atoms: C_12  and  S_14
REMARK    2  A    between atoms: S_14  and  N_17
REMARK    3  A    between atoms: N_17  and  C_18
REMARK    4  A    between atoms: C_21  and  S_24
REMARK    5  A    between atoms: S_24  and  N_27
REMARK                            x       y       z     vdW  Elec       q    Type
REMARK                         _______ _______ _______ _____ _____    ______ ____
ROOT
ATOM      1  N   UNL     1       0.686   4.860   0.748  0.00  0.00    -0.216 N 
ATOM      2  H   UNL     1       1.126   5.666   1.063  0.00  0.00    +0.174 HD
ENDROOT
BRANCH   1   3
ATOM      3  C   UNL     1      -0.321   4.270   1.514  0.00  0.00    +0.048 A 
ATOM      4  C   UNL     1      -1.652   4.410   1.141  0.00  0.00    +0.026 A 
ATOM      5  C   UNL     1      -2.646   3.821   1.898  0.00  0.00    +0.031 A 
ATOM      6  C   UNL     1      -2.317   3.100   3.032  0.00  0.00    +0.111 A 
ATOM      7  C   UNL     1      -0.994   2.962   3.409  0.00  0.00    +0.031 A 
ATOM      8  C   UNL     1       0.005   3.545   2.653  0.00  0.00    +0.026 A 
BRANCH   6   9
ATOM      9  S   UNL     1      -3.588   2.354   3.998  0.00  0.00    +0.080 S 
ATOM     10  O   UNL     1      -4.701   2.170   3.133  0.00  0.00    -0.148 OA
ATOM     11  O   UNL     1      -2.985   1.278   4.702  0.00  0.00    -0.148 OA
BRANCH   9  12
ATOM     12  N   UNL     1      -4.052   3.464   5.137  0.00  0.00    -0.228 N 
ATOM     13  C   UNL     1      -4.652   4.638   4.748  0.00  0.00    +0.186 C 
ATOM     14  N   UNL     1      -5.037   5.559   5.693  0.00  0.00    -0.370 N 
ATOM     15  H   UNL     1      -3.901   3.285   6.078  0.00  0.00    +0.191 HD
ATOM     16  H   UNL     1      -5.271   5.678   3.109  0.00  0.00    +0.159 HD
ATOM     17  H   UNL     1      -4.886   5.381   6.634  0.00  0.00    +0.159 HD
ATOM     18  H   UNL     1      -5.461   6.388   5.418  0.00  0.00    +0.159 HD
ATOM     19  N   UNL     1      -4.831   4.822   3.447  0.00  0.00    -0.370 N 
ATOM     20  H   UNL     1      -4.526   4.104   2.781  0.00  0.00    +0.159 HD
ENDBRANCH   9  12
ENDBRANCH   6   9
ENDBRANCH   1   3
BRANCH   1  21
ATOM     21  S   UNL     1       1.130   4.186  -0.698  0.00  0.00    +0.072 S 
ATOM     22  O   UNL     1       2.216   4.960  -1.190  0.00  0.00    -0.150 OA
ATOM     23  O   UNL     1      -0.066   3.994  -1.440  0.00  0.00    -0.150 OA
BRANCH  21  35
ATOM     24  C   UNL     1       5.424  -3.088   1.242  0.00  0.00    +0.000 A 
ATOM     25  C   UNL     1       4.125  -3.458   0.943  0.00  0.00    +0.001 A 
ATOM     26  C   UNL     1       3.194  -2.503   0.592  0.00  0.00    +0.009 A 
ATOM     27  C   UNL     1       3.562  -1.157   0.538  0.00  0.00    -0.014 A 
ATOM     28  C   UNL     1       4.871  -0.795   0.841  0.00  0.00    -0.035 A 
ATOM     29  C   UNL     1       5.796  -1.756   1.190  0.00  0.00    +0.004 A 
ATOM     30  C   UNL     1       4.972   0.705   0.700  0.00  0.00    +0.071 C 
ATOM     31  C   UNL     1       3.600   1.178   0.287  0.00  0.00    -0.033 A 
ATOM     32  C   UNL     1       2.779   0.057   0.197  0.00  0.00    -0.014 A 
ATOM     33  C   UNL     1       1.442   0.216  -0.172  0.00  0.00    +0.011 A 
ATOM     34  C   UNL     1       0.947   1.475  -0.443  0.00  0.00    +0.029 A 
ATOM     35  C   UNL     1       1.771   2.582  -0.350  0.00  0.00    +0.109 A 
ATOM     36  C   UNL     1       3.097   2.433   0.015  0.00  0.00    +0.033 A 
ENDBRANCH  21  35
ENDBRANCH   1  21
TORSDOF 5
