REMARK  Name = ZINC06398379
REMARK  7 active torsions:
REMARK  status: ('A' for Active; 'I' for Inactive)
REMARK    1  A    between atoms: C_1  and  C_2
REMARK    2  A    between atoms: C_2  and  C_3
REMARK    3  A    between atoms: C_5  and  N_11
REMARK    4  A    between atoms: C_6  and  O_10
REMARK    5  A    between atoms: N_12  and  C_13
REMARK    6  A    between atoms: C_16  and  O_19
REMARK    7  A    between atoms: O_19  and  C_20
REMARK                            x       y       z     vdW  Elec       q    Type
REMARK                         _______ _______ _______ _____ _____    ______ ____
ROOT
ATOM      1  C   UNL     1      -1.412  -0.526   0.013  0.00  0.00    -0.044 A 
ATOM      2  C   UNL     1      -2.046  -0.764   1.213  0.00  0.00    +0.037 A 
ATOM      3  C   UNL     1      -3.357  -1.248   1.225  0.00  0.00    +0.129 A 
ATOM      4  C   UNL     1      -4.019  -1.486   0.011  0.00  0.00    +0.158 A 
ATOM      5  C   UNL     1      -3.365  -1.241  -1.187  0.00  0.00    +0.062 A 
ATOM      6  C   UNL     1      -2.070  -0.758  -1.183  0.00  0.00    +0.022 A 
ATOM      7 BR   UNL     1      -4.250  -1.560  -2.827  0.00  0.00    -0.046 Br
ENDROOT
BRANCH   1   9
ATOM      8  C   UNL     1      -0.019   1.526   0.010  0.00  0.00    +0.009 C 
ATOM      9  C   UNL     1       0.002  -0.004   0.002  0.00  0.00    +0.032 C 
ENDBRANCH   1   9
BRANCH   4  10
ATOM     10  O   UNL     1      -5.292  -1.956   0.009  0.00  0.00    -0.504 OA
ATOM     11  H   UNL     1      -5.967  -1.264   0.012  0.00  0.00    +0.292 HD
ENDBRANCH   4  10
BRANCH   3  12
ATOM     12  N   UNL     1      -3.991  -1.486   2.410  0.00  0.00    -0.146 NA
ATOM     13  N   UNL     1      -3.379  -1.266   3.524  0.00  0.00    -0.149 NA
BRANCH  13  14
ATOM     14  C   UNL     1      -4.013  -1.504   4.710  0.00  0.00    +0.086 A 
ATOM     15  C   UNL     1      -5.323  -1.993   4.719  0.00  0.00    +0.033 A 
ATOM     16  C   UNL     1      -5.958  -2.233   5.918  0.00  0.00    +0.048 A 
ATOM     17  C   UNL     1      -5.298  -1.990   7.117  0.00  0.00    +0.120 A 
ATOM     18  C   UNL     1      -3.997  -1.504   7.113  0.00  0.00    +0.048 A 
ATOM     19  C   UNL     1      -3.352  -1.266   5.919  0.00  0.00    +0.033 A 
BRANCH  17  20
ATOM     20  O   UNL     1      -5.929  -2.227   8.296  0.00  0.00    -0.495 OA
ATOM     21  C   UNL     1      -5.193  -1.955   9.491  0.00  0.00    +0.277 C 
ENDBRANCH  17  20
ENDBRANCH  13  14
ENDBRANCH   3  12
TORSDOF 5
