REMARK  Name = ZINC15404169
REMARK  4 active torsions:
REMARK  status: ('A' for Active; 'I' for Inactive)
REMARK    1  A    between atoms: C_1  and  C_2
REMARK    2  A    between atoms: C_6  and  N_9
REMARK    3  A    between atoms: C_7  and  C_8
REMARK    4  A    between atoms: C_13  and  C_16
REMARK                            x       y       z     vdW  Elec       q    Type
REMARK                         _______ _______ _______ _____ _____    ______ ____
ROOT
ATOM      1  N   UNL     1       1.162   3.484   0.009  0.00  0.00    -0.292 N 
ATOM      2  C   UNL     1      -0.033   4.159  -0.080  0.00  0.00    +0.180 C 
ATOM      3  N   UNL     1      -1.165   3.498  -0.073  0.00  0.00    -0.126 NA
ATOM      4  N   UNL     1      -2.319   4.023  -0.164  0.00  0.00    -0.149 NA
ATOM      5  C   UNL     1      -2.611   5.190  -0.640  0.00  0.00    +0.097 C 
ATOM      6  C   UNL     1      -1.555   6.111  -1.201  0.00  0.00    +0.136 C 
ATOM      7  S   UNL     1      -0.050   5.922  -0.197  0.00  0.00    -0.082 S 
ATOM      8  H   UNL     1       1.993   3.978   0.092  0.00  0.00    +0.154 HD
ENDROOT
BRANCH   1  14
ATOM      9  C   UNL     1       3.388  -0.745   1.162  0.00  0.00    +0.044 C 
ATOM     10  C   UNL     1       2.246   0.011   0.531  0.00  0.00    -0.046 A 
ATOM     11  C   UNL     1       1.214  -0.680  -0.077  0.00  0.00    +0.004 A 
ATOM     12  C   UNL     1       0.165   0.009  -0.657  0.00  0.00    +0.002 A 
ATOM     13  C   UNL     1       0.144   1.390  -0.630  0.00  0.00    +0.023 A 
ATOM     14  C   UNL     1       1.179   2.087  -0.019  0.00  0.00    +0.036 A 
ATOM     15  C   UNL     1       2.232   1.391   0.562  0.00  0.00    -0.026 A 
ATOM     16  C   UNL     1       3.358   2.142   1.224  0.00  0.00    +0.046 C 
ENDBRANCH   1  14
BRANCH   5  17
ATOM     17  C   UNL     1      -4.007   5.630  -0.634  0.00  0.00    +0.063 A 
ATOM     18  C   UNL     1      -5.086   4.912  -0.161  0.00  0.00    +0.029 A 
ATOM     19  C   UNL     1      -6.226   5.707  -0.349  0.00  0.00    +0.019 A 
ATOM     20  C   UNL     1      -5.833   6.867  -0.921  0.00  0.00    +0.083 A 
ATOM     21  N   UNL     1      -4.481   6.836  -1.095  0.00  0.00    -0.360 N 
ATOM     22  H   UNL     1      -3.943   7.545  -1.481  0.00  0.00    +0.165 HD
ENDBRANCH   5  17
TORSDOF 2
