REMARK  Name = ZINC05920736
REMARK  6 active torsions:
REMARK  status: ('A' for Active; 'I' for Inactive)
REMARK    1  A    between atoms: C_1  and  C_2
REMARK    2  A    between atoms: C_8  and  N_10
REMARK    3  A    between atoms: C_11  and  C_13
REMARK    4  A    between atoms: C_13  and  C_14
REMARK    5  A    between atoms: C_17  and  N_23
REMARK    6  A    between atoms: C_19  and  N_20
REMARK                            x       y       z     vdW  Elec       q    Type
REMARK                         _______ _______ _______ _____ _____    ______ ____
ROOT
ATOM      1  C   UNL     1       4.658   0.717   2.248  0.00  0.00    +0.133 C 
ENDROOT
BRANCH   1   2
ATOM      2  C   UNL     1       4.951   0.732   3.726  0.00  0.00    -0.008 A 
ATOM      3  C   UNL     1       4.963   1.930   4.417  0.00  0.00    +0.008 A 
ATOM      4  C   UNL     1       5.232   1.943   5.772  0.00  0.00    +0.033 A 
ATOM      5  C   UNL     1       5.489   0.759   6.438  0.00  0.00    +0.128 A 
ATOM      6  C   UNL     1       5.476  -0.439   5.748  0.00  0.00    +0.065 A 
ATOM      7  C   UNL     1       5.203  -0.453   4.393  0.00  0.00    +0.132 A 
BRANCH   7   8
ATOM      8  N   UNL     1       5.184  -1.736   3.655  0.00  0.00    +0.057 N 
ATOM      9  O   UNL     1       5.510  -2.758   4.212  0.00  0.00    -0.126 OA
ATOM     10  O   UNL     1       4.842  -1.761   2.495  0.00  0.00    -0.126 OA
ENDBRANCH   7   8
BRANCH   5  11
ATOM     11  N   UNL     1       5.778   0.774   7.890  0.00  0.00    +0.056 N 
ATOM     12  O   UNL     1       5.790   1.821   8.493  0.00  0.00    -0.126 OA
ATOM     13  O   UNL     1       6.002  -0.262   8.472  0.00  0.00    -0.126 OA
ENDBRANCH   5  11
ENDBRANCH   1   2
BRANCH   1  15
ATOM     14  N   UNL     1       2.736   0.223   0.771  0.00  0.00    -0.312 N 
ATOM     15  C   UNL     1       3.226   0.307   2.024  0.00  0.00    +0.218 C 
ATOM     16  O   UNL     1       2.513   0.051   2.972  0.00  0.00    -0.275 OA
ATOM     17  H   UNL     1       3.307   0.427   0.014  0.00  0.00    +0.149 HD
BRANCH  14  24
ATOM     18  C   UNL     1       0.953   1.909  -0.767  0.00  0.00    +0.009 C 
ATOM     19  C   UNL     1       0.857   0.382  -0.785  0.00  0.00    +0.006 C 
ATOM     20  C   UNL     1       1.728  -0.171  -1.915  0.00  0.00    +0.005 C 
ATOM     21  C   UNL     1       1.632  -1.698  -1.933  0.00  0.00    +0.000 C 
ATOM     22  C   UNL     1       2.119  -2.255  -0.594  0.00  0.00    +0.002 C 
ATOM     23  C   UNL     1       1.248  -1.703   0.536  0.00  0.00    +0.022 C 
ATOM     24  C   UNL     1       1.344  -0.176   0.554  0.00  0.00    +0.076 C 
ENDBRANCH  14  24
ENDBRANCH   1  15
TORSDOF 5
