REMARK  Name = ZINC37443261
REMARK  5 active torsions:
REMARK  status: ('A' for Active; 'I' for Inactive)
REMARK    1  A    between atoms: C_1  and  C_2
REMARK    2  A    between atoms: C_8  and  N_10
REMARK    3  A    between atoms: C_11  and  C_13
REMARK    4  A    between atoms: C_13  and  C_33
REMARK    5  A    between atoms: N_25  and  C_26
REMARK                            x       y       z     vdW  Elec       q    Type
REMARK                         _______ _______ _______ _____ _____    ______ ____
ROOT
ATOM      1  C   UNL     1       3.825   0.579   2.280  0.00  0.00    +0.133 C 
ATOM      2  C   UNL     1       4.302   1.017   3.664  0.00  0.00    +0.158 C 
ATOM      3  N   UNL     1       3.951   2.426   3.871  0.00  0.00    -0.331 N 
ATOM      4  C   UNL     1       3.671   3.099   5.022  0.00  0.00    +0.088 A 
ATOM      5  C   UNL     1       3.529   3.011   6.428  0.00  0.00    +0.067 A 
ATOM      6  C   UNL     1       3.212   4.239   6.874  0.00  0.00    +0.198 A 
ATOM      7  O   UNL     1       3.147   5.090   5.837  0.00  0.00    -0.461 OA
ATOM      8  C   UNL     1       3.418   4.430   4.690  0.00  0.00    +0.153 A 
ATOM      9  C   UNL     1       3.544   4.551   3.298  0.00  0.00    +0.079 A 
ATOM     10  C   UNL     1       3.863   3.320   2.807  0.00  0.00    +0.109 A 
ATOM     11  C   UNL     1       4.087   2.871   1.428  0.00  0.00    +0.268 C 
ATOM     12  O   UNL     1       4.185   3.659   0.505  0.00  0.00    -0.268 OA
ATOM     13  N   UNL     1       4.179   1.534   1.236  0.00  0.00    -0.250 N 
ATOM     14  C   UNL     1       4.456  -0.774   1.947  0.00  0.00    +0.044 C 
ENDROOT
BRANCH  13  15
ATOM     15  C   UNL     1       4.628   1.055   0.001  0.00  0.00    +0.038 A 
ATOM     16  C   UNL     1       5.897   0.501  -0.111  0.00  0.00    +0.025 A 
ATOM     17  C   UNL     1       6.337   0.028  -1.331  0.00  0.00    +0.022 A 
ATOM     18  C   UNL     1       5.516   0.105  -2.442  0.00  0.00    +0.041 A 
ATOM     19  C   UNL     1       4.251   0.657  -2.333  0.00  0.00    +0.022 A 
ATOM     20  C   UNL     1       3.803   1.126  -1.114  0.00  0.00    +0.025 A 
ATOM     21 CL   UNL     1       6.072  -0.490  -3.975  0.00  0.00    -0.084 Cl
ENDBRANCH  13  15
BRANCH   1  23
ATOM     22  N   UNL     1       1.621   0.481   1.161  0.00  0.00    -0.310 N 
ATOM     23  C   UNL     1       2.326   0.423   2.308  0.00  0.00    +0.239 C 
ATOM     24  O   UNL     1       1.754   0.246   3.363  0.00  0.00    -0.273 OA
ATOM     25  H   UNL     1       2.078   0.623   0.317  0.00  0.00    +0.149 HD
BRANCH  22  32
ATOM     26  C   UNL     1      -0.086   2.510  -0.006  0.00  0.00    +0.009 C 
ATOM     27  C   UNL     1      -0.444   1.022  -0.033  0.00  0.00    +0.006 C 
ATOM     28  C   UNL     1       0.111   0.387  -1.309  0.00  0.00    +0.005 C 
ATOM     29  C   UNL     1      -0.247  -1.101  -1.335  0.00  0.00    +0.000 C 
ATOM     30  C   UNL     1       0.360  -1.794  -0.114  0.00  0.00    +0.002 C 
ATOM     31  C   UNL     1      -0.195  -1.158   1.162  0.00  0.00    +0.022 C 
ATOM     32  C   UNL     1       0.164   0.330   1.188  0.00  0.00    +0.076 C 
ENDBRANCH  22  32
ENDBRANCH   1  23
TORSDOF 3
