REMARK  Name = ZINC41248269
REMARK  6 active torsions:
REMARK  status: ('A' for Active; 'I' for Inactive)
REMARK    1  A    between atoms: C_1  and  C_2
REMARK    2  A    between atoms: C_2  and  O_3
REMARK    3  A    between atoms: O_3  and  C_4
REMARK    4  A    between atoms: C_9  and  C_10
REMARK    5  A    between atoms: C_17  and  O_22
REMARK    6  A    between atoms: C_18  and  C_21
REMARK                            x       y       z     vdW  Elec       q    Type
REMARK                         _______ _______ _______ _____ _____    ______ ____
ROOT
ATOM      1  C   UNL     1       1.985  -1.435  -3.481  0.00  0.00    +0.061 C 
ATOM      2  C   UNL     1       2.695  -1.943  -4.521  0.00  0.00    +0.176 C 
ATOM      3  C   UNL     1       3.408  -1.169  -5.547  0.00  0.00    +0.231 C 
ATOM      4  O   UNL     1       3.488   0.043  -5.646  0.00  0.00    -0.283 OA
ATOM      5  C   UNL     1       4.006  -2.187  -6.430  0.00  0.00    +0.068 A 
ATOM      6  C   UNL     1       4.796  -2.110  -7.578  0.00  0.00    +0.019 A 
ATOM      7  C   UNL     1       5.210  -3.255  -8.197  0.00  0.00    +0.046 A 
ATOM      8  C   UNL     1       4.846  -4.498  -7.685  0.00  0.00    +0.123 A 
ATOM      9  C   UNL     1       4.062  -4.590  -6.547  0.00  0.00    +0.034 A 
ATOM     10  C   UNL     1       3.633  -3.435  -5.904  0.00  0.00    +0.146 A 
ATOM     11  O   UNL     1       2.880  -3.256  -4.797  0.00  0.00    -0.451 OA
ATOM     12  C   UNL     1       3.675  -5.941  -6.005  0.00  0.00    +0.051 C 
ENDROOT
BRANCH   1  18
ATOM     13  C   UNL     1       1.053  -1.811  -1.203  0.00  0.00    +0.128 A 
ATOM     14  C   UNL     1       0.555  -2.665  -0.232  0.00  0.00    +0.046 A 
ATOM     15  C   UNL     1       0.468  -4.021  -0.481  0.00  0.00    +0.004 A 
ATOM     16  C   UNL     1       0.875  -4.539  -1.701  0.00  0.00    +0.001 A 
ATOM     17  C   UNL     1       1.372  -3.707  -2.679  0.00  0.00    +0.011 A 
ATOM     18  C   UNL     1       1.462  -2.329  -2.443  0.00  0.00    +0.020 A 
BRANCH  13  19
ATOM     19  O   UNL     1       1.139  -0.478  -0.959  0.00  0.00    -0.492 OA
BRANCH  19  21
ATOM     20  C   UNL     1       0.876   1.493   0.413  0.00  0.00    +0.048 C 
ATOM     21  C   UNL     1       0.705  -0.024   0.325  0.00  0.00    +0.226 C 
ENDBRANCH  19  21
ENDBRANCH  13  19
ENDBRANCH   1  18
BRANCH   8  22
ATOM     22  O   UNL     1       5.262  -5.630  -8.308  0.00  0.00    -0.506 OA
ATOM     23  H   UNL     1       6.111  -5.966  -7.988  0.00  0.00    +0.292 HD
ENDBRANCH   8  22
TORSDOF 4
