REMARK  Name = ZINC06198278
REMARK  11 active torsions:
REMARK  status: ('A' for Active; 'I' for Inactive)
REMARK    1  A    between atoms: C_1  and  C_2
REMARK    2  A    between atoms: C_2  and  C_3
REMARK    3  A    between atoms: C_10  and  C_15
REMARK    4  A    between atoms: C_15  and  C_17
REMARK    5  A    between atoms: C_15  and  N_71
REMARK    6  A    between atoms: N_21  and  C_22
REMARK    7  A    between atoms: C_22  and  C_23
REMARK    8  A    between atoms: C_29  and  C_30
REMARK    9  A    between atoms: C_29  and  N_71
REMARK   10  A    between atoms: C_36  and  C_37
REMARK   11  A    between atoms: C_36  and  N_71
REMARK                            x       y       z     vdW  Elec       q    Type
REMARK                         _______ _______ _______ _____ _____    ______ ____
ROOT
ATOM      1  C   UNL     1       2.525   4.964   2.561  0.00  0.00    +0.040 C 
ENDROOT
BRANCH   1   9
ATOM      2  C   UNL     1       5.380  10.134   0.716  0.00  0.00    -0.047 A 
ATOM      3  C   UNL     1       4.417  11.019   1.181  0.00  0.00    +0.005 A 
ATOM      4  C   UNL     1       3.285  10.556   1.818  0.00  0.00    +0.026 A 
ATOM      5  C   UNL     1       3.105   9.188   1.997  0.00  0.00    +0.049 A 
ATOM      6  C   UNL     1       4.085   8.294   1.524  0.00  0.00    -0.001 A 
ATOM      7  C   UNL     1       5.225   8.787   0.880  0.00  0.00    +0.013 A 
ATOM      8  C   UNL     1       3.886   6.857   1.716  0.00  0.00    +0.017 A 
ATOM      9  C   UNL     1       2.761   6.437   2.346  0.00  0.00    +0.011 A 
ATOM     10  C   UNL     1       1.807   7.375   2.797  0.00  0.00    +0.251 A 
ATOM     11  O   UNL     1       0.800   6.976   3.357  0.00  0.00    -0.268 OA
ATOM     12  N   UNL     1       1.983   8.697   2.629  0.00  0.00    -0.322 N 
ATOM     13  H   UNL     1       1.290   9.334   2.968  0.00  0.00    +0.169 HD
BRANCH   2  15
ATOM     14  C   UNL     1       6.341  10.769  -1.480  0.00  0.00    +0.009 C 
ATOM     15  C   UNL     1       6.609  10.665   0.022  0.00  0.00    +0.032 C 
ENDBRANCH   2  15
ENDBRANCH   1   9
BRANCH   1  16
ATOM     16  C   UNL     1       1.247   4.555   1.875  0.00  0.00    +0.143 A 
ATOM     17  N   UNL     1       0.026   4.791   2.290  0.00  0.00    -0.115 NA
ATOM     18  N   UNL     1      -0.791   4.283   1.433  0.00  0.00    -0.023 NA
ATOM     19  N   UNL     1      -0.123   3.733   0.480  0.00  0.00    -0.044 NA
ATOM     20  N   UNL     1       1.137   3.875   0.719  0.00  0.00    -0.228 N 
BRANCH  20  21
ATOM     21  C   UNL     1       2.241   3.392  -0.114  0.00  0.00    +0.178 C 
BRANCH  21  22
ATOM     22  C   UNL     1       2.537   1.930   0.228  0.00  0.00    +0.140 C 
ATOM     23  C   UNL     1       3.701   1.391  -0.641  0.00  0.00    +0.035 C 
ATOM     24  C   UNL     1       3.429  -0.133  -0.638  0.00  0.00    +0.031 C 
ATOM     25  C   UNL     1       1.936  -0.250  -0.273  0.00  0.00    +0.160 C 
ATOM     26  O   UNL     1       1.424   1.087  -0.139  0.00  0.00    -0.375 OA
ENDBRANCH  21  22
ENDBRANCH  20  21
ENDBRANCH   1  16
BRANCH   1  27
ATOM     27  N   UNL     1       2.396   4.704   4.010  0.00  0.00    +0.397 N 
ATOM     28  H   UNL     1       1.585   5.220   4.371  0.00  0.00    -0.079 HD
BRANCH  27  29
ATOM     29  C   UNL     1       2.191   3.260   4.248  0.00  0.00    -0.041 C 
BRANCH  29  30
ATOM     30  C   UNL     1       0.737   2.936   4.015  0.00  0.00    -0.064 A 
ATOM     31  C   UNL     1      -0.229   3.447   4.861  0.00  0.00    +0.002 A 
ATOM     32  C   UNL     1      -1.563   3.153   4.644  0.00  0.00    +0.000 A 
ATOM     33  C   UNL     1      -1.928   2.340   3.587  0.00  0.00    +0.000 A 
ATOM     34  C   UNL     1      -0.961   1.824   2.745  0.00  0.00    +0.000 A 
ATOM     35  C   UNL     1       0.372   2.122   2.958  0.00  0.00    +0.002 A 
ENDBRANCH  29  30
ENDBRANCH  27  29
BRANCH  27  36
ATOM     36  C   UNL     1       3.611   5.165   4.716  0.00  0.00    -0.001 C 
BRANCH  36  37
ATOM     37  C   UNL     1       3.440   6.621   5.065  0.00  0.00    +0.089 A 
ATOM     38  C   UNL     1       2.783   7.101   6.135  0.00  0.00    +0.042 A 
ATOM     39  C   UNL     1       2.873   8.511   6.072  0.00  0.00    +0.041 A 
ATOM     40  C   UNL     1       3.573   8.807   4.962  0.00  0.00    +0.195 A 
ATOM     41  O   UNL     1       3.914   7.659   4.356  0.00  0.00    -0.470 OA
ENDBRANCH  36  37
ENDBRANCH  27  36
ENDBRANCH   1  27
TORSDOF 10
