REMARK  Name = ZINC35743626
REMARK  13 active torsions:
REMARK  status: ('A' for Active; 'I' for Inactive)
REMARK    1  A    between atoms: C_1  and  C_2
REMARK    2  A    between atoms: C_7  and  O_8
REMARK    3  A    between atoms: O_8  and  C_9
REMARK    4  A    between atoms: C_9  and  C_10
REMARK    5  A    between atoms: C_10  and  C_12
REMARK    6  A    between atoms: C_10  and  O_39
REMARK    7  A    between atoms: C_12  and  N_13
REMARK    8  A    between atoms: N_13  and  C_14
REMARK    9  A    between atoms: N_13  and  C_21
REMARK   10  A    between atoms: C_14  and  C_15
REMARK   11  A    between atoms: C_21  and  C_22
REMARK   12  A    between atoms: C_23  and  C_33
REMARK   13  A    between atoms: C_26  and  N_27
REMARK                            x       y       z     vdW  Elec       q    Type
REMARK                         _______ _______ _______ _____ _____    ______ ____
ROOT
ATOM      1  N   UNL     1       0.104   1.260   7.503  0.00  0.00    +0.387 N 
ATOM      2  H   UNL     1      -0.521   1.935   7.918  0.00  0.00    -0.081 HD
ENDROOT
BRANCH   1   3
ATOM      3  C   UNL     1      -0.510   0.707   6.288  0.00  0.00    -0.043 C 
BRANCH   3   4
ATOM      4  C   UNL     1      -1.156   1.837   5.484  0.00  0.00    +0.135 C 
BRANCH   4   5
ATOM      5  O   UNL     1      -2.106   2.522   6.303  0.00  0.00    -0.390 OA
ATOM      6  H   UNL     1      -2.821   1.959   6.631  0.00  0.00    +0.210 HD
ENDBRANCH   4   5
BRANCH   4   7
ATOM      7  C   UNL     1      -1.866   1.251   4.262  0.00  0.00    +0.258 C 
BRANCH   7   8
ATOM      8  O   UNL     1      -2.370   2.313   3.449  0.00  0.00    -0.489 OA
BRANCH   8  15
ATOM      9  C   UNL     1      -3.374   4.397   1.829  0.00  0.00    +0.047 C 
ATOM     10  C   UNL     1      -3.548   2.941   1.480  0.00  0.00    -0.009 A 
ATOM     11  C   UNL     1      -4.215   2.581   0.325  0.00  0.00    +0.007 A 
ATOM     12  C   UNL     1      -4.375   1.246   0.005  0.00  0.00    +0.000 A 
ATOM     13  C   UNL     1      -3.867   0.267   0.840  0.00  0.00    +0.004 A 
ATOM     14  C   UNL     1      -3.198   0.622   1.995  0.00  0.00    +0.046 A 
ATOM     15  C   UNL     1      -3.032   1.961   2.316  0.00  0.00    +0.124 A 
ENDBRANCH   8  15
ENDBRANCH   7   8
ENDBRANCH   4   7
ENDBRANCH   3   4
ENDBRANCH   1   3
BRANCH   1  16
ATOM     16  C   UNL     1       1.372   1.915   7.157  0.00  0.00    -0.042 C 
BRANCH  16  17
ATOM     17  C   UNL     1       1.093   3.148   6.336  0.00  0.00    -0.064 A 
ATOM     18  C   UNL     1       1.569   3.238   5.041  0.00  0.00    +0.002 A 
ATOM     19  C   UNL     1       1.313   4.369   4.288  0.00  0.00    +0.000 A 
ATOM     20  C   UNL     1       0.581   5.409   4.829  0.00  0.00    +0.000 A 
ATOM     21  C   UNL     1       0.104   5.318   6.124  0.00  0.00    +0.000 A 
ATOM     22  C   UNL     1       0.356   4.186   6.875  0.00  0.00    +0.002 A 
ENDBRANCH  16  17
ENDBRANCH   1  16
BRANCH   1  23
ATOM     23  C   UNL     1       0.358   0.175   8.461  0.00  0.00    -0.035 C 
BRANCH  23  24
ATOM     24  C   UNL     1       0.873   0.756   9.753  0.00  0.00    +0.025 A 
ATOM     25  C   UNL     1       2.227   0.869  10.130  0.00  0.00    +0.117 A 
ATOM     26  N   UNL     1       2.271   1.424  11.319  0.00  0.00    -0.076 NA
ATOM     27  O   UNL     1       0.941   1.681  11.732  0.00  0.00    -0.339 OA
ATOM     28  C   UNL     1       0.115   1.268  10.755  0.00  0.00    +0.222 A 
BRANCH  28  29
ATOM     29  N   UNL     1      -1.265   1.349  10.771  0.00  0.00    -0.295 N 
ATOM     30  C   UNL     1      -2.078   0.303  11.412  0.00  0.00    +0.136 C 
ATOM     31  C   UNL     1      -3.071   0.978  12.365  0.00  0.00    +0.179 C 
ATOM     32  O   UNL     1      -3.786   1.993  11.657  0.00  0.00    -0.377 OA
ATOM     33  C   UNL     1      -2.963   3.052  11.162  0.00  0.00    +0.179 C 
ATOM     34  C   UNL     1      -1.965   2.486  10.152  0.00  0.00    +0.136 C 
ENDBRANCH  28  29
BRANCH  25  35
ATOM     35  C   UNL     1       3.397   0.435   9.325  0.00  0.00    +0.004 A 
ATOM     36  C   UNL     1       3.370  -0.785   8.653  0.00  0.00    +0.010 A 
ATOM     37  C   UNL     1       4.460  -1.183   7.906  0.00  0.00    +0.001 A 
ATOM     38  C   UNL     1       5.578  -0.372   7.823  0.00  0.00    +0.000 A 
ATOM     39  C   UNL     1       5.610   0.840   8.488  0.00  0.00    +0.001 A 
ATOM     40  C   UNL     1       4.524   1.250   9.234  0.00  0.00    +0.010 A 
ENDBRANCH  25  35
ENDBRANCH  23  24
ENDBRANCH   1  23
TORSDOF 12
