REMARK  Name = ZINC12637953
REMARK  11 active torsions:
REMARK  status: ('A' for Active; 'I' for Inactive)
REMARK    1  A    between atoms: C_1  and  C_2
REMARK    2  A    between atoms: C_5  and  N_9
REMARK    3  A    between atoms: C_6  and  C_8
REMARK    4  A    between atoms: N_9  and  C_10
REMARK    5  A    between atoms: C_10  and  C_12
REMARK    6  A    between atoms: C_10  and  C_21
REMARK    7  A    between atoms: C_15  and  O_20
REMARK    8  A    between atoms: C_16  and  O_18
REMARK    9  A    between atoms: O_18  and  C_19
REMARK   10  A    between atoms: N_23  and  C_24
REMARK   11  A    between atoms: C_29  and  C_31
REMARK                            x       y       z     vdW  Elec       q    Type
REMARK                         _______ _______ _______ _____ _____    ______ ____
ROOT
ATOM      1  N   UNL     1       3.620  -2.082   0.209  0.00  0.00    -0.251 N 
ATOM      2  C   UNL     1       3.643  -0.775   0.536  0.00  0.00    +0.252 C 
ATOM      3  O   UNL     1       4.646  -0.116   0.339  0.00  0.00    -0.270 OA
ENDROOT
BRANCH   2   4
ATOM      4  C   UNL     1       2.450  -0.143   1.133  0.00  0.00    +0.041 A 
ATOM      5  C   UNL     1       1.595  -0.889   1.947  0.00  0.00    +0.017 A 
ATOM      6  C   UNL     1       0.482  -0.297   2.502  0.00  0.00    +0.050 A 
ATOM      7  C   UNL     1       0.205   1.043   2.255  0.00  0.00    +0.162 A 
ATOM      8  C   UNL     1       1.055   1.793   1.447  0.00  0.00    +0.163 A 
ATOM      9  C   UNL     1       2.173   1.204   0.886  0.00  0.00    +0.062 A 
ATOM     10  O   UNL     1       0.803   3.109   1.203  0.00  0.00    -0.485 OA
ATOM     11  C   UNL     1      -0.525   3.570   1.476  0.00  0.00    +0.270 C 
ATOM     12  C   UNL     1      -0.946   3.035   2.851  0.00  0.00    +0.270 C 
ATOM     13  O   UNL     1      -0.904   1.604   2.807  0.00  0.00    -0.485 OA
ENDBRANCH   2   4
BRANCH   1  18
ATOM     14  C   UNL     1      -1.129  -5.103   0.917  0.00  0.00    +0.044 C 
ATOM     15  C   UNL     1       0.132  -4.300   0.729  0.00  0.00    -0.050 A 
ATOM     16  C   UNL     1       1.218  -4.518   1.557  0.00  0.00    +0.005 A 
ATOM     17  C   UNL     1       2.378  -3.788   1.384  0.00  0.00    +0.024 A 
ATOM     18  C   UNL     1       2.449  -2.827   0.384  0.00  0.00    +0.041 A 
ATOM     19  C   UNL     1       1.357  -2.610  -0.446  0.00  0.00    -0.029 A 
ATOM     20  C   UNL     1       0.202  -3.347  -0.271  0.00  0.00    +0.008 A 
ATOM     21  C   UNL     1       1.431  -1.572  -1.535  0.00  0.00    +0.045 C 
ENDBRANCH   1  18
BRANCH   1  22
ATOM     22  C   UNL     1       4.822  -2.724  -0.329  0.00  0.00    +0.198 C 
BRANCH  22  23
ATOM     23  C   UNL     1       4.579  -4.204  -0.476  0.00  0.00    -0.014 A 
ATOM     24  C   UNL     1       3.535  -4.657  -1.261  0.00  0.00    +0.010 A 
ATOM     25  C   UNL     1       3.308  -6.013  -1.400  0.00  0.00    +0.049 A 
ATOM     26  C   UNL     1       4.128  -6.923  -0.750  0.00  0.00    +0.158 A 
ATOM     27  C   UNL     1       5.178  -6.467   0.040  0.00  0.00    +0.162 A 
ATOM     28  C   UNL     1       5.404  -5.106   0.170  0.00  0.00    +0.055 A 
BRANCH  27  29
ATOM     29  O   UNL     1       5.986  -7.355   0.679  0.00  0.00    -0.491 OA
ATOM     30  C   UNL     1       7.044  -6.816   1.474  0.00  0.00    +0.277 C 
ENDBRANCH  27  29
BRANCH  26  31
ATOM     31  O   UNL     1       3.906  -8.257  -0.886  0.00  0.00    -0.503 OA
ATOM     32  H   UNL     1       4.378  -8.662  -1.627  0.00  0.00    +0.292 HD
ENDBRANCH  26  31
ENDBRANCH  22  23
BRANCH  22  33
ATOM     33  C   UNL     1       5.147  -2.132  -1.676  0.00  0.00    +0.239 C 
ATOM     34  O   UNL     1       4.444  -1.260  -2.141  0.00  0.00    -0.273 OA
ATOM     35  N   UNL     1       6.219  -2.571  -2.364  0.00  0.00    -0.311 N 
ATOM     36  H   UNL     1       6.782  -3.269  -1.992  0.00  0.00    +0.149 HD
BRANCH  35  37
ATOM     37  C   UNL     1       6.535  -1.996  -3.674  0.00  0.00    +0.073 C 
ATOM     38  C   UNL     1       5.782  -2.761  -4.782  0.00  0.00    +0.022 C 
ATOM     39  C   UNL     1       6.784  -2.802  -5.963  0.00  0.00    +0.002 C 
ATOM     40  C   UNL     1       8.144  -3.011  -5.250  0.00  0.00    +0.002 C 
ATOM     41  C   UNL     1       8.036  -2.155  -3.972  0.00  0.00    +0.022 C 
ENDBRANCH  35  37
ENDBRANCH  22  33
ENDBRANCH   1  22
TORSDOF 8
