REMARK  Name = ZINC32560874
REMARK  10 active torsions:
REMARK  status: ('A' for Active; 'I' for Inactive)
REMARK    1  A    between atoms: C_1  and  C_2
REMARK    2  A    between atoms: C_5  and  N_9
REMARK    3  A    between atoms: C_6  and  C_8
REMARK    4  A    between atoms: C_22  and  S_23
REMARK    5  A    between atoms: S_23  and  C_24
REMARK    6  A    between atoms: C_24  and  C_26
REMARK    7  A    between atoms: C_24  and  C_27
REMARK    8  A    between atoms: N_29  and  C_30
REMARK    9  A    between atoms: C_30  and  C_31
REMARK   10  A    between atoms: C_30  and  C_32
REMARK                            x       y       z     vdW  Elec       q    Type
REMARK                         _______ _______ _______ _____ _____    ______ ____
ROOT
ATOM      1  N   UNL     1       3.593   3.505  -0.014  0.00  0.00    -0.245 N 
ATOM      2  C   UNL     1       3.652   2.157  -0.022  0.00  0.00    +0.268 A 
ATOM      3  O   UNL     1       4.726   1.586  -0.036  0.00  0.00    -0.267 OA
ATOM      4  C   UNL     1       2.395   1.387  -0.013  0.00  0.00    +0.064 A 
ATOM      5  C   UNL     1       2.401  -0.007  -0.021  0.00  0.00    +0.015 A 
ATOM      6  C   UNL     1       1.205  -0.693  -0.014  0.00  0.00    +0.001 A 
ATOM      7  C   UNL     1       0.002  -0.004   0.002  0.00  0.00    +0.002 A 
ATOM      8  C   UNL     1      -0.017   1.377   0.010  0.00  0.00    +0.027 A 
ATOM      9  C   UNL     1       1.176   2.084   0.002  0.00  0.00    +0.064 A 
ATOM     10  N   UNL     1       1.191   3.473   0.010  0.00  0.00    -0.255 N 
ATOM     11  C   UNL     1       2.374   4.164   0.002  0.00  0.00    +0.245 A 
ATOM     12  N   UNL     1       2.069   5.440   0.012  0.00  0.00    -0.109 NA
ATOM     13  N   UNL     1       0.793   5.590   0.026  0.00  0.00    -0.120 NA
ATOM     14  C   UNL     1       0.202   4.419   0.025  0.00  0.00    +0.198 A 
ENDROOT
BRANCH   1  19
ATOM     15  C   UNL     1       8.403   6.514  -0.046  0.00  0.00    +0.044 C 
ATOM     16  C   UNL     1       7.125   5.715  -0.037  0.00  0.00    -0.050 A 
ATOM     17  C   UNL     1       6.528   5.355  -1.232  0.00  0.00    +0.005 A 
ATOM     18  C   UNL     1       5.361   4.618  -1.228  0.00  0.00    +0.027 A 
ATOM     19  C   UNL     1       4.780   4.247  -0.022  0.00  0.00    +0.056 A 
ATOM     20  C   UNL     1       5.381   4.610   1.176  0.00  0.00    -0.026 A 
ATOM     21  C   UNL     1       6.552   5.343   1.165  0.00  0.00    +0.008 A 
ATOM     22  C   UNL     1       4.758   4.205   2.486  0.00  0.00    +0.046 C 
ENDBRANCH   1  19
BRANCH  14  23
ATOM     23  S   UNL     1      -1.535   4.121   0.040  0.00  0.00    -0.073 S 
BRANCH  23  24
ATOM     24  C   UNL     1      -2.265   5.782   0.057  0.00  0.00    +0.137 C 
ATOM     25  C   UNL     1      -1.925   6.501  -1.250  0.00  0.00    +0.029 C 
BRANCH  24  26
ATOM     26  C   UNL     1      -3.762   5.671   0.194  0.00  0.00    +0.226 C 
ATOM     27  O   UNL     1      -4.321   4.632  -0.086  0.00  0.00    -0.275 OA
ATOM     28  N   UNL     1      -4.478   6.727   0.628  0.00  0.00    -0.312 N 
ATOM     29  H   UNL     1      -3.971   7.669   0.882  0.00  0.00    +0.149 HD
BRANCH  28  30
ATOM     30  C   UNL     1      -5.933   6.619   0.762  0.00  0.00    +0.067 C 
ATOM     31  C   UNL     1      -6.277   6.013   2.124  0.00  0.00    +0.027 C 
ATOM     32  C   UNL     1      -6.560   8.011   0.651  0.00  0.00    +0.027 C 
ENDBRANCH  28  30
ENDBRANCH  24  26
ENDBRANCH  23  24
ENDBRANCH  14  23
TORSDOF 5
