REMARK  Name = ZINC63187713
REMARK  7 active torsions:
REMARK  status: ('A' for Active; 'I' for Inactive)
REMARK    1  A    between atoms: C_7  and  C_10
REMARK    2  A    between atoms: C_10  and  C_11
REMARK    3  A    between atoms: C_11  and  N_12
REMARK    4  A    between atoms: C_13  and  C_15
REMARK    5  A    between atoms: C_15  and  N_16
REMARK    6  A    between atoms: N_19  and  C_22
REMARK    7  A    between atoms: C_22  and  C_23
REMARK                            x       y       z     vdW  Elec       q    Type
REMARK                         _______ _______ _______ _____ _____    ______ ____
ROOT
ATOM      1  N   UNL     1      -1.976  -7.006  -4.002  0.00  0.00    -0.292 NA
ATOM      2  C   UNL     1      -2.698  -5.987  -4.777  0.00  0.00    +0.100 C 
ATOM      3  C   UNL     1      -2.842  -6.458  -6.226  0.00  0.00    +0.100 C 
ATOM      4  N   UNL     1      -3.558  -7.741  -6.252  0.00  0.00    -0.295 NA
ATOM      5  C   UNL     1      -2.837  -8.761  -5.478  0.00  0.00    +0.100 C 
ATOM      6  C   UNL     1      -2.693  -8.289  -4.029  0.00  0.00    +0.100 C 
ENDROOT
BRANCH   1   7
ATOM      7  C   UNL     1      -1.752  -6.557  -2.622  0.00  0.00    +0.180 C 
BRANCH   7   9
ATOM      8  N   UNL     1      -0.458  -4.798  -1.460  0.00  0.00    -0.314 N 
ATOM      9  C   UNL     1      -0.811  -5.380  -2.623  0.00  0.00    +0.227 C 
ATOM     10  O   UNL     1      -0.371  -4.957  -3.671  0.00  0.00    -0.274 OA
ATOM     11  H   UNL     1      -0.810  -5.136  -0.622  0.00  0.00    +0.149 HD
BRANCH   8  12
ATOM     12  C   UNL     1       0.457  -3.653  -1.462  0.00  0.00    +0.108 C 
BRANCH  12  13
ATOM     13  C   UNL     1       0.691  -3.186  -0.024  0.00  0.00    +0.052 C 
BRANCH  13  20
ATOM     14  C   UNL     1      -0.016   1.348   0.009  0.00  0.00    +0.001 A 
ATOM     15  C   UNL     1       1.166   2.101   0.002  0.00  0.00    +0.002 A 
ATOM     16  C   UNL     1       2.391   1.535  -0.013  0.00  0.00    +0.026 A 
ATOM     17  C   UNL     1       2.529   0.120  -0.022  0.00  0.00    +0.043 A 
ATOM     18  N   UNL     1       3.587  -0.654  -0.037  0.00  0.00    -0.380 N 
ATOM     19  C   UNL     1       3.143  -2.053  -0.041  0.00  0.00    +0.144 C 
ATOM     20  C   UNL     1       1.631  -2.008  -0.025  0.00  0.00    -0.040 C 
ATOM     21  C   UNL     1       1.295  -0.698  -0.014  0.00  0.00    -0.001 A 
ATOM     22  C   UNL     1       0.002  -0.004   0.002  0.00  0.00    +0.010 A 
ATOM     23  H   UNL     1       4.509  -0.353  -0.045  0.00  0.00    +0.160 HD
ENDBRANCH  13  20
ENDBRANCH  12  13
ENDBRANCH   8  12
ENDBRANCH   7   9
ENDBRANCH   1   7
BRANCH   4  24
ATOM     24  C   UNL     1      -3.783  -8.190  -7.633  0.00  0.00    +0.135 C 
BRANCH  24  25
ATOM     25  C   UNL     1      -4.724  -9.367  -7.631  0.00  0.00    +0.025 C 
ATOM     26  N   UNL     1      -4.346 -10.551  -7.042  0.00  0.00    -0.319 N 
ATOM     27  C   UNL     1      -5.405 -11.388  -6.462  0.00  0.00    +0.230 C 
ATOM     28  N   UNL     1      -6.493 -11.463  -7.482  0.00  0.00    -0.245 N 
ATOM     29  C   UNL     1      -7.028 -12.731  -7.621  0.00  0.00    +0.088 C 
ATOM     30  C   UNL     1      -6.366 -13.813  -7.225  0.00  0.00    +0.059 C 
ATOM     31  S   UNL     1      -4.860 -13.146  -6.468  0.00  0.00    -0.090 S 
ATOM     32  C   UNL     1      -6.830 -10.365  -8.209  0.00  0.00    +0.247 C 
ATOM     33  O   UNL     1      -7.869 -10.330  -8.845  0.00  0.00    -0.270 OA
ATOM     34  C   UNL     1      -5.942  -9.261  -8.203  0.00  0.00    +0.087 C 
ATOM     35  H   UNL     1      -3.416 -10.824  -7.012  0.00  0.00    +0.148 HD
ENDBRANCH  24  25
ENDBRANCH   4  24
TORSDOF 7
