REMARK  Name = ZINC14752379
REMARK  9 active torsions:
REMARK  status: ('A' for Active; 'I' for Inactive)
REMARK    1  A    between atoms: C_1  and  O_2
REMARK    2  A    between atoms: O_2  and  C_3
REMARK    3  A    between atoms: C_7  and  O_35
REMARK    4  A    between atoms: C_8  and  C_9
REMARK    5  A    between atoms: C_9  and  N_66
REMARK    6  A    between atoms: C_15  and  C_23
REMARK    7  A    between atoms: N_18  and  C_19
REMARK    8  A    between atoms: C_19  and  C_20
REMARK    9  A    between atoms: C_27  and  N_29
REMARK                            x       y       z     vdW  Elec       q    Type
REMARK                         _______ _______ _______ _____ _____    ______ ____
ROOT
ATOM      1  C   UNL     1      -1.871  -0.939   4.045  0.00  0.00    -0.072 C 
ATOM      2  C   UNL     1      -1.369  -0.169   2.824  0.00  0.00    +0.035 C 
ATOM      3  C   UNL     1      -2.452  -0.097   1.775  0.00  0.00    +0.022 A 
ATOM      4  C   UNL     1      -3.519  -0.926   1.796  0.00  0.00    -0.044 A 
ATOM      5  C   UNL     1      -4.494  -0.837   0.789  0.00  0.00    +0.017 A 
ATOM      6  C   UNL     1      -4.355   0.104  -0.215  0.00  0.00    +0.047 A 
ATOM      7  C   UNL     1      -3.227   0.961  -0.192  0.00  0.00    +0.259 A 
ATOM      8  O   UNL     1      -3.081   1.805  -1.060  0.00  0.00    -0.267 OA
ATOM      9  N   UNL     1      -2.317   0.835   0.788  0.00  0.00    -0.311 N 
ATOM     10  C   UNL     1      -3.714  -1.956   2.878  0.00  0.00    -0.041 C 
ATOM     11  N   UNL     1      -2.441  -2.214   3.568  0.00  0.00    +0.386 N 
ATOM     12  H   UNL     1      -1.784  -2.650   2.910  0.00  0.00    -0.081 HD
ENDROOT
BRANCH   6  13
ATOM     13  C   UNL     1      -5.368   0.217  -1.290  0.00  0.00    -0.011 A 
ATOM     14  C   UNL     1      -6.137   1.375  -1.408  0.00  0.00    +0.009 A 
ATOM     15  C   UNL     1      -7.080   1.478  -2.410  0.00  0.00    +0.003 A 
ATOM     16  C   UNL     1      -7.267   0.436  -3.299  0.00  0.00    +0.028 A 
ATOM     17  C   UNL     1      -6.505  -0.721  -3.190  0.00  0.00    +0.066 A 
ATOM     18  C   UNL     1      -5.551  -0.831  -2.190  0.00  0.00    +0.036 A 
BRANCH  17  19
ATOM     19  N   UNL     1      -6.698  -1.775  -4.095  0.00  0.00    -0.240 N 
ATOM     20  C   UNL     1      -7.521  -1.762  -5.167  0.00  0.00    +0.114 A 
ATOM     21  C   UNL     1      -7.417  -2.965  -5.780  0.00  0.00    +0.041 A 
ATOM     22  C   UNL     1      -6.507  -3.741  -5.053  0.00  0.00    +0.135 A 
ATOM     23  N   UNL     1      -6.076  -3.029  -4.043  0.00  0.00    -0.175 NA
ENDBRANCH  17  19
ENDBRANCH   6  13
BRANCH  11  24
ATOM     24  C   UNL     1      -2.660  -3.132   4.710  0.00  0.00    -0.035 C 
BRANCH  24  30
ATOM     25  C   UNL     1      -2.951  -1.734   6.770  0.00  0.00    +0.125 A 
ATOM     26  C   UNL     1      -3.754  -1.123   7.723  0.00  0.00    +0.046 A 
ATOM     27  C   UNL     1      -5.128  -1.260   7.662  0.00  0.00    +0.007 A 
ATOM     28  C   UNL     1      -5.706  -2.000   6.648  0.00  0.00    +0.046 A 
ATOM     29  C   UNL     1      -4.908  -2.609   5.690  0.00  0.00    +0.122 A 
ATOM     30  C   UNL     1      -3.529  -2.473   5.749  0.00  0.00    +0.019 A 
BRANCH  25  32
ATOM     31  C   UNL     1      -1.074  -0.828   7.913  0.00  0.00    +0.277 C 
ATOM     32  O   UNL     1      -1.600  -1.604   6.835  0.00  0.00    -0.495 OA
ENDBRANCH  25  32
BRANCH  29  33
ATOM     33  O   UNL     1      -5.477  -3.337   4.693  0.00  0.00    -0.506 OA
ATOM     34  H   UNL     1      -5.591  -4.273   4.906  0.00  0.00    +0.292 HD
ENDBRANCH  29  33
ENDBRANCH  24  30
ENDBRANCH  11  24
BRANCH   9  35
ATOM     35  C   UNL     1      -1.154   1.726   0.801  0.00  0.00    +0.128 C 
BRANCH  35  36
ATOM     36  C   UNL     1      -0.013   1.086   0.008  0.00  0.00    +0.009 C 
ATOM     37  C   UNL     1       0.460   1.806  -1.256  0.00  0.00    +0.005 C 
ATOM     38  C   UNL     1       1.335   1.811  -0.001  0.00  0.00    +0.005 C 
ENDBRANCH  35  36
ENDBRANCH   9  35
TORSDOF 8
