REMARK  Name = ZINC05556228
REMARK  3 active torsions:
REMARK  status: ('A' for Active; 'I' for Inactive)
REMARK    1  A    between atoms: C_2  and  C_3
REMARK    2  A    between atoms: C_3  and  N_4
REMARK    3  A    between atoms: C_5  and  C_20
REMARK                            x       y       z     vdW  Elec       q    Type
REMARK                         _______ _______ _______ _____ _____    ______ ____
ROOT
ATOM      1  N   UNL     1       3.223  -2.067  -0.040  0.00  0.00    -0.280 N 
ATOM      2  C   UNL     1       1.755  -2.086  -0.026  0.00  0.00    +0.145 C 
ATOM      3  C   UNL     1       1.321  -0.644  -0.014  0.00  0.00    +0.072 A 
ATOM      4  C   UNL     1       0.002  -0.004   0.002  0.00  0.00    +0.199 A 
ATOM      5  O   UNL     1      -1.026  -0.658   0.008  0.00  0.00    -0.287 OA
ATOM      6  C   UNL     1      -0.018   1.472   0.010  0.00  0.00    +0.064 A 
ATOM      7  C   UNL     1      -1.216   2.183   0.020  0.00  0.00    +0.015 A 
ATOM      8  C   UNL     1      -1.191   3.551   0.033  0.00  0.00    +0.001 A 
ATOM      9  C   UNL     1       0.019   4.230   0.024  0.00  0.00    +0.004 A 
ATOM     10  C   UNL     1       1.214   3.543   0.009  0.00  0.00    +0.047 A 
ATOM     11  C   UNL     1       1.213   2.151   0.002  0.00  0.00    +0.139 A 
ATOM     12  O   UNL     1       2.370   1.465  -0.013  0.00  0.00    -0.450 OA
ATOM     13  C   UNL     1       2.441   0.119  -0.021  0.00  0.00    +0.199 A 
ATOM     14  C   UNL     1       3.620  -0.782  -0.037  0.00  0.00    +0.283 C 
ATOM     15  O   UNL     1       4.777  -0.413  -0.046  0.00  0.00    -0.267 OA
ENDROOT
BRANCH   2  16
ATOM     16  C   UNL     1       1.234  -2.775  -1.260  0.00  0.00    -0.022 A 
ATOM     17  C   UNL     1       1.864  -2.586  -2.476  0.00  0.00    +0.007 A 
ATOM     18  C   UNL     1       1.390  -3.222  -3.608  0.00  0.00    +0.020 A 
ATOM     19  C   UNL     1       0.277  -4.040  -3.526  0.00  0.00    +0.041 A 
ATOM     20  C   UNL     1      -0.357  -4.225  -2.310  0.00  0.00    +0.020 A 
ATOM     21  C   UNL     1       0.122  -3.593  -1.178  0.00  0.00    +0.007 A 
ATOM     22 CL   UNL     1      -0.324  -4.833  -4.948  0.00  0.00    -0.084 Cl
ENDBRANCH   2  16
BRANCH   1  23
ATOM     23  C   UNL     1       4.101  -3.240  -0.054  0.00  0.00    +0.136 C 
BRANCH  23  25
ATOM     24  C   UNL     1       5.627  -3.742  -1.893  0.00  0.00    +0.005 C 
ATOM     25  C   UNL     1       4.388  -3.634  -1.480  0.00  0.00    -0.016 C 
ENDBRANCH  23  25
ENDBRANCH   1  23
TORSDOF 3
