REMARK  Name = ZINC63165648
REMARK  12 active torsions:
REMARK  status: ('A' for Active; 'I' for Inactive)
REMARK    1  A    between atoms: C_1  and  C_2
REMARK    2  A    between atoms: C_5  and  C_33
REMARK    3  A    between atoms: C_6  and  O_9
REMARK    4  A    between atoms: C_7  and  C_8
REMARK    5  A    between atoms: O_9  and  C_10
REMARK    6  A    between atoms: C_10  and  C_11
REMARK    7  A    between atoms: C_11  and  C_13
REMARK    8  A    between atoms: C_11  and  O_32
REMARK    9  A    between atoms: C_13  and  S_14
REMARK   10  A    between atoms: S_14  and  C_15
REMARK   11  A    between atoms: C_18  and  C_23
REMARK   12  A    between atoms: N_19  and  C_20
REMARK                            x       y       z     vdW  Elec       q    Type
REMARK                         _______ _______ _______ _____ _____    ______ ____
ROOT
ATOM      1  C   UNL     1       3.958  -5.567   6.860  0.00  0.00    +0.192 A 
ATOM      2  N   UNL     1       5.062  -5.263   6.194  0.00  0.00    -0.122 NA
ATOM      3  N   UNL     1       6.045  -5.973   6.620  0.00  0.00    -0.129 NA
ATOM      4  C   UNL     1       5.630  -6.779   7.586  0.00  0.00    +0.163 A 
ATOM      5  N   UNL     1       4.280  -6.531   7.765  0.00  0.00    -0.299 N 
ENDROOT
BRANCH   4   6
ATOM      6  C   UNL     1       6.411  -7.704   8.297  0.00  0.00    +0.025 C 
ATOM      7  C   UNL     1       7.773  -7.957   8.136  0.00  0.00    +0.006 A 
ATOM      8  C   UNL     1       8.748  -7.412   7.273  0.00  0.00    +0.010 A 
ATOM      9  C   UNL     1      10.029  -7.859   7.337  0.00  0.00    +0.001 A 
ATOM     10  C   UNL     1      10.413  -8.853   8.240  0.00  0.00    +0.002 A 
ATOM     11  C   UNL     1       9.529  -9.420   9.097  0.00  0.00    +0.026 A 
ATOM     12  C   UNL     1       8.172  -9.004   9.090  0.00  0.00    +0.043 A 
ATOM     13  N   UNL     1       7.137  -9.392   9.809  0.00  0.00    -0.380 N 
ATOM     14  C   UNL     1       5.953  -8.630   9.402  0.00  0.00    +0.152 C 
ATOM     15  H   UNL     1       7.158 -10.070  10.502  0.00  0.00    +0.160 HD
ENDBRANCH   4   6
BRANCH   5  16
ATOM     16  C   UNL     1       3.383  -7.175   8.728  0.00  0.00    +0.091 C 
ATOM     17  C   UNL     1       1.877  -7.041   8.490  0.00  0.00    +0.027 C 
ATOM     18  C   UNL     1       2.544  -6.267   9.629  0.00  0.00    +0.027 C 
ENDBRANCH   5  16
BRANCH   1  19
ATOM     19  S   UNL     1       2.366  -4.850   6.622  0.00  0.00    -0.083 S 
BRANCH  19  20
ATOM     20  C   UNL     1       2.620  -3.651   5.285  0.00  0.00    +0.112 C 
BRANCH  20  21
ATOM     21  C   UNL     1       1.298  -2.947   4.973  0.00  0.00    +0.162 C 
BRANCH  21  22
ATOM     22  O   UNL     1       0.893  -2.172   6.104  0.00  0.00    -0.388 OA
ATOM     23  H   UNL     1       1.527  -1.488   6.360  0.00  0.00    +0.210 HD
ENDBRANCH  21  22
BRANCH  21  24
ATOM     24  C   UNL     1       1.483  -2.027   3.764  0.00  0.00    +0.261 C 
BRANCH  24  25
ATOM     25  O   UNL     1       0.223  -1.459   3.401  0.00  0.00    -0.489 OA
BRANCH  25  31
ATOM     26  C   UNL     1       0.615   3.084   1.659  0.00  0.00    +0.044 C 
ATOM     27  C   UNL     1       0.399   1.607   1.450  0.00  0.00    -0.044 A 
ATOM     28  C   UNL     1       0.188   1.113   0.176  0.00  0.00    +0.004 A 
ATOM     29  C   UNL     1      -0.011  -0.241  -0.019  0.00  0.00    +0.007 A 
ATOM     30  C   UNL     1       0.000  -1.104   1.060  0.00  0.00    -0.009 A 
ATOM     31  C   UNL     1       0.212  -0.612   2.339  0.00  0.00    +0.127 A 
ATOM     32  C   UNL     1       0.417   0.747   2.531  0.00  0.00    -0.006 A 
ATOM     33  C   UNL     1       0.654   1.285   3.919  0.00  0.00    +0.048 C 
ATOM     34  C   UNL     1      -0.218  -2.580   0.847  0.00  0.00    +0.047 C 
ENDBRANCH  25  31
ENDBRANCH  24  25
ENDBRANCH  21  24
ENDBRANCH  20  21
ENDBRANCH  19  20
ENDBRANCH   1  19
TORSDOF 9
