REMARK  Name = ZINC58989701
REMARK  7 active torsions:
REMARK  status: ('A' for Active; 'I' for Inactive)
REMARK    1  A    between atoms: C_3  and  C_9
REMARK    2  A    between atoms: N_10  and  N_11
REMARK    3  A    between atoms: C_12  and  C_14
REMARK    4  A    between atoms: C_14  and  S_15
REMARK    5  A    between atoms: S_15  and  C_16
REMARK    6  A    between atoms: C_19  and  C_22
REMARK    7  A    between atoms: N_20  and  N_21
REMARK                            x       y       z     vdW  Elec       q    Type
REMARK                         _______ _______ _______ _____ _____    ______ ____
ROOT
ATOM      1  S   UNL     1       9.854   1.190  -0.087  0.00  0.00    -0.075 S 
ENDROOT
BRANCH   1   2
ATOM      2  C   UNL     1      11.276   2.230  -0.096  0.00  0.00    +0.209 A 
ATOM      3  N   UNL     1      11.281   3.544  -0.083  0.00  0.00    -0.121 NA
ATOM      4  N   UNL     1      12.490   3.981  -0.095  0.00  0.00    -0.127 NA
ATOM      5  C   UNL     1      13.331   2.973  -0.115  0.00  0.00    +0.182 A 
ATOM      6  N   UNL     1      12.579   1.821  -0.110  0.00  0.00    -0.224 N 
BRANCH   5   7
ATOM      7  C   UNL     1      14.806   3.060  -0.134  0.00  0.00    +0.021 A 
ATOM      8  C   UNL     1      15.570   1.942  -0.472  0.00  0.00    +0.013 A 
ATOM      9  C   UNL     1      16.946   2.029  -0.488  0.00  0.00    +0.016 A 
ATOM     10  C   UNL     1      17.571   3.223  -0.167  0.00  0.00    +0.018 A 
ATOM     11  C   UNL     1      16.819   4.335   0.170  0.00  0.00    +0.016 A 
ATOM     12  C   UNL     1      15.441   4.262   0.182  0.00  0.00    +0.013 A 
ATOM     13 BR   UNL     1      19.458   3.334  -0.190  0.00  0.00    -0.050 Br
ENDBRANCH   5   7
BRANCH   6  14
ATOM     14  N   UNL     1      13.040   0.535  -0.121  0.00  0.00    -0.295 N 
ATOM     15  H   UNL     1      13.153   0.199  -1.066  0.00  0.00    +0.163 HD
ATOM     16  H   UNL     1      13.903   0.456   0.397  0.00  0.00    +0.163 HD
ENDBRANCH   6  14
ENDBRANCH   1   2
BRANCH   1  17
ATOM     17  C   UNL     1       8.461   2.352  -0.068  0.00  0.00    +0.174 C 
BRANCH  17  19
ATOM     18  N   UNL     1       5.990   2.242  -0.044  0.00  0.00    -0.206 N 
ATOM     19  C   UNL     1       7.165   1.583  -0.059  0.00  0.00    +0.242 C 
ATOM     20  O   UNL     1       7.180   0.370  -0.065  0.00  0.00    -0.273 OA
ATOM     21  H   UNL     1       5.978   3.212  -0.039  0.00  0.00    +0.177 HD
BRANCH  18  23
ATOM     22  C   UNL     1       3.654   2.162  -0.022  0.00  0.00    +0.139 C 
ATOM     23  N   UNL     1       4.785   1.527  -0.036  0.00  0.00    -0.188 NA
BRANCH  22  26
ATOM     24  C   UNL     1      -0.017   1.379   0.010  0.00  0.00    +0.002 A 
ATOM     25  C   UNL     1       1.166   2.089   0.002  0.00  0.00    +0.011 A 
ATOM     26  C   UNL     1       2.386   1.409  -0.013  0.00  0.00    +0.014 A 
ATOM     27  C   UNL     1       2.399   0.011  -0.021  0.00  0.00    +0.068 A 
ATOM     28  C   UNL     1       1.207  -0.687  -0.013  0.00  0.00    +0.060 A 
ATOM     29  C   UNL     1       0.002  -0.004   0.002  0.00  0.00    +0.021 A 
ATOM     30 CL   UNL     1       1.219  -2.423  -0.023  0.00  0.00    -0.082 Cl
ATOM     31 CL   UNL     1       3.909  -0.845  -0.041  0.00  0.00    -0.081 Cl
ENDBRANCH  22  26
ENDBRANCH  18  23
ENDBRANCH  17  19
ENDBRANCH   1  17
TORSDOF 7
