REMARK  Name = ZINC37258320
REMARK  8 active torsions:
REMARK  status: ('A' for Active; 'I' for Inactive)
REMARK    1  A    between atoms: C_1  and  N_2
REMARK    2  A    between atoms: N_2  and  C_3
REMARK    3  A    between atoms: N_2  and  S_4
REMARK    4  A    between atoms: S_4  and  C_7
REMARK    5  A    between atoms: C_10  and  N_14
REMARK    6  A    between atoms: C_11  and  N_13
REMARK    7  A    between atoms: N_14  and  C_15
REMARK    8  A    between atoms: C_15  and  C_16
REMARK                            x       y       z     vdW  Elec       q    Type
REMARK                         _______ _______ _______ _____ _____    ______ ____
ROOT
ATOM      1  C   UNL     1      -1.884  -1.109  -1.669  0.00  0.00    +0.107 A 
ATOM      2  C   UNL     1      -2.674  -0.177  -2.317  0.00  0.00    +0.030 A 
ATOM      3  C   UNL     1      -3.042  -0.373  -3.635  0.00  0.00    +0.026 A 
ATOM      4  C   UNL     1      -2.617  -1.507  -4.312  0.00  0.00    +0.048 A 
ATOM      5  C   UNL     1      -1.820  -2.447  -3.659  0.00  0.00    +0.048 A 
ATOM      6  C   UNL     1      -1.452  -2.240  -2.338  0.00  0.00    +0.053 A 
ENDROOT
BRANCH   1   7
ATOM      7  S   UNL     1      -1.421  -0.852   0.011  0.00  0.00    +0.060 S 
ATOM      8  O   UNL     1      -1.127  -2.132   0.552  0.00  0.00    -0.153 OA
ATOM      9  O   UNL     1      -2.401   0.008   0.576  0.00  0.00    -0.153 OA
BRANCH   7  11
ATOM     10  C   UNL     1      -0.018   1.461   0.010  0.00  0.00    +0.131 C 
ATOM     11  N   UNL     1       0.002  -0.004   0.002  0.00  0.00    -0.183 NA
ATOM     12  C   UNL     1       1.281  -0.719  -0.014  0.00  0.00    +0.131 C 
ENDBRANCH   7  11
ENDBRANCH   1   7
BRANCH   5  13
ATOM     13  N   UNL     1      -1.389  -3.594  -4.336  0.00  0.00    -0.356 N 
ATOM     14  H   UNL     1      -1.644  -3.736  -5.261  0.00  0.00    +0.142 HD
ATOM     15  H   UNL     1      -0.834  -4.246  -3.881  0.00  0.00    +0.142 HD
ENDBRANCH   5  13
BRANCH   4  16
ATOM     16  N   UNL     1      -2.989  -1.708  -5.647  0.00  0.00    -0.342 N 
ATOM     17  H   UNL     1      -2.691  -2.501  -6.119  0.00  0.00    +0.146 HD
BRANCH  16  18
ATOM     18  C   UNL     1      -3.826  -0.720  -6.331  0.00  0.00    +0.105 C 
BRANCH  18  19
ATOM     19  C   UNL     1      -4.083  -1.176  -7.769  0.00  0.00    +0.006 C 
ATOM     20  C   UNL     1      -2.772  -1.130  -8.580  0.00  0.00    +0.005 C 
ATOM     21  C   UNL     1      -3.213  -0.657  -9.988  0.00  0.00    +0.000 C 
ATOM     22  C   UNL     1      -4.313   0.386  -9.668  0.00  0.00    +0.000 C 
ATOM     23  C   UNL     1      -5.063  -0.213  -8.460  0.00  0.00    +0.005 C 
ENDBRANCH  18  19
ENDBRANCH  16  18
ENDBRANCH   4  16
TORSDOF 6
