REMARK  Name = ZINC27853512
REMARK  6 active torsions:
REMARK  status: ('A' for Active; 'I' for Inactive)
REMARK    1  A    between atoms: C_3  and  N_19
REMARK    2  A    between atoms: C_6  and  N_7
REMARK    3  A    between atoms: C_8  and  C_10
REMARK    4  A    between atoms: C_10  and  N_11
REMARK    5  A    between atoms: N_22  and  C_23
REMARK    6  A    between atoms: C_23  and  C_24
REMARK                            x       y       z     vdW  Elec       q    Type
REMARK                         _______ _______ _______ _____ _____    ______ ____
ROOT
ATOM      1  C   UNL     1       2.096   0.794  -5.079  0.00  0.00    +0.025 A 
ATOM      2  C   UNL     1       2.785   0.185  -6.109  0.00  0.00    +0.025 A 
ATOM      3  C   UNL     1       3.467   0.957  -7.040  0.00  0.00    +0.035 A 
ATOM      4  C   UNL     1       3.452   2.342  -6.938  0.00  0.00    +0.025 A 
ATOM      5  C   UNL     1       2.759   2.951  -5.911  0.00  0.00    +0.025 A 
ATOM      6  C   UNL     1       2.077   2.179  -4.980  0.00  0.00    +0.034 A 
ENDROOT
BRANCH   3   7
ATOM      7  N   UNL     1       4.170   0.339  -8.082  0.00  0.00    -0.269 N 
ATOM      8  C   UNL     1       3.694  -0.792  -8.639  0.00  0.00    +0.304 C 
ATOM      9  O   UNL     1       2.700  -1.322  -8.182  0.00  0.00    -0.253 OA
ATOM     10  N   UNL     1       4.319  -1.335  -9.702  0.00  0.00    -0.297 N 
ATOM     11  H   UNL     1       5.112   0.777  -8.446  0.00  0.00    +0.156 HD
ATOM     12  H   UNL     1       5.219  -0.856 -10.115  0.00  0.00    +0.150 HD
BRANCH  10  13
ATOM     13  C   UNL     1       3.802  -2.565 -10.307  0.00  0.00    +0.137 C 
BRANCH  13  14
ATOM     14  C   UNL     1       4.689  -2.966 -11.487  0.00  0.00    +0.135 C 
ATOM     15  C   UNL     1       4.092  -4.188 -12.218  0.00  0.00    +0.035 C 
ATOM     16  C   UNL     1       5.327  -5.021 -12.627  0.00  0.00    +0.031 C 
ATOM     17  C   UNL     1       6.525  -4.203 -12.095  0.00  0.00    +0.160 C 
ATOM     18  O   UNL     1       5.980  -3.411 -11.017  0.00  0.00    -0.375 OA
ENDBRANCH  13  14
ENDBRANCH  10  13
ENDBRANCH   3   7
BRANCH   6  19
ATOM     19  N   UNL     1       1.374   2.797  -3.937  0.00  0.00    -0.284 N 
ATOM     20  C   UNL     1       0.751   3.973  -4.149  0.00  0.00    +0.235 C 
ATOM     21  O   UNL     1       0.869   4.538  -5.216  0.00  0.00    -0.274 OA
ATOM     22  H   UNL     1       1.330   2.322  -2.946  0.00  0.00    +0.155 HD
BRANCH  20  23
ATOM     23  C   UNL     1      -0.091   4.586  -3.060  0.00  0.00    +0.203 C 
BRANCH  23  24
ATOM     24  N   UNL     1      -0.655   5.853  -3.534  0.00  0.00    -0.293 N 
ATOM     25  C   UNL     1      -1.961   5.862  -4.212  0.00  0.00    +0.108 C 
ATOM     26  C   UNL     1      -2.999   6.483  -3.275  0.00  0.00    +0.019 C 
ATOM     27  C   UNL     1      -3.014   7.996  -3.413  0.00  0.00    +0.002 C 
ATOM     28  C   UNL     1      -1.743   8.671  -2.930  0.00  0.00    +0.009 C 
ATOM     29  C   UNL     1      -0.559   8.304  -3.828  0.00  0.00    +0.096 C 
ATOM     30  C   UNL     1       0.018   6.989  -3.347  0.00  0.00    +0.216 C 
ATOM     31  O   UNL     1       1.095   6.969  -2.791  0.00  0.00    -0.276 OA
ENDBRANCH  23  24
ENDBRANCH  20  23
ENDBRANCH   6  19
TORSDOF 6
