REMARK  Name = ZINC23943762
REMARK  8 active torsions:
REMARK  status: ('A' for Active; 'I' for Inactive)
REMARK    1  A    between atoms: C_4  and  N_7
REMARK    2  A    between atoms: C_8  and  C_32
REMARK    3  A    between atoms: C_10  and  S_12
REMARK    4  A    between atoms: S_12  and  C_13
REMARK    5  A    between atoms: C_13  and  C_14
REMARK    6  A    between atoms: N_16  and  C_17
REMARK    7  A    between atoms: C_21  and  S_23
REMARK    8  A    between atoms: S_23  and  N_26
REMARK                            x       y       z     vdW  Elec       q    Type
REMARK                         _______ _______ _______ _____ _____    ______ ____
ROOT
ATOM      1  C   UNL     1      -6.489   1.044  -2.590  0.00  0.00    +0.227 C 
ATOM      2  O   UNL     1      -7.277   1.960  -2.480  0.00  0.00    -0.275 OA
ATOM      3  N   UNL     1      -6.859  -0.092  -3.212  0.00  0.00    -0.285 N 
ATOM      4  H   UNL     1      -6.120  -0.888  -3.389  0.00  0.00    +0.155 HD
ENDROOT
BRANCH   3   5
ATOM      5  C   UNL     1      -8.182  -0.260  -3.634  0.00  0.00    +0.035 A 
ATOM      6  C   UNL     1      -9.223   0.293  -2.898  0.00  0.00    +0.023 A 
ATOM      7  C   UNL     1     -10.527   0.131  -3.321  0.00  0.00    +0.004 A 
ATOM      8  C   UNL     1     -10.799  -0.591  -4.469  0.00  0.00    +0.029 A 
ATOM      9  C   UNL     1      -9.767  -1.148  -5.200  0.00  0.00    +0.114 A 
ATOM     10  C   UNL     1      -8.459  -0.984  -4.786  0.00  0.00    +0.052 A 
BRANCH   9  11
ATOM     11  S   UNL     1     -10.119  -2.067  -6.661  0.00  0.00    +0.100 S 
ATOM     12  O   UNL     1     -11.380  -1.613  -7.132  0.00  0.00    -0.146 OA
ATOM     13  O   UNL     1      -8.946  -2.022  -7.462  0.00  0.00    -0.146 OA
BRANCH  11  14
ATOM     14  N   UNL     1     -10.322  -3.647  -6.209  0.00  0.00    -0.118 NA
ATOM     15  C   UNL     1     -10.593  -4.545  -7.100  0.00  0.00    +0.117 C 
ATOM     16  C   UNL     1     -10.756  -4.280  -8.581  0.00  0.00    +0.074 C 
ATOM     17  C   UNL     1     -10.639  -5.680  -9.232  0.00  0.00    +0.026 C 
ATOM     18  C   UNL     1     -11.082  -6.608  -8.080  0.00  0.00    +0.103 C 
ATOM     19  N   UNL     1     -10.782  -5.875  -6.844  0.00  0.00    -0.331 N 
ATOM     20  H   UNL     1     -10.736  -6.410  -5.884  0.00  0.00    +0.147 HD
ENDBRANCH  11  14
ENDBRANCH   9  11
ENDBRANCH   3   5
BRANCH   1  21
ATOM     21  C   UNL     1      -5.096   1.178  -2.030  0.00  0.00    +0.173 C 
BRANCH  21  22
ATOM     22  S   UNL     1      -4.908   2.810  -1.260  0.00  0.00    -0.075 S 
BRANCH  22  26
ATOM     23  N   UNL     1      -1.202   2.241  -0.169  0.00  0.00    -0.216 N 
ATOM     24  C   UNL     1      -1.429   3.486   0.293  0.00  0.00    +0.137 A 
ATOM     25  N   UNL     1      -2.657   3.818  -0.014  0.00  0.00    -0.205 NA
ATOM     26  C   UNL     1      -3.250   2.810  -0.662  0.00  0.00    +0.210 A 
ATOM     27  N   UNL     1      -2.395   1.821  -0.780  0.00  0.00    -0.138 NA
BRANCH  23  31
ATOM     28  C   UNL     1       2.333   0.058   0.154  0.00  0.00    +0.000 A 
ATOM     29  C   UNL     1       1.114  -0.589   0.229  0.00  0.00    +0.002 A 
ATOM     30  C   UNL     1      -0.060   0.132   0.124  0.00  0.00    +0.028 A 
ATOM     31  C   UNL     1      -0.014   1.508  -0.056  0.00  0.00    +0.067 A 
ATOM     32  C   UNL     1       1.213   2.155  -0.131  0.00  0.00    +0.028 A 
ATOM     33  C   UNL     1       2.382   1.429  -0.025  0.00  0.00    +0.002 A 
ENDBRANCH  23  31
BRANCH  24  34
ATOM     34  C   UNL     1      -0.438   4.348   1.031  0.00  0.00    +0.057 C 
ATOM     35  C   UNL     1      -0.956   5.649   1.649  0.00  0.00    +0.012 C 
ATOM     36  C   UNL     1      -0.066   5.693   0.404  0.00  0.00    +0.012 C 
ENDBRANCH  24  34
ENDBRANCH  22  26
ENDBRANCH  21  22
ENDBRANCH   1  21
TORSDOF 8
