REMARK  Name = ZINC33729283
REMARK  8 active torsions:
REMARK  status: ('A' for Active; 'I' for Inactive)
REMARK    1  A    between atoms: C_1  and  C_2
REMARK    2  A    between atoms: C_17  and  C_29
REMARK    3  A    between atoms: C_22  and  C_23
REMARK    4  A    between atoms: C_22  and  O_28
REMARK    5  A    between atoms: C_23  and  S_24
REMARK    6  A    between atoms: S_24  and  C_25
REMARK    7  A    between atoms: C_25  and  C_26
REMARK    8  A    between atoms: C_26  and  N_27
REMARK                            x       y       z     vdW  Elec       q    Type
REMARK                         _______ _______ _______ _____ _____    ______ ____
ROOT
ATOM      1  C   UNL     1      -0.835   3.931  -1.925  0.00  0.00    +0.012 C 
ATOM      2  C   UNL     1      -1.584   2.898  -1.089  0.00  0.00    -0.026 C 
ATOM      3  C   UNL     1      -1.783   3.587   0.247  0.00  0.00    +0.007 C 
ATOM      4  C   UNL     1      -0.777   3.203   1.316  0.00  0.00    +0.001 C 
ATOM      5  C   UNL     1      -0.734   1.668   1.375  0.00  0.00    +0.000 C 
ATOM      6  C   UNL     1      -0.034   1.208   0.104  0.00  0.00    +0.004 C 
ATOM      7  C   UNL     1      -0.725   1.687  -1.158  0.00  0.00    -0.005 C 
ATOM      8  C   UNL     1      -1.137   0.498  -2.002  0.00  0.00    +0.004 C 
ATOM      9  C   UNL     1      -2.617   0.454  -2.370  0.00  0.00    +0.004 C 
ATOM     10  C   UNL     1      -2.939   1.840  -2.940  0.00  0.00    -0.004 C 
ATOM     11  C   UNL     1      -2.942   2.791  -1.748  0.00  0.00    -0.001 C 
ATOM     12  C   UNL     1      -3.607   4.102  -2.115  0.00  0.00    +0.005 C 
ATOM     13  C   UNL     1      -5.117   3.884  -2.335  0.00  0.00    +0.010 C 
ATOM     14  C   UNL     1      -5.397   2.513  -2.888  0.00  0.00    +0.001 C 
ATOM     15  C   UNL     1      -4.221   1.941  -3.695  0.00  0.00    +0.001 C 
ATOM     16  C   UNL     1      -4.810   0.663  -4.298  0.00  0.00    +0.007 C 
ATOM     17  C   UNL     1      -6.278   1.051  -4.620  0.00  0.00    +0.036 C 
ATOM     18  C   UNL     1      -6.532   2.416  -3.928  0.00  0.00    +0.081 C 
ATOM     19  C   UNL     1      -5.795   1.562  -1.743  0.00  0.00    +0.014 C 
ENDROOT
BRANCH  18  20
ATOM     20  O   UNL     1      -7.793   2.404  -3.260  0.00  0.00    -0.387 OA
ATOM     21  H   UNL     1      -8.724   2.338  -3.843  0.00  0.00    +0.210 HD
ENDBRANCH  18  20
BRANCH  18  22
ATOM     22  C   UNL     1      -6.472   3.538  -4.955  0.00  0.00    +0.104 C 
BRANCH  22  23
ATOM     23  S   UNL     1      -7.743   3.268  -6.220  0.00  0.00    -0.160 S 
BRANCH  23  24
ATOM     24  C   UNL     1      -7.541   4.672  -7.351  0.00  0.00    +0.050 C 
BRANCH  24  25
ATOM     25  C   UNL     1      -8.566   4.567  -8.482  0.00  0.00    -0.076 C 
BRANCH  25  26
ATOM     26  N   UNL     1      -8.402   5.703  -9.399  0.00  0.00    +0.379 N 
ATOM     27  H   UNL     1      -9.139   5.628 -10.211  0.00  0.00    -0.090 HD
ATOM     28  H   UNL     1      -7.387   5.689  -9.822  0.00  0.00    -0.090 HD
ATOM     29  H   UNL     1      -8.557   6.643  -8.849  0.00  0.00    -0.090 HD
ENDBRANCH  25  26
ENDBRANCH  24  25
ENDBRANCH  23  24
ENDBRANCH  22  23
ENDBRANCH  18  22
TORSDOF 6
