REMARK  Name = ZINC67318281
REMARK  6 active torsions:
REMARK  status: ('A' for Active; 'I' for Inactive)
REMARK    1  A    between atoms: C_5  and  C_7
REMARK    2  A    between atoms: C_7  and  N_8
REMARK    3  A    between atoms: C_9  and  C_11
REMARK    4  A    between atoms: C_11  and  N_12
REMARK    5  A    between atoms: C_19  and  C_23
REMARK    6  A    between atoms: C_25  and  C_28
REMARK                            x       y       z     vdW  Elec       q    Type
REMARK                         _______ _______ _______ _____ _____    ______ ____
ROOT
ATOM      1  N   UNL     1       1.839  -5.976   2.953  0.00  0.00    -0.299 N 
ATOM      2  C   UNL     1       0.666  -6.670   3.164  0.00  0.00    +0.053 A 
ATOM      3  C   UNL     1      -0.532  -5.997   3.384  0.00  0.00    +0.026 A 
ATOM      4  C   UNL     1      -1.691  -6.715   3.591  0.00  0.00    +0.002 A 
ATOM      5  C   UNL     1      -1.675  -8.102   3.584  0.00  0.00    +0.001 A 
ATOM      6  C   UNL     1      -0.509  -8.783   3.370  0.00  0.00    +0.011 A 
ATOM      7  C   UNL     1       0.676  -8.076   3.157  0.00  0.00    +0.011 A 
ATOM      8  C   UNL     1       1.949  -8.778   2.924  0.00  0.00    +0.054 A 
ATOM      9  C   UNL     1       3.076  -8.028   2.722  0.00  0.00    +0.084 A 
ATOM     10  C   UNL     1       2.999  -6.619   2.734  0.00  0.00    +0.253 A 
ATOM     11  O   UNL     1       4.012  -5.967   2.547  0.00  0.00    -0.268 OA
ENDROOT
BRANCH   8  12
ATOM     12  C   UNL     1       2.009 -10.255   2.909  0.00  0.00    +0.260 A 
ATOM     13  N   UNL     1       3.086 -10.979   2.716  0.00  0.00    -0.187 NA
ATOM     14  C   UNL     1       2.776 -12.283   2.767  0.00  0.00    +0.202 A 
ATOM     15  N   UNL     1       1.490 -12.404   2.994  0.00  0.00    -0.056 NA
ATOM     16  O   UNL     1       0.970 -11.087   3.095  0.00  0.00    -0.332 OA
BRANCH  14  17
ATOM     17  C   UNL     1       3.732 -13.406   2.594  0.00  0.00    +0.025 A 
ATOM     18  C   UNL     1       5.088 -13.163   2.360  0.00  0.00    +0.031 A 
ATOM     19  C   UNL     1       5.943 -14.236   2.205  0.00  0.00    +0.111 A 
ATOM     20  N   UNL     1       5.495 -15.474   2.276  0.00  0.00    -0.263 NA
ATOM     21  C   UNL     1       4.223 -15.746   2.495  0.00  0.00    +0.111 A 
ATOM     22  C   UNL     1       3.302 -14.732   2.666  0.00  0.00    +0.031 A 
ENDBRANCH  14  17
ENDBRANCH   8  12
BRANCH   1  23
ATOM     23  C   UNL     1       1.819  -4.511   2.961  0.00  0.00    +0.221 C 
BRANCH  23  25
ATOM     24  N   UNL     1       1.489  -2.679   1.333  0.00  0.00    -0.310 N 
ATOM     25  C   UNL     1       1.552  -4.005   1.567  0.00  0.00    +0.233 C 
ATOM     26  O   UNL     1       1.393  -4.790   0.657  0.00  0.00    -0.274 OA
ATOM     27  H   UNL     1       1.615  -2.051   2.062  0.00  0.00    +0.149 HD
BRANCH  24  28
ATOM     28  C   UNL     1       1.229  -2.186  -0.022  0.00  0.00    +0.141 C 
BRANCH  28  33
ATOM     29  C   UNL     1      -0.017   1.378   0.010  0.00  0.00    +0.000 A 
ATOM     30  C   UNL     1       1.171   2.086   0.002  0.00  0.00    +0.001 A 
ATOM     31  C   UNL     1       2.377   1.412  -0.013  0.00  0.00    +0.020 A 
ATOM     32  C   UNL     1       2.397   0.029  -0.021  0.00  0.00    +0.046 A 
ATOM     33  C   UNL     1       1.208  -0.679  -0.013  0.00  0.00    -0.012 A 
ATOM     34  C   UNL     1       0.002  -0.004   0.002  0.00  0.00    +0.006 A 
ATOM     35 CL   UNL     1       3.912  -0.818  -0.041  0.00  0.00    -0.083 Cl
ENDBRANCH  28  33
ENDBRANCH  24  28
ENDBRANCH  23  25
ENDBRANCH   1  23
TORSDOF 6
