REMARK  Name = ZINC27532146
REMARK  12 active torsions:
REMARK  status: ('A' for Active; 'I' for Inactive)
REMARK    1  A    between atoms: C_1  and  C_2
REMARK    2  A    between atoms: C_2  and  C_3
REMARK    3  A    between atoms: C_3  and  C_4
REMARK    4  A    between atoms: C_4  and  C_5
REMARK    5  A    between atoms: C_5  and  N_6
REMARK    6  A    between atoms: C_9  and  C_17
REMARK    7  A    between atoms: C_10  and  C_12
REMARK    8  A    between atoms: C_12  and  O_14
REMARK    9  A    between atoms: O_14  and  C_15
REMARK   10  A    between atoms: C_15  and  C_16
REMARK   11  A    between atoms: N_20  and  C_23
REMARK   12  A    between atoms: C_23  and  C_24
REMARK                            x       y       z     vdW  Elec       q    Type
REMARK                         _______ _______ _______ _____ _____    ______ ____
ROOT
ATOM      1  N   UNL     1       0.738  -1.962  -1.265  0.00  0.00    -0.287 N 
ATOM      2  C   UNL     1       1.782  -2.626  -0.691  0.00  0.00    +0.097 A 
ATOM      3  C   UNL     1       1.835  -4.029  -0.673  0.00  0.00    +0.074 A 
ATOM      4  C   UNL     1       2.954  -4.589  -0.048  0.00  0.00    -0.015 A 
ATOM      5  C   UNL     1       3.886  -3.749   0.490  0.00  0.00    +0.102 A 
ATOM      6  S   UNL     1       3.215  -2.137   0.133  0.00  0.00    -0.063 S 
ATOM      7  C   UNL     1       3.126  -6.084   0.029  0.00  0.00    +0.046 C 
ATOM      8  C   UNL     1       0.694  -4.718  -1.327  0.00  0.00    +0.265 A 
ATOM      9  O   UNL     1       0.650  -5.933  -1.368  0.00  0.00    -0.267 OA
ATOM     10  N   UNL     1      -0.290  -3.982  -1.873  0.00  0.00    -0.261 N 
ATOM     11  C   UNL     1      -0.272  -2.639  -1.844  0.00  0.00    +0.333 A 
ATOM     12  O   UNL     1      -1.187  -2.021  -2.352  0.00  0.00    -0.246 OA
ENDROOT
BRANCH   5  13
ATOM     13  C   UNL     1       5.127  -4.088   1.187  0.00  0.00    +0.346 C 
ATOM     14  O   UNL     1       5.437  -5.254   1.346  0.00  0.00    -0.244 OA
BRANCH  13  15
ATOM     15  O   UNL     1       5.929  -3.108   1.653  0.00  0.00    -0.461 OA
BRANCH  15  16
ATOM     16  C   UNL     1       7.125  -3.512   2.324  0.00  0.00    +0.229 C 
ATOM     17  C   UNL     1       7.898  -2.272   2.778  0.00  0.00    +0.048 C 
ENDBRANCH  15  16
ENDBRANCH  13  15
ENDBRANCH   5  13
BRANCH  10  18
ATOM     18  C   UNL     1      -1.414  -4.664  -2.517  0.00  0.00    +0.126 C 
ATOM     19  C   UNL     1      -1.097  -4.884  -3.998  0.00  0.00    +0.027 C 
ENDBRANCH  10  18
BRANCH   1  20
ATOM     20  C   UNL     1       0.718  -0.497  -1.257  0.00  0.00    +0.127 C 
BRANCH  20  21
ATOM     21  C   UNL     1       0.002  -0.004   0.002  0.00  0.00    +0.022 C 
BRANCH  21  22
ATOM     22  C   UNL     1      -0.019   1.526   0.010  0.00  0.00    +0.001 C 
BRANCH  22  24
ATOM     23  C   UNL     1      -0.756   3.549   1.278  0.00  0.00    +0.004 C 
ATOM     24  C   UNL     1      -0.735   2.019   1.269  0.00  0.00    -0.003 C 
ENDBRANCH  22  24
ENDBRANCH  21  22
ENDBRANCH  20  21
ENDBRANCH   1  20
TORSDOF 8
