REMARK  Name = ZINC40801519
REMARK  11 active torsions:
REMARK  status: ('A' for Active; 'I' for Inactive)
REMARK    1  A    between atoms: C_1  and  C_2
REMARK    2  A    between atoms: C_2  and  O_3
REMARK    3  A    between atoms: O_3  and  C_4
REMARK    4  A    between atoms: C_4  and  C_6
REMARK    5  A    between atoms: C_7  and  C_28
REMARK    6  A    between atoms: C_10  and  N_11
REMARK    7  A    between atoms: C_12  and  C_14
REMARK    8  A    between atoms: C_14  and  C_15
REMARK    9  A    between atoms: C_22  and  C_27
REMARK   10  A    between atoms: C_31  and  O_34
REMARK   11  A    between atoms: O_34  and  C_35
REMARK                            x       y       z     vdW  Elec       q    Type
REMARK                         _______ _______ _______ _____ _____    ______ ____
ROOT
ATOM      1  C   UNL     1       1.448  -2.344  -2.515  0.00  0.00    +0.095 A 
ATOM      2  C   UNL     1       2.874  -2.621  -2.522  0.00  0.00    +0.005 A 
ATOM      3  C   UNL     1       3.364  -3.124  -3.684  0.00  0.00    +0.056 A 
ATOM      4  S   UNL     1       1.928  -3.213  -4.730  0.00  0.00    -0.080 S 
ATOM      5  C   UNL     1       0.756  -2.626  -3.683  0.00  0.00    +0.086 A 
ENDROOT
BRANCH   2   6
ATOM      6  C   UNL     1       3.734  -2.373  -1.341  0.00  0.00    -0.016 A 
ATOM      7  C   UNL     1       3.686  -1.143  -0.687  0.00  0.00    +0.012 A 
ATOM      8  C   UNL     1       4.488  -0.915   0.412  0.00  0.00    +0.046 A 
ATOM      9  C   UNL     1       5.343  -1.909   0.867  0.00  0.00    +0.120 A 
ATOM     10  C   UNL     1       5.394  -3.135   0.218  0.00  0.00    +0.046 A 
ATOM     11  C   UNL     1       4.590  -3.372  -0.878  0.00  0.00    +0.012 A 
BRANCH   9  12
ATOM     12  O   UNL     1       6.132  -1.681   1.950  0.00  0.00    -0.495 OA
ATOM     13  C   UNL     1       6.989  -2.748   2.364  0.00  0.00    +0.277 C 
ENDBRANCH   9  12
ENDBRANCH   2   6
BRANCH   5  14
ATOM     14  N   UNL     1      -0.597  -2.458  -3.930  0.00  0.00    -0.279 N 
ATOM     15  C   UNL     1      -1.108  -2.787  -5.133  0.00  0.00    +0.222 C 
ATOM     16  O   UNL     1      -0.384  -3.229  -5.999  0.00  0.00    -0.275 OA
ATOM     17  H   UNL     1      -1.176  -2.105  -3.237  0.00  0.00    +0.155 HD
BRANCH  15  18
ATOM     18  C   UNL     1      -2.580  -2.605  -5.401  0.00  0.00    +0.150 C 
BRANCH  18  19
ATOM     19  C   UNL     1      -2.896  -3.050  -6.831  0.00  0.00    +0.268 C 
ATOM     20  C   UNL     1      -4.385  -2.986  -7.058  0.00  0.00    +0.259 C 
ATOM     21  O   UNL     1      -5.073  -3.967  -6.870  0.00  0.00    -0.271 OA
ATOM     22  N   UNL     1      -4.950  -1.832  -7.471  0.00  0.00    -0.280 N 
ATOM     23  C   UNL     1      -4.126  -0.748  -7.804  0.00  0.00    +0.076 A 
ATOM     24  C   UNL     1      -4.667   0.511  -8.010  0.00  0.00    +0.030 A 
ATOM     25  C   UNL     1      -3.840   1.573  -8.325  0.00  0.00    -0.048 A 
ATOM     26  C   UNL     1      -2.474   1.382  -8.432  0.00  0.00    +0.007 A 
ATOM     27  C   UNL     1      -1.929   0.127  -8.232  0.00  0.00    +0.048 A 
ATOM     28  C   UNL     1      -2.752  -0.942  -7.924  0.00  0.00    +0.143 A 
ATOM     29  O   UNL     1      -2.231  -2.187  -7.756  0.00  0.00    -0.477 OA
ATOM     30  C   UNL     1      -4.427   2.942  -8.550  0.00  0.00    +0.044 C 
ATOM     31  H   UNL     1      -5.915  -1.754  -7.537  0.00  0.00    +0.155 HD
ENDBRANCH  18  19
ENDBRANCH  15  18
ENDBRANCH   5  14
BRANCH   1  32
ATOM     32  C   UNL     1       0.776  -1.800  -1.335  0.00  0.00    +0.342 C 
ATOM     33  O   UNL     1       0.312  -2.552  -0.499  0.00  0.00    -0.245 OA
BRANCH  32  34
ATOM     34  O   UNL     1       0.671  -0.465  -1.174  0.00  0.00    -0.461 OA
BRANCH  34  36
ATOM     35  C   UNL     1      -0.019   1.526   0.010  0.00  0.00    +0.048 C 
ATOM     36  C   UNL     1       0.002  -0.004   0.002  0.00  0.00    +0.229 C 
ENDBRANCH  34  36
ENDBRANCH  32  34
ENDBRANCH   1  32
TORSDOF 8
