REMARK  Name = ZINC16713342
REMARK  7 active torsions:
REMARK  status: ('A' for Active; 'I' for Inactive)
REMARK    1  A    between atoms: C_1  and  C_2
REMARK    2  A    between atoms: C_2  and  C_3
REMARK    3  A    between atoms: C_3  and  C_25
REMARK    4  A    between atoms: N_6  and  C_10
REMARK    5  A    between atoms: C_10  and  C_11
REMARK    6  A    between atoms: N_13  and  C_14
REMARK    7  A    between atoms: C_17  and  N_20
REMARK                            x       y       z     vdW  Elec       q    Type
REMARK                         _______ _______ _______ _____ _____    ______ ____
ROOT
ATOM      1  C   UNL     1       0.102   4.521   0.039  0.00  0.00    +0.138 C 
ATOM      2  C   UNL     1       1.529   4.012   0.086  0.00  0.00    +0.251 C 
ATOM      3  O   UNL     1       2.538   4.672   0.206  0.00  0.00    -0.272 OA
ATOM      4  N   UNL     1       1.441   2.672  -0.034  0.00  0.00    -0.215 N 
ATOM      5  C   UNL     1       0.171   2.269  -0.149  0.00  0.00    +0.310 C 
ATOM      6  O   UNL     1      -0.161   1.106  -0.270  0.00  0.00    -0.252 OA
ATOM      7  N   UNL     1      -0.699   3.295  -0.122  0.00  0.00    -0.281 N 
ATOM      8  H   UNL     1      -1.664   3.239  -0.194  0.00  0.00    +0.152 HD
ENDROOT
BRANCH   1   9
ATOM      9  C   UNL     1      -0.251   5.229   1.322  0.00  0.00    -0.015 A 
ATOM     10  C   UNL     1      -0.036   6.590   1.442  0.00  0.00    +0.009 A 
ATOM     11  C   UNL     1      -0.364   7.241   2.616  0.00  0.00    +0.039 A 
ATOM     12  C   UNL     1      -0.898   6.528   3.676  0.00  0.00    +0.123 A 
ATOM     13  C   UNL     1      -1.107   5.165   3.557  0.00  0.00    +0.039 A 
ATOM     14  C   UNL     1      -0.784   4.517   2.380  0.00  0.00    +0.009 A 
ATOM     15  F   UNL     1      -1.213   7.162   4.827  0.00  0.00    -0.205 F 
ENDBRANCH   1   9
BRANCH   1  17
ATOM     16  C   UNL     1       0.094   4.661  -2.455  0.00  0.00    +0.007 C 
ATOM     17  C   UNL     1      -0.098   5.451  -1.159  0.00  0.00    +0.037 C 
ENDBRANCH   1  17
BRANCH   4  18
ATOM     18  C   UNL     1       2.595   1.769  -0.037  0.00  0.00    +0.214 C 
BRANCH  18  19
ATOM     19  C   UNL     1       3.081   1.580  -1.451  0.00  0.00    +0.235 C 
ATOM     20  O   UNL     1       2.519   2.144  -2.366  0.00  0.00    -0.274 OA
ATOM     21  N   UNL     1       4.140   0.784  -1.699  0.00  0.00    -0.284 N 
ATOM     22  H   UNL     1       4.635   0.392  -0.963  0.00  0.00    +0.155 HD
BRANCH  21  23
ATOM     23  C   UNL     1       4.526   0.523  -3.021  0.00  0.00    +0.034 A 
ATOM     24  C   UNL     1       3.568   0.456  -4.023  0.00  0.00    +0.025 A 
ATOM     25  C   UNL     1       3.948   0.203  -5.326  0.00  0.00    +0.025 A 
ATOM     26  C   UNL     1       5.289   0.005  -5.632  0.00  0.00    +0.030 A 
ATOM     27  C   UNL     1       6.246   0.067  -4.628  0.00  0.00    +0.025 A 
ATOM     28  C   UNL     1       5.866   0.325  -3.326  0.00  0.00    +0.025 A 
BRANCH  26  29
ATOM     29  N   UNL     1       5.674  -0.257  -6.951  0.00  0.00    -0.330 N 
ATOM     30  C   UNL     1       6.560   0.816  -7.470  0.00  0.00    +0.105 C 
ATOM     31  C   UNL     1       7.283   0.134  -8.659  0.00  0.00    +0.020 C 
ATOM     32  C   UNL     1       7.508  -1.307  -8.147  0.00  0.00    +0.020 C 
ATOM     33  C   UNL     1       6.461  -1.507  -7.035  0.00  0.00    +0.105 C 
ENDBRANCH  26  29
ENDBRANCH  21  23
ENDBRANCH  18  19
ENDBRANCH   4  18
TORSDOF 6
