REMARK  Name = ZINC38666275
REMARK  12 active torsions:
REMARK  status: ('A' for Active; 'I' for Inactive)
REMARK    1  A    between atoms: C_1  and  C_2
REMARK    2  A    between atoms: C_5  and  C_39
REMARK    3  A    between atoms: C_6  and  N_8
REMARK    4  A    between atoms: C_9  and  C_11
REMARK    5  A    between atoms: N_13  and  C_14
REMARK    6  A    between atoms: C_14  and  C_15
REMARK    7  A    between atoms: C_15  and  C_17
REMARK    8  A    between atoms: C_15  and  N_26
REMARK    9  A    between atoms: C_20  and  N_23
REMARK   10  A    between atoms: N_23  and  C_24
REMARK   11  A    between atoms: N_23  and  C_25
REMARK   12  A    between atoms: N_29  and  C_32
REMARK                            x       y       z     vdW  Elec       q    Type
REMARK                         _______ _______ _______ _____ _____    ______ ____
ROOT
ATOM      1  C   UNL     1       0.447  -1.996   8.459  0.00  0.00    +0.104 C 
ENDROOT
BRANCH   1   2
ATOM      2  C   UNL     1       1.367  -2.520   9.532  0.00  0.00    -0.029 A 
ATOM      3  C   UNL     1       2.727  -2.285   9.450  0.00  0.00    +0.007 A 
ATOM      4  C   UNL     1       3.573  -2.763  10.431  0.00  0.00    +0.023 A 
ATOM      5  C   UNL     1       3.056  -3.481  11.502  0.00  0.00    +0.029 A 
ATOM      6  C   UNL     1       1.689  -3.715  11.582  0.00  0.00    +0.023 A 
ATOM      7  C   UNL     1       0.848  -3.229  10.600  0.00  0.00    +0.007 A 
BRANCH   5   8
ATOM      8  N   UNL     1       3.908  -3.967  12.496  0.00  0.00    -0.336 N 
ATOM      9  C   UNL     1       5.350  -3.719  12.410  0.00  0.00    +0.129 C 
ATOM     10  C   UNL     1       3.361  -4.724  13.625  0.00  0.00    +0.129 C 
ENDBRANCH   5   8
ENDBRANCH   1   2
BRANCH   1  11
ATOM     11  N   UNL     1       0.362  -0.533   8.559  0.00  0.00    -0.291 NA
ATOM     12  C   UNL     1      -0.326  -0.128   9.792  0.00  0.00    +0.104 C 
ATOM     13  C   UNL     1      -0.555   1.387   9.771  0.00  0.00    +0.120 C 
ATOM     14  N   UNL     1       0.736   2.051   9.532  0.00  0.00    -0.327 N 
ATOM     15  C   UNL     1       1.548   1.603   8.391  0.00  0.00    +0.120 C 
ATOM     16  C   UNL     1       1.694   0.079   8.466  0.00  0.00    +0.104 C 
BRANCH  14  17
ATOM     17  C   UNL     1       1.178   3.081  10.368  0.00  0.00    +0.030 A 
ATOM     18  C   UNL     1       2.334   3.784  10.053  0.00  0.00    +0.026 A 
ATOM     19  C   UNL     1       2.769   4.801  10.880  0.00  0.00    +0.040 A 
ATOM     20  C   UNL     1       2.053   5.122  12.021  0.00  0.00    +0.124 A 
ATOM     21  C   UNL     1       0.900   4.423  12.336  0.00  0.00    +0.040 A 
ATOM     22  C   UNL     1       0.459   3.408  11.510  0.00  0.00    +0.026 A 
ATOM     23  F   UNL     1       2.480   6.117  12.828  0.00  0.00    -0.205 F 
ENDBRANCH  14  17
ENDBRANCH   1  11
BRANCH   1  24
ATOM     24  C   UNL     1       0.996  -2.383   7.084  0.00  0.00    +0.128 C 
BRANCH  24  27
ATOM     25  C   UNL     1       0.407  -2.052   4.743  0.00  0.00    +0.299 C 
ATOM     26  O   UNL     1       1.305  -2.810   4.440  0.00  0.00    -0.265 OA
ATOM     27  N   UNL     1       0.169  -1.772   6.040  0.00  0.00    -0.306 N 
ATOM     28  H   UNL     1      -0.548  -1.166   6.282  0.00  0.00    +0.149 HD
BRANCH  25  30
ATOM     29  N   UNL     1      -0.198  -1.710   2.381  0.00  0.00    -0.278 N 
ATOM     30  C   UNL     1      -0.435  -1.430   3.678  0.00  0.00    +0.303 C 
ATOM     31  O   UNL     1      -1.333  -0.671   3.981  0.00  0.00    -0.265 OA
ATOM     32  H   UNL     1       0.465  -2.376   2.143  0.00  0.00    +0.155 HD
BRANCH  29  38
ATOM     33  C   UNL     1      -2.905   2.143   0.971  0.00  0.00    +0.044 C 
ATOM     34  C   UNL     1      -2.229   0.830   0.669  0.00  0.00    -0.049 A 
ATOM     35  C   UNL     1      -2.311   0.286  -0.600  0.00  0.00    +0.004 A 
ATOM     36  C   UNL     1      -1.693  -0.918  -0.882  0.00  0.00    +0.005 A 
ATOM     37  C   UNL     1      -0.991  -1.582   0.105  0.00  0.00    -0.029 A 
ATOM     38  C   UNL     1      -0.906  -1.040   1.381  0.00  0.00    +0.037 A 
ATOM     39  C   UNL     1      -1.525   0.173   1.659  0.00  0.00    +0.027 A 
ATOM     40  C   UNL     1      -0.318  -2.895  -0.202  0.00  0.00    +0.045 C 
ENDBRANCH  29  38
ENDBRANCH  25  30
ENDBRANCH  24  27
ENDBRANCH   1  24
TORSDOF 8
