REMARK  Name = ZINC05050945
REMARK  8 active torsions:
REMARK  status: ('A' for Active; 'I' for Inactive)
REMARK    1  A    between atoms: C_1  and  C_2
REMARK    2  A    between atoms: C_2  and  C_3
REMARK    3  A    between atoms: C_6  and  C_9
REMARK    4  A    between atoms: C_11  and  C_15
REMARK    5  A    between atoms: N_17  and  N_18
REMARK    6  A    between atoms: C_19  and  C_20
REMARK    7  A    between atoms: C_19  and  C_21
REMARK    8  A    between atoms: C_24  and  O_27
REMARK                            x       y       z     vdW  Elec       q    Type
REMARK                         _______ _______ _______ _____ _____    ______ ____
ROOT
ATOM      1  C   UNL     1       2.495   1.546  -0.013  0.00  0.00    +0.281 C 
ATOM      2  O   UNL     1       2.808   0.370  -0.022  0.00  0.00    -0.267 OA
ATOM      3  N   UNL     1       3.450   2.498  -0.017  0.00  0.00    -0.201 N 
ATOM      4  H   UNL     1       3.200   3.435  -0.010  0.00  0.00    +0.178 HD
ENDROOT
BRANCH   1   7
ATOM      5  C   UNL     1      -1.142   1.914   0.017  0.00  0.00    +0.093 A 
ATOM      6  C   UNL     1      -0.013   1.076   0.008  0.00  0.00    +0.062 A 
ATOM      7  C   UNL     1       1.075   1.929   0.002  0.00  0.00    +0.122 A 
ATOM      8  N   UNL     1       0.570   3.199   0.014  0.00  0.00    -0.272 N 
ATOM      9  H   UNL     1       1.118   4.036   0.013  0.00  0.00    +0.189 HD
ATOM     10  N   UNL     1      -0.714   3.159   0.026  0.00  0.00    -0.173 NA
BRANCH   5  14
ATOM     11  C   UNL     1      -5.205   0.655   0.026  0.00  0.00    -0.048 A 
ATOM     12  C   UNL     1      -4.901   2.005   0.032  0.00  0.00    +0.004 A 
ATOM     13  C   UNL     1      -3.585   2.419   0.030  0.00  0.00    +0.010 A 
ATOM     14  C   UNL     1      -2.560   1.475   0.020  0.00  0.00    +0.002 A 
ATOM     15  C   UNL     1      -2.871   0.117   0.008  0.00  0.00    +0.010 A 
ATOM     16  C   UNL     1      -4.191  -0.286   0.016  0.00  0.00    +0.004 A 
BRANCH  11  18
ATOM     17  C   UNL     1      -7.137   0.067  -1.413  0.00  0.00    +0.009 C 
ATOM     18  C   UNL     1      -6.644   0.209   0.029  0.00  0.00    +0.032 C 
ENDBRANCH  11  18
ENDBRANCH   5  14
ENDBRANCH   1   7
BRANCH   3  19
ATOM     19  N   UNL     1       4.802   2.133  -0.032  0.00  0.00    -0.184 NA
ATOM     20  C   UNL     1       5.722   3.049  -0.035  0.00  0.00    +0.063 C 
ATOM     21  C   UNL     1       5.334   4.506  -0.025  0.00  0.00    +0.068 C 
BRANCH  20  22
ATOM     22  C   UNL     1       7.145   2.666  -0.051  0.00  0.00    -0.002 A 
ATOM     23  C   UNL     1       8.136   3.650  -0.061  0.00  0.00    +0.013 A 
ATOM     24  C   UNL     1       9.466   3.287  -0.070  0.00  0.00    +0.046 A 
ATOM     25  C   UNL     1       9.820   1.944  -0.080  0.00  0.00    +0.117 A 
ATOM     26  C   UNL     1       8.838   0.962  -0.076  0.00  0.00    +0.046 A 
ATOM     27  C   UNL     1       7.507   1.316  -0.061  0.00  0.00    +0.013 A 
BRANCH  25  28
ATOM     28  O   UNL     1      11.132   1.590  -0.095  0.00  0.00    -0.507 OA
ATOM     29  H   UNL     1      11.503   1.492  -0.982  0.00  0.00    +0.292 HD
ENDBRANCH  25  28
ENDBRANCH  20  22
ENDBRANCH   3  19
TORSDOF 6
