REMARK  Name = ZINC19897404
REMARK  7 active torsions:
REMARK  status: ('A' for Active; 'I' for Inactive)
REMARK    1  A    between atoms: C_1  and  C_2
REMARK    2  A    between atoms: C_2  and  N_3
REMARK    3  A    between atoms: C_11  and  S_13
REMARK    4  A    between atoms: S_13  and  C_14
REMARK    5  A    between atoms: C_14  and  C_15
REMARK    6  A    between atoms: N_20  and  C_21
REMARK    7  A    between atoms: N_28  and  C_31
REMARK                            x       y       z     vdW  Elec       q    Type
REMARK                         _______ _______ _______ _____ _____    ______ ____
ROOT
ATOM      1  N   UNL     1      -5.539  -9.592   0.971  0.00  0.00    -0.329 N 
ATOM      2  C   UNL     1      -4.454  -8.743   0.854  0.00  0.00    +0.132 A 
ATOM      3  C   UNL     1      -3.132  -9.268   0.810  0.00  0.00    +0.051 A 
ATOM      4  C   UNL     1      -2.696 -10.663   0.872  0.00  0.00    -0.022 A 
ATOM      5  C   UNL     1      -1.369 -10.896   0.809  0.00  0.00    +0.010 A 
ATOM      6  S   UNL     1      -0.626  -9.294   0.663  0.00  0.00    -0.072 S 
ATOM      7  C   UNL     1      -2.103  -8.312   0.689  0.00  0.00    +0.115 A 
ATOM      8  N   UNL     1      -2.364  -7.021   0.619  0.00  0.00    -0.214 NA
ATOM      9  C   UNL     1      -3.617  -6.588   0.670  0.00  0.00    +0.191 A 
ATOM     10  N   UNL     1      -4.633  -7.435   0.783  0.00  0.00    -0.206 NA
ATOM     11  C   UNL     1      -0.692 -12.231   0.856  0.00  0.00    +0.126 C 
ATOM     12  N   UNL     1      -1.669 -13.226   1.338  0.00  0.00    -0.300 NA
ATOM     13  C   UNL     1      -2.932 -13.113   0.595  0.00  0.00    +0.089 C 
ATOM     14  C   UNL     1      -3.667 -11.834   1.001  0.00  0.00    +0.052 C 
ATOM     15  C   UNL     1      -1.123 -14.587   1.245  0.00  0.00    +0.105 C 
ATOM     16  H   UNL     1      -5.381 -10.670   1.122  0.00  0.00    +0.147 HD
ENDROOT
BRANCH   1  18
ATOM     17  C   UNL     1      -7.908 -10.197   1.050  0.00  0.00    +0.024 C 
ATOM     18  C   UNL     1      -6.901  -9.056   0.893  0.00  0.00    +0.099 C 
ENDBRANCH   1  18
BRANCH   9  19
ATOM     19  S   UNL     1      -3.939  -4.858   0.581  0.00  0.00    -0.077 S 
BRANCH  19  20
ATOM     20  C   UNL     1      -2.247  -4.230   0.442  0.00  0.00    +0.173 C 
BRANCH  20  21
ATOM     21  C   UNL     1      -2.275  -2.726   0.349  0.00  0.00    +0.231 C 
ATOM     22  O   UNL     1      -3.334  -2.137   0.374  0.00  0.00    -0.274 OA
ATOM     23  N   UNL     1      -1.123  -2.036   0.239  0.00  0.00    -0.239 N 
ATOM     24  C   UNL     1      -1.148  -0.691   0.156  0.00  0.00    +0.310 C 
ATOM     25  O   UNL     1      -2.210  -0.101   0.181  0.00  0.00    -0.252 OA
ATOM     26  N   UNL     1       0.004  -0.001   0.045  0.00  0.00    -0.269 N 
ATOM     27  H   UNL     1      -0.162  -2.571   0.216  0.00  0.00    +0.159 HD
ATOM     28  H   UNL     1       0.958  -0.538  -0.066  0.00  0.00    +0.156 HD
BRANCH  26  29
ATOM     29  C   UNL     1      -0.013   1.398   0.071  0.00  0.00    +0.035 A 
ATOM     30  C   UNL     1       0.914   2.119  -0.670  0.00  0.00    +0.023 A 
ATOM     31  C   UNL     1       0.892   3.500  -0.646  0.00  0.00    +0.002 A 
ATOM     32  C   UNL     1      -0.046   4.164   0.123  0.00  0.00    +0.000 A 
ATOM     33  C   UNL     1      -0.966   3.449   0.867  0.00  0.00    +0.002 A 
ATOM     34  C   UNL     1      -0.953   2.068   0.843  0.00  0.00    +0.023 A 
ENDBRANCH  26  29
ENDBRANCH  20  21
ENDBRANCH  19  20
ENDBRANCH   9  19
TORSDOF 5
