REMARK  Name = ZINC36709037
REMARK  6 active torsions:
REMARK  status: ('A' for Active; 'I' for Inactive)
REMARK    1  A    between atoms: C_16  and  C_18
REMARK    2  A    between atoms: C_18  and  O_19
REMARK    3  A    between atoms: O_19  and  C_20
REMARK    4  A    between atoms: C_20  and  C_22
REMARK    5  A    between atoms: C_25  and  S_28
REMARK    6  A    between atoms: S_28  and  N_31
REMARK                            x       y       z     vdW  Elec       q    Type
REMARK                         _______ _______ _______ _____ _____    ______ ____
ROOT
ATOM      1  C   UNL     1      -0.017   1.371   0.010  0.00  0.00    +0.000 A 
ATOM      2  C   UNL     1       1.168   2.085   0.002  0.00  0.00    +0.002 A 
ATOM      3  C   UNL     1       2.365   1.400  -0.028  0.00  0.00    +0.024 A 
ATOM      4  C   UNL     1       2.383   0.009  -0.042  0.00  0.00    +0.045 A 
ATOM      5  C   UNL     1       1.204  -0.717  -0.008  0.00  0.00    -0.025 A 
ATOM      6  C   UNL     1       0.002  -0.004   0.002  0.00  0.00    +0.005 A 
ATOM      7  C   UNL     1       1.047  -2.219   0.059  0.00  0.00    +0.042 C 
ATOM      8  C   UNL     1       2.374  -2.955   0.112  0.00  0.00    +0.042 C 
ATOM      9  C   UNL     1       3.191  -2.701  -1.128  0.00  0.00    -0.025 A 
ATOM     10  C   UNL     1       3.277  -3.606  -2.162  0.00  0.00    +0.005 A 
ATOM     11  C   UNL     1       4.077  -3.297  -3.253  0.00  0.00    +0.000 A 
ATOM     12  C   UNL     1       4.775  -2.103  -3.295  0.00  0.00    +0.002 A 
ATOM     13  C   UNL     1       4.674  -1.195  -2.254  0.00  0.00    +0.024 A 
ATOM     14  C   UNL     1       3.862  -1.508  -1.178  0.00  0.00    +0.045 A 
ATOM     15  N   UNL     1       3.632  -0.626  -0.112  0.00  0.00    -0.237 N 
ATOM     16  C   UNL     1       4.582  -0.395   0.816  0.00  0.00    +0.262 C 
ATOM     17  O   UNL     1       4.364   0.372   1.730  0.00  0.00    -0.271 OA
ENDROOT
BRANCH  16  18
ATOM     18  C   UNL     1       5.916  -1.090   0.718  0.00  0.00    +0.328 C 
BRANCH  18  19
ATOM     19  O   UNL     1       6.745  -0.684   1.808  0.00  0.00    -0.452 OA
BRANCH  19  20
ATOM     20  C   UNL     1       7.981  -1.218   1.868  0.00  0.00    +0.340 C 
ATOM     21  O   UNL     1       8.344  -2.006   1.018  0.00  0.00    -0.245 OA
BRANCH  20  22
ATOM     22  C   UNL     1       8.894  -0.845   2.968  0.00  0.00    +0.059 A 
ATOM     23  C   UNL     1       8.478   0.056   3.950  0.00  0.00    +0.017 A 
ATOM     24  C   UNL     1       9.335   0.400   4.974  0.00  0.00    +0.029 A 
ATOM     25  C   UNL     1      10.606  -0.146   5.030  0.00  0.00    +0.105 A 
ATOM     26  C   UNL     1      11.025  -1.039   4.059  0.00  0.00    +0.029 A 
ATOM     27  C   UNL     1      10.175  -1.397   3.033  0.00  0.00    +0.017 A 
BRANCH  25  28
ATOM     28  S   UNL     1      11.695   0.299   6.341  0.00  0.00    +0.056 S 
ATOM     29  O   UNL     1      13.015   0.073   5.867  0.00  0.00    -0.153 OA
ATOM     30  O   UNL     1      11.262   1.567   6.816  0.00  0.00    -0.153 OA
BRANCH  28  31
ATOM     31  N   UNL     1      11.444  -0.779   7.573  0.00  0.00    -0.204 NA
ATOM     32  H   UNL     1      10.787  -1.486   7.473  0.00  0.00    +0.144 HD
ATOM     33  H   UNL     1      11.953  -0.703   8.395  0.00  0.00    +0.144 HD
ENDBRANCH  28  31
ENDBRANCH  25  28
ENDBRANCH  20  22
ENDBRANCH  19  20
ENDBRANCH  18  19
ENDBRANCH  16  18
TORSDOF 6
