REMARK  Name = ZINC67021883
REMARK  5 active torsions:
REMARK  status: ('A' for Active; 'I' for Inactive)
REMARK    1  A    between atoms: C_1  and  C_2
REMARK    2  A    between atoms: C_5  and  N_21
REMARK    3  A    between atoms: C_7  and  C_8
REMARK    4  A    between atoms: N_10  and  C_11
REMARK    5  A    between atoms: C_12  and  C_19
REMARK                            x       y       z     vdW  Elec       q    Type
REMARK                         _______ _______ _______ _____ _____    ______ ____
ROOT
ATOM      1  C   UNL     1       0.243   0.021   2.481  0.00  0.00    +0.249 C 
ATOM      2  O   UNL     1       0.136   1.232   2.502  0.00  0.00    -0.270 OA
ATOM      3  N   UNL     1       0.466  -0.656   3.624  0.00  0.00    -0.275 N 
ATOM      4  H   UNL     1       0.551  -1.623   3.607  0.00  0.00    +0.156 HD
ENDROOT
BRANCH   3   5
ATOM      5  C   UNL     1       0.573   0.028   4.826  0.00  0.00    +0.090 A 
ATOM      6  C   UNL     1       0.804  -0.495   6.084  0.00  0.00    +0.084 A 
ATOM      7  C   UNL     1       0.874   0.446   7.199  0.00  0.00    -0.018 A 
ATOM      8  C   UNL     1       0.699   1.732   6.843  0.00  0.00    -0.004 A 
ATOM      9  S   UNL     1       0.461   1.681   5.085  0.00  0.00    -0.077 S 
ATOM     10  C   UNL     1       0.777   2.658   8.027  0.00  0.00    +0.043 C 
ATOM     11  C   UNL     1       0.601   1.736   9.254  0.00  0.00    +0.010 C 
ATOM     12  C   UNL     1       1.101   0.384   8.708  0.00  0.00    +0.037 C 
BRANCH   6  13
ATOM     13  C   UNL     1       0.968  -1.904   6.287  0.00  0.00    +0.102 C 
ATOM     14  N   UNL     1       1.097  -3.021   6.447  0.00  0.00    -0.191 NA
ENDBRANCH   6  13
ENDBRANCH   3   5
BRANCH   1  21
ATOM     15  C   UNL     1      -0.513   1.452   0.082  0.00  0.00    +0.044 C 
ATOM     16  C   UNL     1      -0.235  -0.028   0.036  0.00  0.00    -0.038 A 
ATOM     17  C   UNL     1      -0.335  -0.714  -1.157  0.00  0.00    +0.006 A 
ATOM     18  C   UNL     1      -0.080  -2.073  -1.200  0.00  0.00    +0.033 A 
ATOM     19  C   UNL     1       0.275  -2.754  -0.049  0.00  0.00    +0.127 A 
ATOM     20  C   UNL     1       0.377  -2.081   1.150  0.00  0.00    +0.046 A 
ATOM     21  C   UNL     1       0.128  -0.708   1.200  0.00  0.00    +0.042 A 
BRANCH  19  22
ATOM     22  N   UNL     1       0.545  -4.208  -0.105  0.00  0.00    +0.056 N 
ATOM     23  O   UNL     1       0.456  -4.800  -1.156  0.00  0.00    -0.126 OA
ATOM     24  O   UNL     1       0.856  -4.805   0.899  0.00  0.00    -0.126 OA
ENDBRANCH  19  22
ENDBRANCH   1  21
TORSDOF 4
