REMARK  Name = ZINC36593754
REMARK  11 active torsions:
REMARK  status: ('A' for Active; 'I' for Inactive)
REMARK    1  A    between atoms: C_4  and  C_7
REMARK    2  A    between atoms: C_7  and  C_8
REMARK    3  A    between atoms: C_7  and  C_33
REMARK    4  A    between atoms: C_8  and  C_9
REMARK    5  A    between atoms: C_9  and  N_10
REMARK    6  A    between atoms: C_11  and  C_13
REMARK    7  A    between atoms: C_13  and  C_14
REMARK    8  A    between atoms: C_14  and  C_15
REMARK    9  A    between atoms: N_19  and  C_23
REMARK   10  A    between atoms: C_20  and  O_22
REMARK   11  A    between atoms: C_23  and  C_24
REMARK                            x       y       z     vdW  Elec       q    Type
REMARK                         _______ _______ _______ _____ _____    ______ ____
ROOT
ATOM      1  C   UNL     1       3.369  -1.454   6.165  0.00  0.00    +0.098 C 
ENDROOT
BRANCH   1   3
ATOM      2  N   UNL     1       3.483  -1.308   3.698  0.00  0.00    -0.315 N 
ATOM      3  C   UNL     1       3.533  -0.673   4.886  0.00  0.00    +0.213 C 
ATOM      4  O   UNL     1       3.708   0.526   4.926  0.00  0.00    -0.276 OA
ATOM      5  H   UNL     1       3.342  -2.267   3.666  0.00  0.00    +0.149 HD
BRANCH   2   6
ATOM      6  C   UNL     1       3.642  -0.548   2.455  0.00  0.00    +0.105 C 
BRANCH   6   7
ATOM      7  C   UNL     1       3.546  -1.500   1.260  0.00  0.00    +0.031 C 
BRANCH   7   8
ATOM      8  C   UNL     1       3.711  -0.707  -0.038  0.00  0.00    +0.050 C 
BRANCH   8  12
ATOM      9  C   UNL     1       0.435   1.998  -0.484  0.00  0.00    +0.000 A 
ATOM     10  C   UNL     1       1.734   2.463  -0.576  0.00  0.00    +0.000 A 
ATOM     11  C   UNL     1       2.794   1.588  -0.432  0.00  0.00    +0.004 A 
ATOM     12  C   UNL     1       2.556   0.247  -0.194  0.00  0.00    -0.040 A 
ATOM     13  C   UNL     1       1.257  -0.218  -0.101  0.00  0.00    +0.004 A 
ATOM     14  C   UNL     1       0.197   0.657  -0.247  0.00  0.00    +0.000 A 
ENDBRANCH   8  12
BRANCH   8  15
ATOM     15  C   UNL     1       3.740  -1.658  -1.207  0.00  0.00    -0.040 A 
ATOM     16  C   UNL     1       2.732  -2.591  -1.363  0.00  0.00    +0.004 A 
ATOM     17  C   UNL     1       2.758  -3.463  -2.435  0.00  0.00    +0.000 A 
ATOM     18  C   UNL     1       3.791  -3.401  -3.351  0.00  0.00    +0.000 A 
ATOM     19  C   UNL     1       4.798  -2.467  -3.196  0.00  0.00    +0.000 A 
ATOM     20  C   UNL     1       4.770  -1.592  -2.126  0.00  0.00    +0.004 A 
ENDBRANCH   8  15
ENDBRANCH   7   8
ENDBRANCH   6   7
ENDBRANCH   2   6
ENDBRANCH   1   3
BRANCH   1  21
ATOM     21  C   UNL     1       3.465  -0.502   7.359  0.00  0.00    +0.045 C 
BRANCH  21  22
ATOM     22  C   UNL     1       3.300  -1.295   8.657  0.00  0.00    +0.197 C 
ATOM     23  C   UNL     1       3.317  -0.365   9.854  0.00  0.00    +0.248 C 
ATOM     24  O   UNL     1       2.542   0.534  10.102  0.00  0.00    -0.273 OA
ATOM     25  N   UNL     1       4.383  -0.756  10.585  0.00  0.00    -0.220 N 
ATOM     26  C   UNL     1       5.021  -1.810   9.984  0.00  0.00    +0.285 C 
ATOM     27  N   UNL     1       4.457  -2.177   8.875  0.00  0.00    -0.224 NA
BRANCH  26  28
ATOM     28  O   UNL     1       6.121  -2.406  10.494  0.00  0.00    -0.481 OA
ATOM     29  H   UNL     1       6.458  -3.136   9.957  0.00  0.00    +0.295 HD
ENDBRANCH  26  28
BRANCH  25  30
ATOM     30  C   UNL     1       4.800  -0.138  11.846  0.00  0.00    +0.153 C 
BRANCH  30  31
ATOM     31  C   UNL     1       4.119  -0.833  12.996  0.00  0.00    -0.026 A 
ATOM     32  C   UNL     1       2.890  -0.383  13.443  0.00  0.00    +0.009 A 
ATOM     33  C   UNL     1       2.260  -1.018  14.498  0.00  0.00    +0.050 A 
ATOM     34  C   UNL     1       2.860  -2.107  15.110  0.00  0.00    +0.166 A 
ATOM     35  C   UNL     1       4.098  -2.560  14.659  0.00  0.00    +0.167 A 
ATOM     36  C   UNL     1       4.720  -1.922  13.598  0.00  0.00    +0.054 A 
ATOM     37  O   UNL     1       4.472  -3.632  15.416  0.00  0.00    -0.453 OA
ATOM     38  C   UNL     1       3.646  -3.578  16.595  0.00  0.00    +0.466 C 
ATOM     39  O   UNL     1       2.459  -2.896  16.149  0.00  0.00    -0.453 OA
ENDBRANCH  30  31
ENDBRANCH  25  30
ENDBRANCH  21  22
ENDBRANCH   1  21
TORSDOF 11
