REMARK  Name = ZINC12869970
REMARK  16 active torsions:
REMARK  status: ('A' for Active; 'I' for Inactive)
REMARK    1  A    between atoms: C_1  and  C_2
REMARK    2  A    between atoms: C_6  and  O_19
REMARK    3  A    between atoms: C_7  and  C_18
REMARK    4  A    between atoms: C_12  and  C_13
REMARK    5  A    between atoms: C_13  and  C_14
REMARK    6  A    between atoms: C_14  and  O_16
REMARK    7  A    between atoms: O_16  and  C_17
REMARK    8  A    between atoms: O_19  and  C_20
REMARK    9  A    between atoms: C_20  and  C_22
REMARK   10  A    between atoms: C_25  and  C_28
REMARK   11  A    between atoms: C_28  and  N_29
REMARK   12  A    between atoms: C_30  and  O_32
REMARK   13  A    between atoms: O_32  and  C_33
REMARK   14  A    between atoms: C_33  and  C_34
REMARK   15  A    between atoms: C_33  and  C_35
REMARK   16  A    between atoms: C_33  and  C_36
REMARK                            x       y       z     vdW  Elec       q    Type
REMARK                         _______ _______ _______ _____ _____    ______ ____
ROOT
ATOM      1  O   UNL     1       2.242   1.289   0.995  0.00  0.00    -0.425 OA
ENDROOT
BRANCH   1   7
ATOM      2  C   UNL     1       8.581   2.134  -0.188  0.00  0.00    +0.045 C 
ATOM      3  C   UNL     1       7.541   2.990   0.488  0.00  0.00    -0.029 A 
ATOM      4  C   UNL     1       6.156   2.531   0.614  0.00  0.00    +0.021 A 
ATOM      5  C   UNL     1       5.759   1.288   0.109  0.00  0.00    +0.015 A 
ATOM      6  C   UNL     1       4.463   0.883   0.245  0.00  0.00    +0.047 A 
ATOM      7  C   UNL     1       3.529   1.704   0.873  0.00  0.00    +0.138 A 
ATOM      8  C   UNL     1       3.904   2.938   1.377  0.00  0.00    +0.035 A 
ATOM      9  C   UNL     1       5.218   3.363   1.254  0.00  0.00    +0.146 A 
ATOM     10  O   UNL     1       5.604   4.563   1.739  0.00  0.00    -0.422 OA
ATOM     11  C   UNL     1       6.872   4.989   1.626  0.00  0.00    +0.341 A 
ATOM     12  O   UNL     1       7.174   6.079   2.079  0.00  0.00    -0.245 OA
ATOM     13  C   UNL     1       7.863   4.207   0.998  0.00  0.00    +0.051 A 
ATOM     14  C   UNL     1       2.886   3.816   2.059  0.00  0.00    +0.051 C 
BRANCH  13  15
ATOM     15  C   UNL     1       9.276   4.720   0.892  0.00  0.00    +0.163 C 
BRANCH  15  16
ATOM     16  C   UNL     1      10.060   4.286   2.103  0.00  0.00    +0.311 C 
ATOM     17  O   UNL     1       9.527   3.627   2.964  0.00  0.00    -0.250 OA
BRANCH  16  18
ATOM     18  O   UNL     1      11.352   4.631   2.226  0.00  0.00    -0.468 OA
ATOM     19  C   UNL     1      12.045   4.178   3.419  0.00  0.00    +0.280 C 
ENDBRANCH  16  18
ENDBRANCH  15  16
ENDBRANCH  13  15
ENDBRANCH   1   7
BRANCH   1  20
ATOM     20  C   UNL     1       1.384   1.672   0.036  0.00  0.00    +0.315 C 
ATOM     21  O   UNL     1       1.747   2.430  -0.832  0.00  0.00    -0.250 OA
BRANCH  20  22
ATOM     22  C   UNL     1      -0.033   1.158   0.042  0.00  0.00    +0.098 C 
ATOM     23  C   UNL     1      -0.721   1.575   1.343  0.00  0.00    +0.015 C 
ATOM     24  C   UNL     1      -2.159   1.053   1.349  0.00  0.00    +0.006 C 
ATOM     25  C   UNL     1      -2.920   1.639   0.158  0.00  0.00    +0.006 C 
ATOM     26  C   UNL     1      -2.231   1.221  -1.143  0.00  0.00    +0.006 C 
ATOM     27  C   UNL     1      -0.793   1.744  -1.149  0.00  0.00    +0.015 C 
BRANCH  25  28
ATOM     28  C   UNL     1      -4.358   1.116   0.165  0.00  0.00    +0.111 C 
BRANCH  28  29
ATOM     29  N   UNL     1      -5.054   1.616   1.353  0.00  0.00    -0.281 N 
ATOM     30  C   UNL     1      -6.342   1.282   1.570  0.00  0.00    +0.401 C 
ATOM     31  O   UNL     1      -6.925   0.567   0.780  0.00  0.00    -0.226 OA
ATOM     32  H   UNL     1      -4.588   2.187   1.983  0.00  0.00    +0.152 HD
BRANCH  30  33
ATOM     33  O   UNL     1      -6.981   1.741   2.662  0.00  0.00    -0.445 OA
BRANCH  33  34
ATOM     34  C   UNL     1      -8.367   1.341   2.831  0.00  0.00    +0.107 C 
ATOM     35  C   UNL     1      -8.450  -0.184   2.917  0.00  0.00    +0.055 C 
ATOM     36  C   UNL     1      -8.921   1.956   4.118  0.00  0.00    +0.055 C 
ATOM     37  C   UNL     1      -9.189   1.831   1.637  0.00  0.00    +0.055 C 
ENDBRANCH  33  34
ENDBRANCH  30  33
ENDBRANCH  28  29
ENDBRANCH  25  28
ENDBRANCH  20  22
ENDBRANCH   1  20
TORSDOF 10
