REMARK  Name = ZINC22531974
REMARK  9 active torsions:
REMARK  status: ('A' for Active; 'I' for Inactive)
REMARK    1  A    between atoms: C_1  and  O_2
REMARK    2  A    between atoms: O_2  and  C_3
REMARK    3  A    between atoms: C_6  and  C_11
REMARK    4  A    between atoms: C_7  and  O_9
REMARK    5  A    between atoms: O_9  and  C_10
REMARK    6  A    between atoms: C_17  and  C_19
REMARK    7  A    between atoms: C_19  and  S_20
REMARK    8  A    between atoms: S_20  and  C_21
REMARK    9  A    between atoms: N_26  and  C_27
REMARK                            x       y       z     vdW  Elec       q    Type
REMARK                         _______ _______ _______ _____ _____    ______ ____
ROOT
ATOM      1  C   UNL     1      -3.364   9.945   0.073  0.00  0.00    +0.084 A 
ATOM      2  C   UNL     1      -4.607   9.377   0.076  0.00  0.00    +0.077 A 
ATOM      3  S   UNL     1      -4.178   7.641   0.065  0.00  0.00    -0.060 S 
ATOM      4  C   UNL     1      -2.403   7.850   0.057  0.00  0.00    +0.165 A 
ATOM      5  N   UNL     1      -2.293   9.166   0.069  0.00  0.00    -0.224 NA
ATOM      6  N   UNL     1      -1.404   6.885   0.046  0.00  0.00    -0.264 N 
ATOM      7  C   UNL     1      -1.730   5.577   0.041  0.00  0.00    +0.229 C 
ATOM      8  O   UNL     1      -2.896   5.243   0.045  0.00  0.00    -0.275 OA
ATOM      9  H   UNL     1      -0.346   7.188   0.043  0.00  0.00    +0.157 HD
ENDROOT
BRANCH   1  13
ATOM     10  C   UNL     1      -2.940  14.181   0.093  0.00  0.00    +0.124 A 
ATOM     11  C   UNL     1      -4.205  13.609   0.097  0.00  0.00    +0.046 A 
ATOM     12  C   UNL     1      -4.346  12.236   0.085  0.00  0.00    +0.017 A 
ATOM     13  C   UNL     1      -3.216  11.421   0.080  0.00  0.00    +0.043 A 
ATOM     14  C   UNL     1      -1.942  11.998   0.076  0.00  0.00    +0.133 A 
ATOM     15  C   UNL     1      -1.810  13.376   0.083  0.00  0.00    +0.092 A 
BRANCH  10  17
ATOM     16  C   UNL     1      -4.012  16.303   0.109  0.00  0.00    +0.277 C 
ATOM     17  O   UNL     1      -2.808  15.534   0.099  0.00  0.00    -0.495 OA
ENDBRANCH  10  17
BRANCH  14  18
ATOM     18  O   UNL     1      -0.837  11.208   0.065  0.00  0.00    -0.494 OA
ATOM     19  C   UNL     1       0.431  11.867   0.062  0.00  0.00    +0.277 C 
ENDBRANCH  14  18
ENDBRANCH   1  13
BRANCH   7  20
ATOM     20  C   UNL     1      -0.646   4.530   0.030  0.00  0.00    +0.172 C 
BRANCH  20  21
ATOM     21  S   UNL     1      -1.400   2.880   0.025  0.00  0.00    -0.088 S 
BRANCH  21  22
ATOM     22  C   UNL     1      -0.022   1.782   0.012  0.00  0.00    +0.160 A 
ATOM     23  N   UNL     1       1.268   2.059   0.001  0.00  0.00    -0.133 NA
ATOM     24  N   UNL     1       2.187   1.036  -0.013  0.00  0.00    -0.125 NA
ATOM     25  C   UNL     1       1.776  -0.216  -0.016  0.00  0.00    +0.183 A 
ATOM     26  S   UNL     1       0.002  -0.004   0.002  0.00  0.00    -0.025 S 
ATOM     27  N   UNL     1       2.522  -1.389  -0.029  0.00  0.00    -0.319 N 
ATOM     28  H   UNL     1       2.014  -2.365  -0.030  0.00  0.00    +0.148 HD
BRANCH  27  29
ATOM     29  C   UNL     1       3.986  -1.325  -0.043  0.00  0.00    +0.072 C 
ATOM     30  C   UNL     1       4.476  -1.170  -1.484  0.00  0.00    +0.022 C 
ATOM     31  C   UNL     1       6.005  -1.103  -1.498  0.00  0.00    +0.002 C 
ATOM     32  C   UNL     1       6.577  -2.390  -0.901  0.00  0.00    +0.000 C 
ATOM     33  C   UNL     1       6.086  -2.546   0.540  0.00  0.00    +0.002 C 
ATOM     34  C   UNL     1       4.558  -2.612   0.554  0.00  0.00    +0.022 C 
ENDBRANCH  27  29
ENDBRANCH  21  22
ENDBRANCH  20  21
ENDBRANCH   7  20
TORSDOF 7
