REMARK  Name = ZINC00740671
REMARK  5 active torsions:
REMARK  status: ('A' for Active; 'I' for Inactive)
REMARK    1  A    between atoms: C_1  and  C_2
REMARK    2  A    between atoms: C_2  and  N_3
REMARK    3  A    between atoms: N_6  and  C_7
REMARK    4  A    between atoms: C_10  and  N_13
REMARK    5  A    between atoms: C_19  and  C_21
REMARK                            x       y       z     vdW  Elec       q    Type
REMARK                         _______ _______ _______ _____ _____    ______ ____
ROOT
ATOM      1  N   UNL     1       1.161   3.622   0.290  0.00  0.00    -0.327 N 
ATOM      2  C   UNL     1       0.141   4.085  -0.660  0.00  0.00    +0.124 C 
ATOM      3  C   UNL     1       0.036   5.612  -0.588  0.00  0.00    +0.126 C 
ATOM      4  N   UNL     1       1.377   6.183  -0.788  0.00  0.00    -0.298 N 
ATOM      5  C   UNL     1       2.482   5.669   0.036  0.00  0.00    +0.126 C 
ATOM      6  C   UNL     1       2.491   4.139  -0.060  0.00  0.00    +0.124 C 
ATOM      7  C   UNL     1       1.588   7.151  -1.701  0.00  0.00    +0.228 C 
ATOM      8  O   UNL     1       2.715   7.543  -1.921  0.00  0.00    -0.275 OA
ENDROOT
BRANCH   7   9
ATOM      9  C   UNL     1       0.424   7.747  -2.450  0.00  0.00    +0.142 C 
ATOM     10  C   UNL     1       0.875   8.155  -3.826  0.00  0.00    +0.011 A 
ATOM     11  C   UNL     1       1.029   7.188  -4.804  0.00  0.00    +0.008 A 
ATOM     12  C   UNL     1       1.441   7.543  -6.075  0.00  0.00    +0.001 A 
ATOM     13  C   UNL     1       1.702   8.868  -6.373  0.00  0.00    +0.004 A 
ATOM     14  C   UNL     1       1.550   9.836  -5.401  0.00  0.00    +0.046 A 
ATOM     15  C   UNL     1       1.135   9.483  -4.122  0.00  0.00    +0.133 A 
ATOM     16  O   UNL     1       0.991  10.448  -3.182  0.00  0.00    -0.455 OA
ATOM     17  C   UNL     1       0.213  10.226  -2.096  0.00  0.00    +0.133 A 
ATOM     18  C   UNL     1      -0.097   8.938  -1.692  0.00  0.00    +0.011 A 
ATOM     19  C   UNL     1      -0.894   8.738  -0.579  0.00  0.00    +0.008 A 
ATOM     20  C   UNL     1      -1.382   9.819   0.131  0.00  0.00    +0.001 A 
ATOM     21  C   UNL     1      -1.074  11.106  -0.270  0.00  0.00    +0.004 A 
ATOM     22  C   UNL     1      -0.279  11.311  -1.379  0.00  0.00    +0.046 A 
ENDBRANCH   7   9
BRANCH   1  26
ATOM     23  C   UNL     1       1.194  -0.539   0.536  0.00  0.00    +0.035 A 
ATOM     24  C   UNL     1       0.020   0.161   0.776  0.00  0.00    +0.025 A 
ATOM     25  C   UNL     1       0.008   1.540   0.695  0.00  0.00    +0.025 A 
ATOM     26  C   UNL     1       1.172   2.226   0.373  0.00  0.00    +0.030 A 
ATOM     27  C   UNL     1       2.347   1.525   0.133  0.00  0.00    +0.025 A 
ATOM     28  C   UNL     1       2.358   0.147   0.215  0.00  0.00    +0.025 A 
BRANCH  23  32
ATOM     29  N   UNL     1       0.177  -3.993   0.209  0.00  0.00    -0.299 N 
ATOM     30  C   UNL     1       0.132  -2.646   0.216  0.00  0.00    +0.304 C 
ATOM     31  O   UNL     1      -0.876  -2.070  -0.143  0.00  0.00    -0.253 OA
ATOM     32  N   UNL     1       1.206  -1.938   0.620  0.00  0.00    -0.269 N 
ATOM     33  H   UNL     1       1.089  -4.515   0.534  0.00  0.00    +0.150 HD
ATOM     34  H   UNL     1       2.091  -2.459   1.015  0.00  0.00    +0.156 HD
BRANCH  29  36
ATOM     35  C   UNL     1      -0.678  -6.258  -0.141  0.00  0.00    +0.024 C 
ATOM     36  C   UNL     1      -0.990  -4.763  -0.230  0.00  0.00    +0.102 C 
ENDBRANCH  29  36
ENDBRANCH  23  32
ENDBRANCH   1  26
TORSDOF 4
