REMARK  Name = ZINC22681973
REMARK  12 active torsions:
REMARK  status: ('A' for Active; 'I' for Inactive)
REMARK    1  A    between atoms: C_1  and  C_2
REMARK    2  A    between atoms: C_2  and  N_3
REMARK    3  A    between atoms: N_3  and  C_4
REMARK    4  A    between atoms: N_3  and  C_6
REMARK    5  A    between atoms: C_4  and  C_5
REMARK    6  A    between atoms: C_6  and  C_8
REMARK    7  A    between atoms: C_6  and  C_28
REMARK    8  A    between atoms: C_8  and  N_9
REMARK    9  A    between atoms: C_10  and  C_12
REMARK   10  A    between atoms: C_12  and  N_13
REMARK   11  A    between atoms: C_16  and  C_20
REMARK   12  A    between atoms: C_16  and  C_21
REMARK                            x       y       z     vdW  Elec       q    Type
REMARK                         _______ _______ _______ _____ _____    ______ ____
ROOT
ATOM      1  N   UNL     1       0.524   0.782  -0.341  0.00  0.00    -0.315 N 
ATOM      2  C   UNL     1       1.688   1.345  -0.720  0.00  0.00    +0.231 C 
ATOM      3  O   UNL     1       1.747   2.540  -0.919  0.00  0.00    -0.274 OA
ATOM      4  H   UNL     1       0.472  -0.301  -0.156  0.00  0.00    +0.149 HD
ENDROOT
BRANCH   1   5
ATOM      5  C   UNL     1      -0.672   1.611  -0.175  0.00  0.00    +0.093 C 
BRANCH   5   6
ATOM      6  C   UNL     1      -1.875   0.716   0.127  0.00  0.00    -0.019 C 
BRANCH   6   7
ATOM      7  C   UNL     1      -3.095   1.573   0.348  0.00  0.00    -0.041 A 
ATOM      8  C   UNL     1      -4.058   1.674  -0.639  0.00  0.00    +0.003 A 
ATOM      9  C   UNL     1      -5.179   2.456  -0.434  0.00  0.00    +0.000 A 
ATOM     10  C   UNL     1      -5.334   3.146   0.754  0.00  0.00    +0.001 A 
ATOM     11  C   UNL     1      -4.370   3.050   1.740  0.00  0.00    +0.020 A 
ATOM     12  C   UNL     1      -3.249   2.263   1.537  0.00  0.00    +0.043 A 
ATOM     13 CL   UNL     1      -2.038   2.143   2.775  0.00  0.00    -0.083 Cl
ENDBRANCH   6   7
BRANCH   6  14
ATOM     14  N   UNL     1      -2.111  -0.187  -1.008  0.00  0.00    +0.385 N 
ATOM     15  H   UNL     1      -3.198  -0.266  -1.157  0.00  0.00    -0.081 HD
BRANCH  14  17
ATOM     16  C   UNL     1      -2.392   1.501  -2.760  0.00  0.00    -0.017 C 
ATOM     17  C   UNL     1      -1.523   0.353  -2.241  0.00  0.00    -0.081 C 
ENDBRANCH  14  17
BRANCH  14  18
ATOM     18  C   UNL     1      -1.596  -1.533  -0.724  0.00  0.00    -0.081 C 
ATOM     19  C   UNL     1      -2.526  -2.237   0.265  0.00  0.00    -0.017 C 
ENDBRANCH  14  18
ENDBRANCH   6  14
ENDBRANCH   5   6
ENDBRANCH   1   5
BRANCH   2  20
ATOM     20  C   UNL     1       2.917   0.491  -0.896  0.00  0.00    +0.213 C 
BRANCH  20  21
ATOM     21  N   UNL     1       4.043   1.334  -1.308  0.00  0.00    -0.215 N 
ATOM     22  C   UNL     1       4.892   1.934  -0.452  0.00  0.00    +0.251 C 
ATOM     23  O   UNL     1       4.870   1.882   0.759  0.00  0.00    -0.272 OA
ATOM     24  C   UNL     1       5.881   2.689  -1.318  0.00  0.00    +0.135 C 
ATOM     25  N   UNL     1       5.432   2.399  -2.690  0.00  0.00    -0.281 N 
ATOM     26  C   UNL     1       4.357   1.597  -2.582  0.00  0.00    +0.310 C 
ATOM     27  O   UNL     1       3.739   1.164  -3.534  0.00  0.00    -0.252 OA
ATOM     28  C   UNL     1       5.809   4.190  -1.033  0.00  0.00    +0.047 C 
ATOM     29  H   UNL     1       5.972   2.827  -3.548  0.00  0.00    +0.152 HD
BRANCH  24  30
ATOM     30  C   UNL     1       7.280   2.173  -1.098  0.00  0.00    -0.015 A 
ATOM     31  C   UNL     1       7.640   1.656   0.133  0.00  0.00    +0.009 A 
ATOM     32  C   UNL     1       8.921   1.177   0.334  0.00  0.00    +0.039 A 
ATOM     33  C   UNL     1       9.847   1.226  -0.694  0.00  0.00    +0.123 A 
ATOM     34  C   UNL     1       9.487   1.749  -1.924  0.00  0.00    +0.039 A 
ATOM     35  C   UNL     1       8.204   2.221  -2.125  0.00  0.00    +0.009 A 
ATOM     36  F   UNL     1      11.101   0.764  -0.496  0.00  0.00    -0.205 F 
ENDBRANCH  24  30
ENDBRANCH  20  21
ENDBRANCH   2  20
TORSDOF 9
