REMARK  Name = ZINC15200495
REMARK  3 active torsions:
REMARK  status: ('A' for Active; 'I' for Inactive)
REMARK    1  A    between atoms: C_1  and  C_2
REMARK    2  A    between atoms: C_2  and  C_4
REMARK    3  A    between atoms: C_10  and  C_12
REMARK                            x       y       z     vdW  Elec       q    Type
REMARK                         _______ _______ _______ _____ _____    ______ ____
ROOT
ATOM      1  C   UNL     1      -7.290  -0.840   0.057  0.00  0.00    +0.142 C 
ATOM      2  C   UNL     1      -7.527   0.009   1.276  0.00  0.00    +0.011 A 
ATOM      3  C   UNL     1      -7.085   1.321   1.287  0.00  0.00    +0.008 A 
ATOM      4  C   UNL     1      -7.294   2.116   2.397  0.00  0.00    +0.001 A 
ATOM      5  C   UNL     1      -7.946   1.602   3.504  0.00  0.00    +0.004 A 
ATOM      6  C   UNL     1      -8.388   0.295   3.499  0.00  0.00    +0.046 A 
ATOM      7  C   UNL     1      -8.180  -0.508   2.383  0.00  0.00    +0.133 A 
ATOM      8  O   UNL     1      -8.622  -1.788   2.397  0.00  0.00    -0.455 OA
ATOM      9  C   UNL     1      -8.821  -2.449   1.231  0.00  0.00    +0.133 A 
ATOM     10  C   UNL     1      -8.201  -2.036   0.062  0.00  0.00    +0.011 A 
ATOM     11  C   UNL     1      -8.420  -2.728  -1.115  0.00  0.00    +0.008 A 
ATOM     12  C   UNL     1      -9.255  -3.830  -1.130  0.00  0.00    +0.001 A 
ATOM     13  C   UNL     1      -9.875  -4.244   0.034  0.00  0.00    +0.004 A 
ATOM     14  C   UNL     1      -9.659  -3.558   1.213  0.00  0.00    +0.046 A 
ENDROOT
BRANCH   1  21
ATOM     15  C   UNL     1      -1.255  -0.753   0.010  0.00  0.00    +0.115 A 
ATOM     16  C   UNL     1      -1.255  -2.134   0.008  0.00  0.00    +0.079 A 
ATOM     17  S   UNL     1      -2.897  -2.499   0.020  0.00  0.00    -0.060 S 
ATOM     18  C   UNL     1      -3.534  -0.833   0.027  0.00  0.00    +0.165 A 
ATOM     19  N   UNL     1      -2.431  -0.115   0.025  0.00  0.00    -0.222 NA
ATOM     20  N   UNL     1      -4.855  -0.404   0.038  0.00  0.00    -0.264 N 
ATOM     21  C   UNL     1      -5.856  -1.305   0.045  0.00  0.00    +0.231 C 
ATOM     22  O   UNL     1      -5.604  -2.492   0.042  0.00  0.00    -0.274 OA
ATOM     23  H   UNL     1      -5.056   0.545   0.041  0.00  0.00    +0.157 HD
BRANCH  15  25
ATOM     24  C   UNL     1      -0.018   1.503   0.010  0.00  0.00    +0.093 C 
ATOM     25  C   UNL     1       0.002  -0.004   0.002  0.00  0.00    +0.179 C 
ATOM     26  O   UNL     1       1.061  -0.597  -0.011  0.00  0.00    -0.291 OA
ENDBRANCH  15  25
ENDBRANCH   1  21
TORSDOF 2
