REMARK  Name = ZINC39637242
REMARK  8 active torsions:
REMARK  status: ('A' for Active; 'I' for Inactive)
REMARK    1  A    between atoms: C_1  and  C_2
REMARK    2  A    between atoms: C_2  and  C_3
REMARK    3  A    between atoms: C_3  and  C_5
REMARK    4  A    between atoms: C_3  and  C_6
REMARK    5  A    between atoms: C_10  and  C_19
REMARK    6  A    between atoms: N_21  and  C_22
REMARK    7  A    between atoms: C_27  and  C_32
REMARK    8  A    between atoms: C_29  and  C_31
REMARK                            x       y       z     vdW  Elec       q    Type
REMARK                         _______ _______ _______ _____ _____    ______ ____
ROOT
ATOM      1  C   UNL     1       0.816  -2.146  -1.187  0.00  0.00    +0.218 C 
ATOM      2  O   UNL     1       0.432  -2.779  -0.227  0.00  0.00    -0.275 OA
ATOM      3  N   UNL     1       1.451  -2.773  -2.197  0.00  0.00    -0.300 N 
ATOM      4  C   UNL     1       1.995  -2.174  -3.439  0.00  0.00    +0.121 C 
ATOM      5  C   UNL     1       3.329  -2.915  -3.678  0.00  0.00    +0.100 C 
ATOM      6  C   UNL     1       3.171  -4.255  -2.941  0.00  0.00    -0.004 C 
ATOM      7  C   UNL     1       1.770  -4.216  -2.313  0.00  0.00    +0.115 C 
ATOM      8  C   UNL     1       3.278  -5.416  -3.925  0.00  0.00    -0.010 C 
ATOM      9  C   UNL     1       3.176  -6.739  -3.161  0.00  0.00    -0.082 C 
ATOM     10  N   UNL     1       4.252  -6.815  -2.166  0.00  0.00    +0.379 N 
ATOM     11  C   UNL     1       4.088  -5.750  -1.169  0.00  0.00    -0.082 C 
ATOM     12  C   UNL     1       4.229  -4.385  -1.849  0.00  0.00    -0.010 C 
ATOM     13  H   UNL     1       4.220  -7.713  -1.706  0.00  0.00    -0.086 HD
ATOM     14  H   UNL     1       5.143  -6.708  -2.627  0.00  0.00    -0.086 HD
ENDROOT
BRANCH   5  15
ATOM     15  C   UNL     1       3.544  -3.146  -5.152  0.00  0.00    +0.218 C 
ATOM     16  O   UNL     1       2.592  -3.303  -5.886  0.00  0.00    -0.275 OA
ATOM     17  N   UNL     1       4.795  -3.178  -5.653  0.00  0.00    -0.312 N 
ATOM     18  H   UNL     1       5.556  -3.052  -5.066  0.00  0.00    +0.149 HD
BRANCH  17  19
ATOM     19  C   UNL     1       5.004  -3.403  -7.086  0.00  0.00    +0.076 C 
ATOM     20  C   UNL     1       5.008  -4.906  -7.371  0.00  0.00    +0.022 C 
ATOM     21  C   UNL     1       5.227  -5.140  -8.867  0.00  0.00    +0.002 C 
ATOM     22  C   UNL     1       6.569  -4.537  -9.287  0.00  0.00    +0.003 C 
ATOM     23  C   UNL     1       6.564  -3.034  -9.002  0.00  0.00    -0.009 C 
ATOM     24  C   UNL     1       6.346  -2.800  -7.506  0.00  0.00    +0.009 C 
ATOM     25  C   UNL     1       7.474  -3.465  -6.716  0.00  0.00    +0.009 C 
ATOM     26  C   UNL     1       7.906  -2.431  -9.422  0.00  0.00    +0.008 C 
ENDBRANCH  17  19
ENDBRANCH   5  15
BRANCH   1  27
ATOM     27  C   UNL     1       0.583  -0.659  -1.251  0.00  0.00    +0.072 C 
ATOM     28  C   UNL     1      -0.264  -0.328  -2.482  0.00  0.00    +0.017 C 
BRANCH  27  30
ATOM     29  C   UNL     1      -0.280   1.322   0.004  0.00  0.00    +0.004 C 
ATOM     30  C   UNL     1      -0.153  -0.203   0.011  0.00  0.00    +0.009 C 
ENDBRANCH  27  30
ENDBRANCH   1  27
TORSDOF 4
