REMARK  Name = ZINC04082258
REMARK  12 active torsions:
REMARK  status: ('A' for Active; 'I' for Inactive)
REMARK    1  A    between atoms: C_1  and  O_2
REMARK    2  A    between atoms: O_2  and  C_3
REMARK    3  A    between atoms: C_6  and  C_11
REMARK    4  A    between atoms: C_8  and  O_9
REMARK    5  A    between atoms: O_9  and  C_10
REMARK    6  A    between atoms: C_16  and  C_26
REMARK    7  A    between atoms: C_28  and  O_36
REMARK    8  A    between atoms: C_29  and  O_34
REMARK    9  A    between atoms: C_31  and  O_32
REMARK   10  A    between atoms: O_32  and  C_33
REMARK   11  A    between atoms: O_34  and  C_35
REMARK   12  A    between atoms: O_36  and  C_37
REMARK                            x       y       z     vdW  Elec       q    Type
REMARK                         _______ _______ _______ _____ _____    ______ ____
ROOT
ATOM      1  C   UNL     1      -2.921   0.973   0.244  0.00  0.00    +0.032 C 
ATOM      2  C   UNL     1      -2.624  -0.014   1.372  0.00  0.00    +0.059 C 
ATOM      3  C   UNL     1      -3.807  -0.948   1.566  0.00  0.00    +0.017 C 
ATOM      4  C   UNL     1      -4.566  -1.311   0.519  0.00  0.00    +0.037 C 
ATOM      5  C   UNL     1      -5.751  -2.247   0.565  0.00  0.00    +0.140 C 
ATOM      6  N   UNL     1      -6.215  -2.561   1.899  0.00  0.00    -0.331 N 
ATOM      7  C   UNL     1      -5.411  -3.264   2.795  0.00  0.00    +0.049 A 
ATOM      8  C   UNL     1      -5.733  -4.551   3.198  0.00  0.00    +0.025 A 
ATOM      9  C   UNL     1      -4.851  -5.252   4.002  0.00  0.00    +0.002 A 
ATOM     10  C   UNL     1      -3.659  -4.675   4.403  0.00  0.00    +0.002 A 
ATOM     11  C   UNL     1      -3.345  -3.382   4.019  0.00  0.00    +0.025 A 
ATOM     12  C   UNL     1      -4.234  -2.674   3.229  0.00  0.00    +0.052 A 
ATOM     13  N   UNL     1      -4.001  -1.359   2.845  0.00  0.00    -0.316 N 
ATOM     14  C   UNL     1      -4.287  -0.806  -0.773  0.00  0.00    +0.163 C 
ATOM     15  O   UNL     1      -4.976  -1.169  -1.706  0.00  0.00    -0.292 OA
ATOM     16  C   UNL     1      -3.171   0.162  -1.032  0.00  0.00    +0.088 C 
ATOM     17  H   UNL     1      -7.101  -2.277   2.175  0.00  0.00    +0.147 HD
ATOM     18  H   UNL     1      -3.976  -0.685   3.543  0.00  0.00    +0.152 HD
ENDROOT
BRANCH   1  22
ATOM     19  C   UNL     1       0.429   3.569  -0.330  0.00  0.00    +0.161 A 
ATOM     20  C   UNL     1       0.584   2.197  -0.448  0.00  0.00    +0.049 A 
ATOM     21  C   UNL     1      -0.500   1.360  -0.259  0.00  0.00    +0.008 A 
ATOM     22  C   UNL     1      -1.741   1.889   0.044  0.00  0.00    -0.040 A 
ATOM     23  C   UNL     1      -1.901   3.257   0.169  0.00  0.00    +0.053 A 
ATOM     24  C   UNL     1      -0.819   4.101  -0.019  0.00  0.00    +0.162 A 
BRANCH  19  26
ATOM     25  C   UNL     1       2.744   3.777  -0.833  0.00  0.00    +0.277 C 
ATOM     26  O   UNL     1       1.494   4.393  -0.516  0.00  0.00    -0.491 OA
ENDBRANCH  19  26
BRANCH  24  27
ATOM     27  O   UNL     1      -0.975   5.447   0.098  0.00  0.00    -0.491 OA
ATOM     28  C   UNL     1      -2.284   5.922   0.419  0.00  0.00    +0.277 C 
ENDBRANCH  24  27
ENDBRANCH   1  22
BRANCH   5  29
ATOM     29  C   UNL     1      -5.371  -3.532  -0.124  0.00  0.00    +0.023 A 
ATOM     30  C   UNL     1      -4.039  -3.831  -0.343  0.00  0.00    +0.058 A 
ATOM     31  C   UNL     1      -3.687  -5.012  -0.975  0.00  0.00    +0.162 A 
ATOM     32  C   UNL     1      -4.676  -5.899  -1.391  0.00  0.00    +0.165 A 
ATOM     33  C   UNL     1      -6.010  -5.598  -1.171  0.00  0.00    +0.095 A 
ATOM     34  C   UNL     1      -6.357  -4.417  -0.532  0.00  0.00    +0.129 A 
BRANCH  34  35
ATOM     35  O   UNL     1      -7.667  -4.124  -0.310  0.00  0.00    -0.495 OA
ATOM     36  C   UNL     1      -8.630  -5.081  -0.756  0.00  0.00    +0.277 C 
ENDBRANCH  34  35
BRANCH  32  37
ATOM     37  O   UNL     1      -4.333  -7.058  -2.012  0.00  0.00    -0.491 OA
ATOM     38  C   UNL     1      -5.400  -7.921  -2.411  0.00  0.00    +0.277 C 
ENDBRANCH  32  37
BRANCH  31  39
ATOM     39  O   UNL     1      -2.376  -5.305  -1.190  0.00  0.00    -0.491 OA
ATOM     40  C   UNL     1      -1.411  -4.406  -0.638  0.00  0.00    +0.277 C 
ENDBRANCH  31  39
ENDBRANCH   5  29
TORSDOF 7
