REMARK  Name = ZINC16788468
REMARK  8 active torsions:
REMARK  status: ('A' for Active; 'I' for Inactive)
REMARK    1  A    between atoms: C_1  and  C_2
REMARK    2  A    between atoms: C_2  and  C_4
REMARK    3  A    between atoms: C_2  and  S_19
REMARK    4  A    between atoms: N_6  and  C_7
REMARK    5  A    between atoms: C_8  and  C_17
REMARK    6  A    between atoms: S_19  and  C_20
REMARK    7  A    between atoms: C_23  and  C_26
REMARK    8  A    between atoms: N_24  and  N_25
REMARK                            x       y       z     vdW  Elec       q    Type
REMARK                         _______ _______ _______ _____ _____    ______ ____
ROOT
ATOM      1  C   UNL     1       6.779   5.802  -1.290  0.00  0.00    +0.029 C 
ATOM      2  C   UNL     1       6.416   6.619  -0.048  0.00  0.00    +0.137 C 
ENDROOT
BRANCH   2   3
ATOM      3  C   UNL     1       7.290   7.844   0.021  0.00  0.00    +0.231 C 
ATOM      4  O   UNL     1       6.862   8.917  -0.349  0.00  0.00    -0.274 OA
ATOM      5  N   UNL     1       8.548   7.748   0.495  0.00  0.00    -0.278 N 
ATOM      6  H   UNL     1       8.891   6.891   0.791  0.00  0.00    +0.155 HD
BRANCH   5   7
ATOM      7  C   UNL     1       9.354   8.877   0.559  0.00  0.00    +0.090 A 
ATOM      8  C   UNL     1      10.659   8.978   1.009  0.00  0.00    +0.084 A 
ATOM      9  C   UNL     1      11.290  10.290   0.971  0.00  0.00    -0.018 A 
ATOM     10  C   UNL     1      10.508  11.284   0.497  0.00  0.00    -0.004 A 
ATOM     11  S   UNL     1       8.973  10.499   0.087  0.00  0.00    -0.077 S 
ATOM     12  C   UNL     1      10.857  12.732   0.348  0.00  0.00    +0.043 C 
ATOM     13  C   UNL     1      12.211  12.855  -0.363  0.00  0.00    +0.005 C 
ATOM     14  C   UNL     1      13.313  12.848   0.692  0.00  0.00    +0.001 C 
ATOM     15  C   UNL     1      12.908  11.964   1.870  0.00  0.00    +0.005 C 
ATOM     16  C   UNL     1      12.729  10.520   1.416  0.00  0.00    +0.037 C 
BRANCH   8  17
ATOM     17  C   UNL     1      11.366   7.832   1.496  0.00  0.00    +0.102 C 
ATOM     18  N   UNL     1      11.926   6.922   1.883  0.00  0.00    -0.191 NA
ENDBRANCH   8  17
ENDBRANCH   5   7
ENDBRANCH   2   3
BRANCH   2  19
ATOM     19  S   UNL     1       4.679   7.122  -0.144  0.00  0.00    -0.072 S 
BRANCH  19  20
ATOM     20  C   UNL     1       3.899   5.544  -0.061  0.00  0.00    +0.209 A 
ATOM     21  N   UNL     1       4.502   4.380   0.041  0.00  0.00    -0.121 NA
ATOM     22  N   UNL     1       3.633   3.435   0.076  0.00  0.00    -0.127 NA
ATOM     23  C   UNL     1       2.422   3.936  -0.000  0.00  0.00    +0.184 A 
ATOM     24  N   UNL     1       2.555   5.302  -0.096  0.00  0.00    -0.224 N 
BRANCH  23  25
ATOM     25  C   UNL     1       1.154   3.175   0.008  0.00  0.00    +0.056 A 
ATOM     26  C   UNL     1       0.156   3.465  -0.924  0.00  0.00    +0.014 A 
ATOM     27  C   UNL     1      -1.024   2.752  -0.910  0.00  0.00    +0.001 A 
ATOM     28  C   UNL     1      -1.225   1.755   0.028  0.00  0.00    +0.003 A 
ATOM     29  C   UNL     1      -0.239   1.457   0.951  0.00  0.00    +0.039 A 
ATOM     30  C   UNL     1       0.949   2.163   0.950  0.00  0.00    +0.134 A 
ATOM     31  F   UNL     1       1.910   1.875   1.855  0.00  0.00    -0.205 F 
ENDBRANCH  23  25
BRANCH  24  32
ATOM     32  N   UNL     1       1.553   6.223  -0.202  0.00  0.00    -0.295 N 
ATOM     33  H   UNL     1       1.252   6.537   0.709  0.00  0.00    +0.163 HD
ATOM     34  H   UNL     1       1.837   7.002  -0.777  0.00  0.00    +0.163 HD
ENDBRANCH  24  32
ENDBRANCH  19  20
ENDBRANCH   2  19
TORSDOF 7
