REMARK  Name = ZINC24090482
REMARK  8 active torsions:
REMARK  status: ('A' for Active; 'I' for Inactive)
REMARK    1  A    between atoms: C_1  and  C_2
REMARK    2  A    between atoms: C_2  and  C_4
REMARK    3  A    between atoms: C_2  and  N_31
REMARK    4  A    between atoms: C_7  and  S_16
REMARK    5  A    between atoms: N_8  and  C_9
REMARK    6  A    between atoms: S_16  and  C_17
REMARK    7  A    between atoms: C_17  and  C_18
REMARK    8  A    between atoms: C_18  and  C_20
REMARK                            x       y       z     vdW  Elec       q    Type
REMARK                         _______ _______ _______ _____ _____    ______ ____
ROOT
ATOM      1  C   UNL     1      -0.731   2.002  -1.204  0.00  0.00    +0.125 A 
ATOM      2  N   UNL     1      -1.904   1.636  -1.636  0.00  0.00    -0.135 NA
ATOM      3  N   UNL     1      -2.212   2.295  -2.695  0.00  0.00    -0.122 NA
ATOM      4  C   UNL     1      -1.242   3.126  -3.002  0.00  0.00    +0.196 A 
ATOM      5  N   UNL     1      -0.267   2.970  -2.055  0.00  0.00    -0.275 N 
ENDROOT
BRANCH   5   6
ATOM      6  C   UNL     1       0.955   3.655  -1.976  0.00  0.00    +0.050 A 
ATOM      7  C   UNL     1       1.207   4.503  -0.906  0.00  0.00    +0.029 A 
ATOM      8  C   UNL     1       2.412   5.173  -0.826  0.00  0.00    +0.040 A 
ATOM      9  C   UNL     1       3.364   5.007  -1.818  0.00  0.00    +0.124 A 
ATOM     10  C   UNL     1       3.112   4.166  -2.889  0.00  0.00    +0.040 A 
ATOM     11  C   UNL     1       1.910   3.491  -2.969  0.00  0.00    +0.029 A 
ATOM     12  F   UNL     1       4.540   5.667  -1.741  0.00  0.00    -0.205 F 
ENDBRANCH   5   6
BRANCH   1  14
ATOM     13  C   UNL     1      -0.691   2.001   1.275  0.00  0.00    -0.005 C 
ATOM     14  C   UNL     1      -0.018   1.465   0.010  0.00  0.00    -0.002 C 
BRANCH  14  15
ATOM     15  N   UNL     1      -0.082  -0.003   0.006  0.00  0.00    +0.386 N 
ATOM     16  C   UNL     1       0.630  -0.564   1.161  0.00  0.00    -0.078 C 
ATOM     17  C   UNL     1       0.420  -2.079   1.205  0.00  0.00    -0.019 C 
ATOM     18  C   UNL     1       0.946  -2.700  -0.092  0.00  0.00    -0.004 C 
ATOM     19  C   UNL     1       0.223  -2.064  -1.283  0.00  0.00    -0.019 C 
ATOM     20  C   UNL     1       0.438  -0.549  -1.254  0.00  0.00    -0.078 C 
ATOM     21  H   UNL     1      -1.139  -0.297   0.088  0.00  0.00    -0.081 HD
ENDBRANCH  14  15
ENDBRANCH   1  14
BRANCH   4  22
ATOM     22  S   UNL     1      -1.208   4.238  -4.369  0.00  0.00    -0.078 S 
BRANCH  22  23
ATOM     23  C   UNL     1      -2.812   3.864  -5.118  0.00  0.00    +0.157 C 
BRANCH  23  24
ATOM     24  C   UNL     1      -3.007   4.722  -6.342  0.00  0.00    +0.173 C 
ATOM     25  O   UNL     1      -2.146   5.509  -6.674  0.00  0.00    -0.291 OA
BRANCH  24  26
ATOM     26  C   UNL     1      -4.240   4.606  -7.131  0.00  0.00    +0.019 A 
ATOM     27  C   UNL     1      -5.236   3.699  -6.750  0.00  0.00    +0.013 A 
ATOM     28  C   UNL     1      -6.381   3.592  -7.485  0.00  0.00    +0.024 A 
ATOM     29  C   UNL     1      -6.565   4.382  -8.616  0.00  0.00    +0.037 A 
ATOM     30  C   UNL     1      -5.581   5.287  -9.003  0.00  0.00    -0.025 A 
ATOM     31  C   UNL     1      -4.426   5.407  -8.265  0.00  0.00    +0.016 A 
ATOM     32  C   UNL     1      -5.786   6.140 -10.229  0.00  0.00    +0.046 C 
ATOM     33  C   UNL     1      -6.581   5.352 -11.271  0.00  0.00    +0.101 C 
ATOM     34  C   UNL     1      -7.788   4.725 -10.627  0.00  0.00    +0.218 C 
ATOM     35  O   UNL     1      -8.820   4.629 -11.256  0.00  0.00    -0.275 OA
ATOM     36  N   UNL     1      -7.736   4.269  -9.362  0.00  0.00    -0.285 N 
ATOM     37  H   UNL     1      -8.628   3.804  -8.918  0.00  0.00    +0.155 HD
ENDBRANCH  24  26
ENDBRANCH  23  24
ENDBRANCH  22  23
ENDBRANCH   4  22
TORSDOF 7
