REMARK  Name = ZINC21021296
REMARK  3 active torsions:
REMARK  status: ('A' for Active; 'I' for Inactive)
REMARK    1  A    between atoms: C_6  and  C_7
REMARK    2  A    between atoms: C_7  and  C_9
REMARK    3  A    between atoms: C_7  and  N_17
REMARK                            x       y       z     vdW  Elec       q    Type
REMARK                         _______ _______ _______ _____ _____    ______ ____
ROOT
ATOM      1  C   UNL     1      -0.795   1.527  -1.120  0.00  0.00    -0.012 C 
ENDROOT
BRANCH   1   7
ATOM      2  C   UNL     1       0.234   3.753  -0.626  0.00  0.00    +0.006 A 
ATOM      3  C   UNL     1       0.170   5.133  -0.540  0.00  0.00    +0.049 A 
ATOM      4  C   UNL     1      -1.012   5.785  -0.845  0.00  0.00    +0.162 A 
ATOM      5  C   UNL     1      -2.127   5.058  -1.240  0.00  0.00    +0.162 A 
ATOM      6  C   UNL     1      -2.058   3.678  -1.329  0.00  0.00    +0.051 A 
ATOM      7  C   UNL     1      -0.875   3.029  -1.024  0.00  0.00    -0.054 A 
ATOM      8  O   UNL     1      -3.287   5.710  -1.539  0.00  0.00    -0.488 OA
ATOM      9  C   UNL     1      -3.954   6.335  -0.441  0.00  0.00    +0.232 C 
ATOM     10  C   UNL     1      -3.376   7.716  -0.173  0.00  0.00    +0.082 C 
ATOM     11  C   UNL     1      -1.925   7.659   0.279  0.00  0.00    +0.232 C 
ATOM     12  O   UNL     1      -1.090   7.145  -0.760  0.00  0.00    -0.488 OA
ENDBRANCH   1   7
BRANCH   1  13
ATOM     13  C   UNL     1      -0.130   1.141  -2.416  0.00  0.00    -0.039 A 
ATOM     14  C   UNL     1       1.205   0.784  -2.428  0.00  0.00    +0.005 A 
ATOM     15  C   UNL     1       1.816   0.429  -3.616  0.00  0.00    +0.020 A 
ATOM     16  C   UNL     1       1.091   0.432  -4.794  0.00  0.00    +0.042 A 
ATOM     17  C   UNL     1      -0.245   0.789  -4.783  0.00  0.00    +0.040 A 
ATOM     18  C   UNL     1      -0.858   1.138  -3.592  0.00  0.00    +0.044 A 
ATOM     19 CL   UNL     1      -2.537   1.578  -3.576  0.00  0.00    -0.083 Cl
ATOM     20 CL   UNL     1       1.858  -0.013  -6.287  0.00  0.00    -0.083 Cl
ENDBRANCH   1  13
BRANCH   1  21
ATOM     21  N   UNL     1      -0.012   1.005   0.008  0.00  0.00    +0.385 N 
ATOM     22  H   UNL     1       0.046  -0.091  -0.062  0.00  0.00    -0.089 HD
ATOM     23  H   UNL     1      -0.497   1.287   0.954  0.00  0.00    -0.089 HD
ATOM     24  H   UNL     1       1.003   1.428  -0.024  0.00  0.00    -0.089 HD
ENDBRANCH   1  21
TORSDOF 3
