REMARK  Name = ZINC22234516
REMARK  9 active torsions:
REMARK  status: ('A' for Active; 'I' for Inactive)
REMARK    1  A    between atoms: C_1  and  C_2
REMARK    2  A    between atoms: C_4  and  C_32
REMARK    3  A    between atoms: N_8  and  N_9
REMARK    4  A    between atoms: C_10  and  C_12
REMARK    5  A    between atoms: C_16  and  S_18
REMARK    6  A    between atoms: S_18  and  N_21
REMARK    7  A    between atoms: N_21  and  C_22
REMARK    8  A    between atoms: N_21  and  C_25
REMARK    9  A    between atoms: C_22  and  C_23
REMARK                            x       y       z     vdW  Elec       q    Type
REMARK                         _______ _______ _______ _____ _____    ______ ____
ROOT
ATOM      1  C   UNL     1      -3.890  -0.435   2.722  0.00  0.00    +0.040 A 
ATOM      2  C   UNL     1      -4.498  -1.593   2.236  0.00  0.00    +0.013 A 
ATOM      3  C   UNL     1      -3.759  -2.505   1.511  0.00  0.00    +0.003 A 
ATOM      4  C   UNL     1      -2.417  -2.273   1.266  0.00  0.00    +0.029 A 
ATOM      5  C   UNL     1      -1.808  -1.127   1.745  0.00  0.00    +0.109 A 
ATOM      6  C   UNL     1      -2.534  -0.209   2.475  0.00  0.00    +0.042 A 
ENDROOT
BRANCH   1   8
ATOM      7  N   UNL     1      -5.983   0.324   3.740  0.00  0.00    -0.230 N 
ATOM      8  C   UNL     1      -4.676   0.547   3.499  0.00  0.00    +0.260 C 
ATOM      9  O   UNL     1      -4.144   1.555   3.921  0.00  0.00    -0.269 OA
ATOM     10  H   UNL     1      -6.465  -0.589   3.358  0.00  0.00    +0.173 HD
BRANCH   7  18
ATOM     11  C   UNL     1     -10.550  -1.587   3.941  0.00  0.00    +0.066 C 
ATOM     12  C   UNL     1      -9.916  -0.329   4.476  0.00  0.00    +0.044 A 
ATOM     13  C   UNL     1     -10.667   0.581   5.203  0.00  0.00    +0.046 A 
ATOM     14  C   UNL     1     -10.045   1.725   5.677  0.00  0.00    +0.044 A 
ATOM     15  N   UNL     1      -8.761   1.914   5.423  0.00  0.00    -0.219 NA
ATOM     16  C   UNL     1      -8.071   1.024   4.724  0.00  0.00    +0.232 A 
ATOM     17  N   UNL     1      -8.636  -0.077   4.253  0.00  0.00    -0.219 NA
ATOM     18  N   UNL     1      -6.728   1.253   4.477  0.00  0.00    -0.232 N 
ATOM     19  C   UNL     1     -10.822   2.742   6.472  0.00  0.00    +0.066 C 
ATOM     20  H   UNL     1      -6.247   2.166   4.859  0.00  0.00    +0.173 HD
ENDBRANCH   7  18
ENDBRANCH   1   8
BRANCH   5  21
ATOM     21  S   UNL     1      -0.098  -0.841   1.427  0.00  0.00    +0.075 S 
ATOM     22  O   UNL     1       0.489  -2.114   1.193  0.00  0.00    -0.150 OA
ATOM     23  O   UNL     1       0.364   0.035   2.446  0.00  0.00    -0.150 OA
BRANCH  21  24
ATOM     24  N   UNL     1       0.002  -0.004   0.002  0.00  0.00    -0.198 N 
BRANCH  24  25
ATOM     25  C   UNL     1       0.105  -0.695  -1.208  0.00  0.00    +0.070 A 
ATOM     26  C   UNL     1       1.353  -0.927  -1.773  0.00  0.00    +0.026 A 
ATOM     27  C   UNL     1       1.452  -1.615  -2.966  0.00  0.00    +0.002 A 
ATOM     28  C   UNL     1       0.311  -2.062  -3.606  0.00  0.00    +0.002 A 
ATOM     29  C   UNL     1      -0.934  -1.829  -3.050  0.00  0.00    +0.022 A 
ATOM     30  C   UNL     1      -1.040  -1.146  -1.853  0.00  0.00    +0.064 A 
ATOM     31 CL   UNL     1      -2.603  -0.852  -1.156  0.00  0.00    -0.082 Cl
ENDBRANCH  24  25
BRANCH  24  32
ATOM     32  C   UNL     1      -0.018   1.461   0.010  0.00  0.00    +0.158 C 
BRANCH  32  33
ATOM     33  C   UNL     1       1.396   1.982  -0.001  0.00  0.00    -0.014 C 
ATOM     34  C   UNL     1       1.776   2.825  -0.929  0.00  0.00    +0.005 C 
ENDBRANCH  32  33
ENDBRANCH  24  32
ENDBRANCH  21  24
ENDBRANCH   5  21
TORSDOF 7
