REMARK  Name = ZINC12912106
REMARK  10 active torsions:
REMARK  status: ('A' for Active; 'I' for Inactive)
REMARK    1  A    between atoms: C_1  and  C_2
REMARK    2  A    between atoms: C_2  and  C_4
REMARK    3  A    between atoms: C_2  and  S_14
REMARK    4  A    between atoms: N_9  and  C_10
REMARK    5  A    between atoms: C_10  and  C_11
REMARK    6  A    between atoms: C_11  and  C_12
REMARK    7  A    between atoms: C_11  and  C_13
REMARK    8  A    between atoms: S_14  and  C_15
REMARK    9  A    between atoms: C_18  and  C_23
REMARK   10  A    between atoms: N_19  and  C_20
REMARK                            x       y       z     vdW  Elec       q    Type
REMARK                         _______ _______ _______ _____ _____    ______ ____
ROOT
ATOM      1  C   UNL     1      -0.105  -0.145   2.865  0.00  0.00    +0.193 A 
ATOM      2  N   UNL     1      -1.237   0.497   2.691  0.00  0.00    -0.122 NA
ATOM      3  N   UNL     1      -1.755   0.796   3.828  0.00  0.00    -0.128 NA
ATOM      4  C   UNL     1      -0.985   0.363   4.800  0.00  0.00    +0.167 A 
ATOM      5  N   UNL     1       0.093  -0.259   4.214  0.00  0.00    -0.299 N 
ENDROOT
BRANCH   4   6
ATOM      6  C   UNL     1      -1.233   0.510   6.249  0.00  0.00    +0.044 A 
ATOM      7  C   UNL     1      -0.508  -0.040   7.256  0.00  0.00    +0.095 A 
ATOM      8  N   UNL     1      -1.042   0.321   8.459  0.00  0.00    -0.360 N 
ATOM      9  H   UNL     1      -0.696   0.051   9.323  0.00  0.00    +0.165 HD
ATOM     10  C   UNL     1      -2.144   1.127   8.268  0.00  0.00    +0.047 A 
ATOM     11  C   UNL     1      -2.312   1.287   6.882  0.00  0.00    +0.010 A 
ATOM     12  C   UNL     1      -3.358   2.067   6.392  0.00  0.00    +0.011 A 
ATOM     13  C   UNL     1      -4.222   2.680   7.272  0.00  0.00    +0.001 A 
ATOM     14  C   UNL     1      -4.054   2.525   8.641  0.00  0.00    +0.002 A 
ATOM     15  C   UNL     1      -3.030   1.751   9.140  0.00  0.00    +0.026 A 
ENDBRANCH   4   6
BRANCH   5  16
ATOM     16  C   UNL     1       1.219  -0.906   4.892  0.00  0.00    +0.091 C 
ATOM     17  C   UNL     1       2.468  -1.203   4.061  0.00  0.00    +0.027 C 
ATOM     18  C   UNL     1       1.549  -2.346   4.496  0.00  0.00    +0.027 C 
ENDBRANCH   5  16
BRANCH   1  19
ATOM     19  S   UNL     1       0.957  -0.754   1.598  0.00  0.00    -0.073 S 
BRANCH  19  21
ATOM     20  C   UNL     1       0.091   1.250  -0.050  0.00  0.00    +0.029 C 
ATOM     21  C   UNL     1       0.123  -0.275   0.059  0.00  0.00    +0.137 C 
BRANCH  21  22
ATOM     22  C   UNL     1       0.872  -0.847  -1.117  0.00  0.00    +0.233 C 
ATOM     23  O   UNL     1       2.029  -1.189  -0.991  0.00  0.00    -0.274 OA
ATOM     24  N   UNL     1       0.257  -0.979  -2.308  0.00  0.00    -0.239 N 
ATOM     25  C   UNL     1       0.926  -1.491  -3.360  0.00  0.00    +0.306 C 
ATOM     26  O   UNL     1       2.086  -1.833  -3.234  0.00  0.00    -0.252 OA
ATOM     27  N   UNL     1       0.311  -1.623  -4.551  0.00  0.00    -0.299 N 
ATOM     28  H   UNL     1      -0.669  -0.706  -2.409  0.00  0.00    +0.159 HD
ATOM     29  H   UNL     1      -0.615  -1.350  -4.652  0.00  0.00    +0.150 HD
BRANCH  27  30
ATOM     30  C   UNL     1       1.039  -2.179  -5.695  0.00  0.00    +0.108 C 
BRANCH  30  31
ATOM     31  C   UNL     1       0.117  -2.220  -6.915  0.00  0.00    -0.000 C 
ATOM     32  C   UNL     1      -0.250  -0.792  -7.325  0.00  0.00    +0.009 C 
ATOM     33  C   UNL     1       0.836  -2.914  -8.074  0.00  0.00    +0.009 C 
ENDBRANCH  30  31
ENDBRANCH  27  30
ENDBRANCH  21  22
ENDBRANCH  19  21
ENDBRANCH   1  19
TORSDOF 7
