REMARK  Name = ZINC45442031
REMARK  13 active torsions:
REMARK  status: ('A' for Active; 'I' for Inactive)
REMARK    1  A    between atoms: C_1  and  C_2
REMARK    2  A    between atoms: C_2  and  O_3
REMARK    3  A    between atoms: O_3  and  C_4
REMARK    4  A    between atoms: C_4  and  C_6
REMARK    5  A    between atoms: C_7  and  C_19
REMARK    6  A    between atoms: C_12  and  C_14
REMARK    7  A    between atoms: C_19  and  N_20
REMARK    8  A    between atoms: C_23  and  C_27
REMARK    9  A    between atoms: C_23  and  C_28
REMARK   10  A    between atoms: C_31  and  C_34
REMARK   11  A    between atoms: C_34  and  C_35
REMARK   12  A    between atoms: C_34  and  C_36
REMARK   13  A    between atoms: C_34  and  C_37
REMARK                            x       y       z     vdW  Elec       q    Type
REMARK                         _______ _______ _______ _____ _____    ______ ____
ROOT
ATOM      1  C   UNL     1       1.153  -4.593  -1.536  0.00  0.00    +0.169 C 
ENDROOT
BRANCH   1   3
ATOM      2  C   UNL     1       1.344  -2.337  -2.522  0.00  0.00    +0.083 C 
ATOM      3  C   UNL     1       1.628  -3.654  -2.615  0.00  0.00    +0.042 C 
ATOM      4  N   UNL     1       2.338  -4.149  -3.671  0.00  0.00    -0.271 N 
ATOM      5  C   UNL     1       2.800  -3.393  -4.675  0.00  0.00    +0.304 C 
ATOM      6  O   UNL     1       3.424  -3.925  -5.572  0.00  0.00    -0.252 OA
ATOM      7  N   UNL     1       2.597  -2.062  -4.722  0.00  0.00    -0.285 N 
ATOM      8  C   UNL     1       1.835  -1.430  -3.631  0.00  0.00    +0.179 C 
ATOM      9  H   UNL     1       2.518  -5.102  -3.695  0.00  0.00    +0.156 HD
ATOM     10  H   UNL     1       2.942  -1.532  -5.458  0.00  0.00    +0.151 HD
BRANCH   8  11
ATOM     11  C   UNL     1       2.711  -0.371  -3.012  0.00  0.00    +0.130 A 
ATOM     12  C   UNL     1       2.336   0.887  -2.719  0.00  0.00    +0.047 A 
ATOM     13  C   UNL     1       3.463   1.530  -2.157  0.00  0.00    +0.041 A 
ATOM     14  C   UNL     1       4.459   0.625  -2.139  0.00  0.00    +0.195 A 
ATOM     15  O   UNL     1       3.996  -0.526  -2.653  0.00  0.00    -0.466 OA
ENDBRANCH   8  11
BRANCH   2  16
ATOM     16  C   UNL     1       0.608  -1.823  -1.429  0.00  0.00    +0.339 C 
ATOM     17  O   UNL     1      -0.571  -1.552  -1.563  0.00  0.00    -0.245 OA
BRANCH  16  18
ATOM     18  O   UNL     1       1.212  -1.634  -0.237  0.00  0.00    -0.462 OA
BRANCH  18  20
ATOM     19  C   UNL     1       1.261  -0.967   2.085  0.00  0.00    +0.048 C 
ATOM     20  C   UNL     1       0.408  -1.112   0.822  0.00  0.00    +0.229 C 
ENDBRANCH  18  20
ENDBRANCH  16  18
ENDBRANCH   2  16
ENDBRANCH   1   3
BRANCH   1  21
ATOM     21  N   UNL     1       0.185  -5.537  -2.100  0.00  0.00    -0.218 N 
ATOM     22  C   UNL     1      -1.144  -5.319  -2.150  0.00  0.00    +0.251 C 
ATOM     23  O   UNL     1      -1.742  -4.342  -1.751  0.00  0.00    -0.272 OA
ATOM     24  C   UNL     1      -1.737  -6.548  -2.809  0.00  0.00    +0.135 C 
ATOM     25  N   UNL     1      -0.563  -7.396  -3.080  0.00  0.00    -0.281 N 
ATOM     26  C   UNL     1       0.511  -6.718  -2.635  0.00  0.00    +0.310 C 
ATOM     27  O   UNL     1       1.651  -7.135  -2.709  0.00  0.00    -0.252 OA
ATOM     28  C   UNL     1      -2.704  -7.256  -1.857  0.00  0.00    +0.047 C 
ATOM     29  H   UNL     1      -0.564  -8.270  -3.499  0.00  0.00    +0.152 HD
BRANCH  24  30
ATOM     30  C   UNL     1      -2.431  -6.178  -4.094  0.00  0.00    -0.015 A 
ATOM     31  C   UNL     1      -3.002  -4.927  -4.236  0.00  0.00    +0.006 A 
ATOM     32  C   UNL     1      -3.639  -4.588  -5.415  0.00  0.00    +0.004 A 
ATOM     33  C   UNL     1      -3.705  -5.499  -6.452  0.00  0.00    -0.042 A 
ATOM     34  C   UNL     1      -3.133  -6.750  -6.311  0.00  0.00    +0.004 A 
ATOM     35  C   UNL     1      -2.493  -7.088  -5.133  0.00  0.00    +0.006 A 
BRANCH  33  36
ATOM     36  C   UNL     1      -4.400  -5.130  -7.737  0.00  0.00    -0.013 C 
ATOM     37  C   UNL     1      -3.712  -3.912  -8.358  0.00  0.00    +0.015 C 
ATOM     38  C   UNL     1      -4.330  -6.307  -8.712  0.00  0.00    +0.015 C 
ATOM     39  C   UNL     1      -5.864  -4.794  -7.446  0.00  0.00    +0.015 C 
ENDBRANCH  33  36
ENDBRANCH  24  30
ENDBRANCH   1  21
TORSDOF 8
