REMARK  Name = ZINC20212484
REMARK  7 active torsions:
REMARK  status: ('A' for Active; 'I' for Inactive)
REMARK    1  A    between atoms: C_1  and  C_2
REMARK    2  A    between atoms: C_2  and  C_3
REMARK    3  A    between atoms: C_6  and  S_9
REMARK    4  A    between atoms: S_9  and  N_12
REMARK    5  A    between atoms: N_12  and  C_13
REMARK    6  A    between atoms: C_22  and  O_23
REMARK    7  A    between atoms: N_24  and  C_25
REMARK                            x       y       z     vdW  Elec       q    Type
REMARK                         _______ _______ _______ _____ _____    ______ ____
ROOT
ATOM      1  C   UNL     1       3.436   3.120  -0.014  0.00  0.00    +0.152 A 
ATOM      2  C   UNL     1       2.379   3.980  -0.250  0.00  0.00    +0.076 A 
ATOM      3  C   UNL     1       1.031   3.399  -0.356  0.00  0.00    +0.042 A 
ATOM      4  C   UNL     1      -0.084   4.207  -0.592  0.00  0.00    +0.013 A 
ATOM      5  C   UNL     1      -1.333   3.634  -0.685  0.00  0.00    +0.001 A 
ATOM      6  C   UNL     1      -1.485   2.262  -0.551  0.00  0.00    +0.004 A 
ATOM      7  C   UNL     1      -0.393   1.454  -0.312  0.00  0.00    +0.047 A 
ATOM      8  C   UNL     1       0.875   2.011  -0.214  0.00  0.00    +0.141 A 
ATOM      9  O   UNL     1       1.953   1.231   0.015  0.00  0.00    -0.424 OA
ATOM     10  C   UNL     1       3.191   1.741   0.115  0.00  0.00    +0.310 A 
ATOM     11  N   UNL     1       2.582   5.342  -0.382  0.00  0.00    -0.380 N 
ATOM     12  H   UNL     1       2.686   5.972   0.514  0.00  0.00    +0.160 HD
ENDROOT
BRANCH  11  13
ATOM     13  C   UNL     1       2.625   5.733  -1.797  0.00  0.00    +0.079 C 
ATOM     14  C   UNL     1       4.066   5.612  -2.335  0.00  0.00    +0.024 C 
ATOM     15  C   UNL     1       4.212   6.815  -3.301  0.00  0.00    +0.002 C 
ATOM     16  C   UNL     1       3.431   7.936  -2.573  0.00  0.00    +0.002 C 
ATOM     17  C   UNL     1       2.221   7.210  -1.948  0.00  0.00    +0.024 C 
ENDBRANCH  11  13
BRANCH   1  18
ATOM     18  N   UNL     1       4.746   3.621   0.097  0.00  0.00    -0.208 N 
ATOM     19  H   UNL     1       5.520   3.299  -0.615  0.00  0.00    +0.174 HD
BRANCH  18  20
ATOM     20  S   UNL     1       5.122   4.696   1.299  0.00  0.00    +0.073 S 
ATOM     21  O   UNL     1       6.508   4.981   1.169  0.00  0.00    -0.150 OA
ATOM     22  O   UNL     1       4.129   5.711   1.262  0.00  0.00    -0.150 OA
BRANCH  20  26
ATOM     23  C   UNL     1       4.612   2.529   5.241  0.00  0.00    -0.048 A 
ATOM     24  C   UNL     1       5.853   2.575   4.633  0.00  0.00    +0.005 A 
ATOM     25  C   UNL     1       6.009   3.237   3.430  0.00  0.00    +0.029 A 
ATOM     26  C   UNL     1       4.924   3.852   2.833  0.00  0.00    +0.109 A 
ATOM     27  C   UNL     1       3.684   3.810   3.443  0.00  0.00    +0.029 A 
ATOM     28  C   UNL     1       3.527   3.144   4.645  0.00  0.00    +0.005 A 
BRANCH  23  30
ATOM     29  C   UNL     1       4.686   2.780   7.706  0.00  0.00    +0.009 C 
ATOM     30  C   UNL     1       4.442   1.806   6.552  0.00  0.00    +0.032 C 
ENDBRANCH  23  30
ENDBRANCH  20  26
ENDBRANCH  18  20
ENDBRANCH   1  18
BRANCH  10  31
ATOM     31  O   UNL     1       4.128   0.989   0.323  0.00  0.00    -0.479 OA
ATOM     32  H   UNL     1       3.952  -0.092   0.426  0.00  0.00    +0.295 HD
ENDBRANCH  10  31
TORSDOF 6
