REMARK  Name = ZINC59488658
REMARK  7 active torsions:
REMARK  status: ('A' for Active; 'I' for Inactive)
REMARK    1  A    between atoms: C_3  and  N_22
REMARK    2  A    between atoms: C_4  and  S_10
REMARK    3  A    between atoms: C_6  and  N_7
REMARK    4  A    between atoms: S_10  and  N_13
REMARK    5  A    between atoms: C_16  and  C_19
REMARK    6  A    between atoms: N_22  and  N_23
REMARK    7  A    between atoms: C_24  and  C_25
REMARK                            x       y       z     vdW  Elec       q    Type
REMARK                         _______ _______ _______ _____ _____    ______ ____
ROOT
ATOM      1  C   UNL     1      -0.138   1.260  -0.153  0.00  0.00    +0.035 A 
ATOM      2  C   UNL     1       0.984   2.042   0.025  0.00  0.00    +0.029 A 
ATOM      3  C   UNL     1       2.246   1.448   0.064  0.00  0.00    +0.075 A 
ATOM      4  C   UNL     1       2.365   0.064  -0.077  0.00  0.00    +0.130 A 
ATOM      5  C   UNL     1       1.236  -0.707  -0.255  0.00  0.00    +0.063 A 
ATOM      6  C   UNL     1      -0.014  -0.112  -0.293  0.00  0.00    +0.128 A 
ENDROOT
BRANCH   6   7
ATOM      7  N   UNL     1      -1.222  -0.945  -0.483  0.00  0.00    +0.056 N 
ATOM      8  O   UNL     1      -2.412  -0.382  -0.520  0.00  0.00    -0.126 OA
ATOM      9  O   UNL     1      -1.107  -2.251  -0.617  0.00  0.00    -0.126 OA
ENDBRANCH   6   7
BRANCH   4  10
ATOM     10  S   UNL     1       3.954  -0.696  -0.029  0.00  0.00    +0.063 S 
ATOM     11  O   UNL     1       4.625  -0.162   1.104  0.00  0.00    -0.153 OA
ATOM     12  O   UNL     1       3.743  -2.090  -0.203  0.00  0.00    -0.153 OA
BRANCH  10  13
ATOM     13  N   UNL     1       4.787  -0.173  -1.362  0.00  0.00    -0.176 NA
ATOM     14  C   UNL     1       4.589  -0.817  -2.668  0.00  0.00    +0.110 C 
ATOM     15  C   UNL     1       5.954  -1.247  -3.216  0.00  0.00    +0.030 C 
ATOM     16  C   UNL     1       6.891  -0.037  -3.247  0.00  0.00    +0.077 C 
ATOM     17  C   UNL     1       7.087   0.494  -1.826  0.00  0.00    +0.030 C 
ATOM     18  C   UNL     1       5.732   0.947  -1.262  0.00  0.00    +0.110 C 
BRANCH  16  19
ATOM     19  C   UNL     1       8.223  -0.449  -3.819  0.00  0.00    +0.214 C 
ATOM     20  O   UNL     1       8.405  -1.596  -4.167  0.00  0.00    -0.276 OA
ATOM     21  N   UNL     1       9.212   0.458  -3.943  0.00  0.00    -0.329 N 
ATOM     22  H   UNL     1       9.066   1.376  -3.664  0.00  0.00    +0.145 HD
ATOM     23  H   UNL     1      10.070   0.194  -4.311  0.00  0.00    +0.145 HD
ENDBRANCH  16  19
ENDBRANCH  10  13
ENDBRANCH   4  10
BRANCH   3  24
ATOM     24  N   UNL     1       3.373   2.225   0.242  0.00  0.00    -0.236 N 
ATOM     25  H   UNL     1       4.241   1.805   0.345  0.00  0.00    +0.174 HD
BRANCH  24  26
ATOM     26  N   UNL     1       3.271   3.511   0.270  0.00  0.00    -0.187 NA
ATOM     27  C   UNL     1       4.364   4.265   0.443  0.00  0.00    +0.176 C 
BRANCH  27  28
ATOM     28  C   UNL     1       4.256   5.642   0.473  0.00  0.00    +0.149 A 
ATOM     29  C   UNL     1       5.353   6.603   0.647  0.00  0.00    +0.052 A 
ATOM     30  C   UNL     1       4.777   7.841   0.612  0.00  0.00    +0.057 A 
ATOM     31  C   UNL     1       3.407   7.666   0.428  0.00  0.00    +0.171 A 
ATOM     32  O   UNL     1       3.119   6.364   0.343  0.00  0.00    -0.447 OA
ATOM     33 BR   UNL     1       2.142   9.067   0.310  0.00  0.00    -0.008 Br
ENDBRANCH  27  28
ENDBRANCH  24  26
ENDBRANCH   3  24
TORSDOF 7
