REMARK  Name = ZINC37066003
REMARK  5 active torsions:
REMARK  status: ('A' for Active; 'I' for Inactive)
REMARK    1  A    between atoms: C_9  and  S_11
REMARK    2  A    between atoms: S_11  and  C_12
REMARK    3  A    between atoms: C_12  and  C_13
REMARK    4  A    between atoms: C_13  and  N_14
REMARK    5  A    between atoms: C_16  and  N_21
REMARK                            x       y       z     vdW  Elec       q    Type
REMARK                         _______ _______ _______ _____ _____    ______ ____
ROOT
ATOM      1  C   UNL     1       5.602  -2.978  -0.067  0.00  0.00    +0.099 C 
ENDROOT
BRANCH   1   2
ATOM      2  S   UNL     1       3.883  -3.559  -0.053  0.00  0.00    -0.086 S 
BRANCH   2  11
ATOM      3  C   UNL     1      -0.017   1.375   0.010  0.00  0.00    +0.002 A 
ATOM      4  C   UNL     1       1.170   2.094   0.002  0.00  0.00    +0.002 A 
ATOM      5  C   UNL     1       2.382   1.442  -0.013  0.00  0.00    +0.030 A 
ATOM      6  C   UNL     1       2.418   0.045  -0.021  0.00  0.00    +0.090 A 
ATOM      7  C   UNL     1       1.214  -0.678  -0.013  0.00  0.00    +0.067 A 
ATOM      8  C   UNL     1       0.002  -0.004   0.002  0.00  0.00    +0.028 A 
ATOM      9  N   UNL     1       1.568  -2.017  -0.024  0.00  0.00    -0.333 N 
ATOM     10  H   UNL     1       0.960  -2.773  -0.022  0.00  0.00    +0.168 HD
ATOM     11  C   UNL     1       2.933  -2.075  -0.037  0.00  0.00    +0.167 A 
ATOM     12  N   UNL     1       3.429  -0.862  -0.036  0.00  0.00    -0.222 NA
ENDBRANCH   2  11
ENDBRANCH   1   2
BRANCH   1  13
ATOM     13  C   UNL     1       6.546  -4.182  -0.082  0.00  0.00    +0.136 C 
BRANCH  13  14
ATOM     14  N   UNL     1       7.934  -3.713  -0.093  0.00  0.00    -0.313 N 
ATOM     15  C   UNL     1       8.558  -3.488  -1.281  0.00  0.00    +0.111 A 
ATOM     16  C   UNL     1       9.845  -3.053  -1.315  0.00  0.00    +0.041 A 
ATOM     17  C   UNL     1      10.541  -2.834  -0.113  0.00  0.00    +0.029 A 
ATOM     18  C   UNL     1       9.909  -3.062   1.074  0.00  0.00    +0.072 A 
ATOM     19  C   UNL     1       8.576  -3.506   1.072  0.00  0.00    +0.251 A 
ATOM     20  O   UNL     1       8.000  -3.708   2.129  0.00  0.00    -0.268 OA
BRANCH  16  21
ATOM     21  N   UNL     1      10.478  -2.824  -2.546  0.00  0.00    -0.357 N 
ATOM     22  H   UNL     1       9.997  -2.977  -3.374  0.00  0.00    +0.142 HD
ATOM     23  H   UNL     1      11.397  -2.514  -2.569  0.00  0.00    +0.142 HD
ENDBRANCH  16  21
ENDBRANCH  13  14
ENDBRANCH   1  13
TORSDOF 5
