REMARK  Name = ZINC35887338
REMARK  10 active torsions:
REMARK  status: ('A' for Active; 'I' for Inactive)
REMARK    1  A    between atoms: C_1  and  C_2
REMARK    2  A    between atoms: C_2  and  N_3
REMARK    3  A    between atoms: N_3  and  C_4
REMARK    4  A    between atoms: C_4  and  C_5
REMARK    5  A    between atoms: N_8  and  C_10
REMARK    6  A    between atoms: C_13  and  C_16
REMARK    7  A    between atoms: N_19  and  C_21
REMARK    8  A    between atoms: C_21  and  C_22
REMARK    9  A    between atoms: N_31  and  C_32
REMARK   10  A    between atoms: C_32  and  C_33
REMARK                            x       y       z     vdW  Elec       q    Type
REMARK                         _______ _______ _______ _____ _____    ______ ____
ROOT
ATOM      1  C   UNL     1      -0.421  -2.089   2.201  0.00  0.00    +0.082 A 
ATOM      2  C   UNL     1      -1.643  -2.491   1.673  0.00  0.00    -0.018 A 
ATOM      3  C   UNL     1      -1.748  -3.837   1.839  0.00  0.00    +0.045 A 
ATOM      4  N   UNL     1      -0.631  -4.267   2.446  0.00  0.00    -0.236 N 
ATOM      5  N   UNL     1       0.194  -3.152   2.663  0.00  0.00    -0.169 NA
ATOM      6  C   UNL     1      -2.954  -4.627   1.391  0.00  0.00    +0.037 C 
ATOM      7  C   UNL     1      -4.090  -3.629   1.122  0.00  0.00    -0.072 C 
ATOM      8  N   UNL     1      -3.603  -2.545   0.259  0.00  0.00    +0.385 N 
ATOM      9  C   UNL     1      -2.711  -1.652   1.017  0.00  0.00    -0.039 C 
ATOM     10  H   UNL     1      -3.098  -2.939  -0.520  0.00  0.00    -0.081 HD
ENDROOT
BRANCH   4  11
ATOM     11  C   UNL     1      -0.338  -5.592   2.796  0.00  0.00    +0.066 A 
ATOM     12  C   UNL     1      -0.632  -6.626   1.917  0.00  0.00    +0.028 A 
ATOM     13  C   UNL     1      -0.342  -7.930   2.265  0.00  0.00    +0.005 A 
ATOM     14  C   UNL     1       0.239  -8.208   3.489  0.00  0.00    -0.050 A 
ATOM     15  C   UNL     1       0.533  -7.181   4.367  0.00  0.00    +0.005 A 
ATOM     16  C   UNL     1       0.251  -5.874   4.022  0.00  0.00    +0.028 A 
ATOM     17  C   UNL     1       0.554  -9.633   3.865  0.00  0.00    +0.044 C 
ENDBRANCH   4  11
BRANCH   1  18
ATOM     18  C   UNL     1       0.108  -0.678   2.231  0.00  0.00    +0.166 C 
BRANCH  18  19
ATOM     19  N   UNL     1      -0.194  -0.071   3.530  0.00  0.00    -0.280 N 
ATOM     20  C   UNL     1      -1.300   0.683   3.681  0.00  0.00    +0.303 C 
ATOM     21  O   UNL     1      -2.048   0.860   2.739  0.00  0.00    -0.253 OA
ATOM     22  N   UNL     1      -1.578   1.241   4.876  0.00  0.00    -0.296 N 
ATOM     23  H   UNL     1      -0.981   1.100   5.628  0.00  0.00    +0.151 HD
BRANCH  19  25
ATOM     24  C   UNL     1       1.686   0.888   4.766  0.00  0.00    +0.024 C 
ATOM     25  C   UNL     1       0.708  -0.284   4.665  0.00  0.00    +0.106 C 
ENDBRANCH  19  25
BRANCH  22  26
ATOM     26  C   UNL     1      -2.781   2.061   5.040  0.00  0.00    +0.132 C 
BRANCH  26  27
ATOM     27  C   UNL     1      -2.858   2.562   6.459  0.00  0.00    -0.016 C 
ATOM     28  C   UNL     1      -2.964   3.846   6.695  0.00  0.00    +0.005 C 
ENDBRANCH  26  27
ENDBRANCH  22  26
ENDBRANCH  18  19
ENDBRANCH   1  18
BRANCH   8  29
ATOM     29  C   UNL     1      -4.747  -1.774  -0.246  0.00  0.00    -0.043 C 
BRANCH  29  30
ATOM     30  C   UNL     1      -5.588  -2.650  -1.139  0.00  0.00    -0.064 A 
ATOM     31  C   UNL     1      -5.321  -2.713  -2.494  0.00  0.00    +0.004 A 
ATOM     32  C   UNL     1      -6.090  -3.516  -3.314  0.00  0.00    +0.038 A 
ATOM     33  C   UNL     1      -7.129  -4.258  -2.778  0.00  0.00    +0.123 A 
ATOM     34  C   UNL     1      -7.396  -4.194  -1.421  0.00  0.00    +0.038 A 
ATOM     35  C   UNL     1      -6.622  -3.394  -0.602  0.00  0.00    +0.004 A 
ATOM     36  F   UNL     1      -7.883  -5.043  -3.579  0.00  0.00    -0.205 F 
ENDBRANCH  29  30
ENDBRANCH   8  29
TORSDOF 8
