REMARK  Name = ZINC38798967
REMARK  8 active torsions:
REMARK  status: ('A' for Active; 'I' for Inactive)
REMARK    1  A    between atoms: C_1  and  C_2
REMARK    2  A    between atoms: C_2  and  O_3
REMARK    3  A    between atoms: O_3  and  C_4
REMARK    4  A    between atoms: C_7  and  N_10
REMARK    5  A    between atoms: C_11  and  C_30
REMARK    6  A    between atoms: C_14  and  S_15
REMARK    7  A    between atoms: S_15  and  C_16
REMARK    8  A    between atoms: C_16  and  C_17
REMARK                            x       y       z     vdW  Elec       q    Type
REMARK                         _______ _______ _______ _____ _____    ______ ____
ROOT
ATOM      1  N   UNL     1      -2.007  -6.012  -0.021  0.00  0.00    -0.270 N 
ATOM      2  C   UNL     1      -2.584  -6.781  -1.007  0.00  0.00    +0.171 A 
ATOM      3  N   UNL     1      -2.446  -8.036  -0.646  0.00  0.00    -0.128 NA
ATOM      4  N   UNL     1      -1.831  -8.105   0.480  0.00  0.00    -0.122 NA
ATOM      5  C   UNL     1      -1.534  -6.898   0.907  0.00  0.00    +0.197 A 
ENDROOT
BRANCH   2   6
ATOM      6  C   UNL     1      -3.235  -6.288  -2.239  0.00  0.00    +0.038 A 
ATOM      7  C   UNL     1      -2.599  -5.334  -3.034  0.00  0.00    +0.013 A 
ATOM      8  C   UNL     1      -3.212  -4.878  -4.183  0.00  0.00    +0.001 A 
ATOM      9  C   UNL     1      -4.456  -5.363  -4.546  0.00  0.00    +0.001 A 
ATOM     10  C   UNL     1      -5.093  -6.308  -3.763  0.00  0.00    +0.021 A 
ATOM     11  C   UNL     1      -4.488  -6.779  -2.614  0.00  0.00    +0.052 A 
ATOM     12 CL   UNL     1      -5.285  -7.971  -1.636  0.00  0.00    -0.083 Cl
ENDBRANCH   2   6
BRANCH   1  16
ATOM     13  C   UNL     1      -1.744  -1.850   0.098  0.00  0.00    +0.121 A 
ATOM     14  C   UNL     1      -0.594  -2.614  -0.039  0.00  0.00    +0.047 A 
ATOM     15  C   UNL     1      -0.680  -3.991  -0.079  0.00  0.00    +0.030 A 
ATOM     16  C   UNL     1      -1.918  -4.612   0.020  0.00  0.00    +0.051 A 
ATOM     17  C   UNL     1      -3.069  -3.847   0.158  0.00  0.00    +0.030 A 
ATOM     18  C   UNL     1      -2.980  -2.470   0.202  0.00  0.00    +0.047 A 
BRANCH  13  19
ATOM     19  O   UNL     1      -1.658  -0.494   0.137  0.00  0.00    -0.492 OA
BRANCH  19  21
ATOM     20  C   UNL     1      -0.456   1.602   0.089  0.00  0.00    +0.048 C 
ATOM     21  C   UNL     1      -0.352   0.077   0.025  0.00  0.00    +0.225 C 
ENDBRANCH  19  21
ENDBRANCH  13  19
ENDBRANCH   1  16
BRANCH   5  22
ATOM     22  S   UNL     1      -0.686  -6.496   2.399  0.00  0.00    -0.076 S 
BRANCH  22  23
ATOM     23  C   UNL     1      -0.342  -8.108   3.156  0.00  0.00    +0.173 C 
BRANCH  23  24
ATOM     24  C   UNL     1       0.391  -7.906   4.457  0.00  0.00    +0.227 C 
ATOM     25  O   UNL     1       0.655  -6.784   4.837  0.00  0.00    -0.275 OA
ATOM     26  N   UNL     1       0.752  -8.971   5.200  0.00  0.00    -0.285 N 
ATOM     27  C   UNL     1       2.016  -9.141   5.538  0.00  0.00    +0.036 C 
ATOM     28  C   UNL     1       3.046  -8.240   5.005  0.00  0.00    +0.025 C 
ATOM     29  C   UNL     1       4.338  -8.407   5.346  0.00  0.00    +0.032 C 
ATOM     30  C   UNL     1       4.725  -9.492   6.254  0.00  0.00    +0.095 C 
ATOM     31  N   UNL     1       5.872  -9.903   6.760  0.00  0.00    -0.190 NA
ATOM     32  C   UNL     1       5.651 -10.967   7.551  0.00  0.00    +0.369 C 
ATOM     33  O   UNL     1       6.621 -11.629   8.225  0.00  0.00    -0.243 OA
ATOM     34  N   UNL     1       4.378 -11.282   7.589  0.00  0.00    -0.190 NA
ATOM     35  C   UNL     1       3.699 -10.404   6.795  0.00  0.00    +0.097 C 
ATOM     36  C   UNL     1       2.395 -10.235   6.458  0.00  0.00    +0.053 C 
ATOM     37  H   UNL     1       0.083  -9.613   5.486  0.00  0.00    +0.155 HD
ENDBRANCH  23  24
ENDBRANCH  22  23
ENDBRANCH   5  22
TORSDOF 7
