REMARK  Name = ZINC12993157
REMARK  5 active torsions:
REMARK  status: ('A' for Active; 'I' for Inactive)
REMARK    1  A    between atoms: C_3  and  N_11
REMARK    2  A    between atoms: C_6  and  C_7
REMARK    3  A    between atoms: C_8  and  C_9
REMARK    4  A    between atoms: C_12  and  C_14
REMARK    5  A    between atoms: C_17  and  C_19
REMARK                            x       y       z     vdW  Elec       q    Type
REMARK                         _______ _______ _______ _____ _____    ______ ____
ROOT
ATOM      1  N   UNL     1       2.350   3.883  -0.001  0.00  0.00    -0.280 N 
ATOM      2  C   UNL     1       2.337   5.227  -0.095  0.00  0.00    +0.267 C 
ATOM      3  O   UNL     1       1.279   5.827  -0.082  0.00  0.00    -0.268 OA
ATOM      4  H   UNL     1       3.195   3.410   0.066  0.00  0.00    +0.155 HD
ENDROOT
BRANCH   1   7
ATOM      5  C   UNL     1      -1.116   2.936  -0.744  0.00  0.00    +0.010 A 
ATOM      6  C   UNL     1       0.070   3.634  -0.743  0.00  0.00    +0.024 A 
ATOM      7  C   UNL     1       1.151   3.172   0.002  0.00  0.00    +0.034 A 
ATOM      8  C   UNL     1       1.039   2.004   0.749  0.00  0.00    +0.024 A 
ATOM      9  C   UNL     1      -0.143   1.299   0.755  0.00  0.00    +0.010 A 
ATOM     10  C   UNL     1      -1.235   1.763   0.011  0.00  0.00    -0.025 A 
BRANCH  10  11
ATOM     11  C   UNL     1      -2.501   1.017   0.018  0.00  0.00    +0.015 C 
ATOM     12  C   UNL     1      -2.614  -0.115   0.747  0.00  0.00    +0.096 C 
BRANCH  12  13
ATOM     13  C   UNL     1      -3.836  -0.835   0.754  0.00  0.00    +0.380 C 
ATOM     14  O   UNL     1      -4.782  -0.433   0.104  0.00  0.00    -0.241 OA
ATOM     15  O   UNL     1      -3.949  -1.965   1.482  0.00  0.00    -0.241 OA
ENDBRANCH  12  13
ENDBRANCH  10  11
ENDBRANCH   1   7
BRANCH   2  16
ATOM     16  C   UNL     1       3.603   5.970  -0.215  0.00  0.00    +0.133 A 
ATOM     17  C   UNL     1       3.600   7.339  -0.312  0.00  0.00    +0.080 A 
ATOM     18  S   UNL     1       5.298   7.684  -0.425  0.00  0.00    -0.075 S 
ATOM     19  C   UNL     1       5.890   6.001  -0.337  0.00  0.00    +0.109 A 
ATOM     20  N   UNL     1       4.761   5.325  -0.225  0.00  0.00    -0.234 NA
BRANCH  19  21
ATOM     21  C   UNL     1       7.279   5.497  -0.374  0.00  0.00    +0.007 A 
ATOM     22  C   UNL     1       7.530   4.127  -0.285  0.00  0.00    +0.013 A 
ATOM     23  C   UNL     1       8.828   3.662  -0.325  0.00  0.00    +0.039 A 
ATOM     24  C   UNL     1       9.883   4.553  -0.443  0.00  0.00    +0.123 A 
ATOM     25  C   UNL     1       9.639   5.915  -0.528  0.00  0.00    +0.039 A 
ATOM     26  C   UNL     1       8.345   6.390  -0.494  0.00  0.00    +0.013 A 
ATOM     27  F   UNL     1      11.152   4.092  -0.476  0.00  0.00    -0.205 F 
ENDBRANCH  19  21
ENDBRANCH   2  16
TORSDOF 5
