REMARK  Name = ZINC12541939
REMARK  8 active torsions:
REMARK  status: ('A' for Active; 'I' for Inactive)
REMARK    1  A    between atoms: C_1  and  C_2
REMARK    2  A    between atoms: C_2  and  O_3
REMARK    3  A    between atoms: O_3  and  C_4
REMARK    4  A    between atoms: C_9  and  N_10
REMARK    5  A    between atoms: C_12  and  C_17
REMARK    6  A    between atoms: N_19  and  C_20
REMARK    7  A    between atoms: C_24  and  S_26
REMARK    8  A    between atoms: S_26  and  N_29
REMARK                            x       y       z     vdW  Elec       q    Type
REMARK                         _______ _______ _______ _____ _____    ______ ____
ROOT
ATOM      1  C   UNL     1       2.834  -1.582   6.478  0.00  0.00    +0.222 C 
ATOM      2  O   UNL     1       2.322  -2.680   6.428  0.00  0.00    -0.275 OA
ATOM      3  N   UNL     1       3.787  -1.324   7.396  0.00  0.00    -0.285 N 
ATOM      4  H   UNL     1       4.244  -0.468   7.393  0.00  0.00    +0.155 HD
ENDROOT
BRANCH   1   7
ATOM      5  N   UNL     1       2.017  -1.514   3.375  0.00  0.00    -0.267 N 
ATOM      6  C   UNL     1       1.305  -1.023   4.561  0.00  0.00    +0.127 C 
ATOM      7  C   UNL     1       2.404  -0.505   5.516  0.00  0.00    +0.102 C 
ATOM      8  C   UNL     1       3.542  -0.158   4.528  0.00  0.00    +0.110 C 
ATOM      9  C   UNL     1       3.276  -1.044   3.332  0.00  0.00    +0.221 C 
ATOM     10  O   UNL     1       4.080  -1.292   2.458  0.00  0.00    -0.275 OA
BRANCH   5  16
ATOM     11  C   UNL     1       0.801  -1.839   1.308  0.00  0.00    +0.142 A 
ATOM     12  C   UNL     1       0.255  -2.689   0.359  0.00  0.00    +0.047 A 
ATOM     13  C   UNL     1       0.359  -4.058   0.516  0.00  0.00    +0.004 A 
ATOM     14  C   UNL     1       1.007  -4.585   1.618  0.00  0.00    +0.002 A 
ATOM     15  C   UNL     1       1.554  -3.744   2.568  0.00  0.00    +0.027 A 
ATOM     16  C   UNL     1       1.458  -2.369   2.416  0.00  0.00    +0.078 A 
BRANCH  11  17
ATOM     17  O   UNL     1       0.699  -0.492   1.155  0.00  0.00    -0.490 OA
BRANCH  17  19
ATOM     18  C   UNL     1      -0.001   1.510  -0.005  0.00  0.00    +0.048 C 
ATOM     19  C   UNL     1       0.011  -0.021  -0.005  0.00  0.00    +0.226 C 
ENDBRANCH  17  19
ENDBRANCH  11  17
ENDBRANCH   5  16
ENDBRANCH   1   7
BRANCH   3  20
ATOM     20  C   UNL     1       4.118  -2.291   8.351  0.00  0.00    +0.035 A 
ATOM     21  C   UNL     1       4.467  -1.906   9.639  0.00  0.00    +0.023 A 
ATOM     22  C   UNL     1       4.793  -2.863  10.580  0.00  0.00    +0.004 A 
ATOM     23  C   UNL     1       4.773  -4.204  10.240  0.00  0.00    +0.029 A 
ATOM     24  C   UNL     1       4.427  -4.590   8.959  0.00  0.00    +0.114 A 
ATOM     25  C   UNL     1       4.093  -3.638   8.015  0.00  0.00    +0.052 A 
BRANCH  24  26
ATOM     26  S   UNL     1       4.404  -6.299   8.531  0.00  0.00    +0.100 S 
ATOM     27  O   UNL     1       4.576  -6.368   7.122  0.00  0.00    -0.146 OA
ATOM     28  O   UNL     1       5.277  -6.957   9.439  0.00  0.00    -0.146 OA
BRANCH  26  29
ATOM     29  N   UNL     1       2.879  -6.863   8.849  0.00  0.00    -0.118 NA
ATOM     30  C   UNL     1       2.588  -8.102   8.623  0.00  0.00    +0.117 C 
ATOM     31  C   UNL     1       3.649  -9.049   8.067  0.00  0.00    +0.073 C 
ATOM     32  C   UNL     1       4.000 -10.026   9.169  0.00  0.00    +0.008 C 
ATOM     33  C   UNL     1       3.107 -11.267   9.190  0.00  0.00    +0.002 C 
ATOM     34  C   UNL     1       1.627 -10.945   8.976  0.00  0.00    +0.019 C 
ATOM     35  C   UNL     1       1.164  -9.728   9.747  0.00  0.00    +0.102 C 
ATOM     36  N   UNL     1       1.375  -8.553   8.875  0.00  0.00    -0.331 N 
ATOM     37  H   UNL     1       0.607  -8.108   8.483  0.00  0.00    +0.147 HD
ENDBRANCH  26  29
ENDBRANCH  24  26
ENDBRANCH   3  20
TORSDOF 7
