REMARK  Name = ZINC02095994
REMARK  13 active torsions:
REMARK  status: ('A' for Active; 'I' for Inactive)
REMARK    1  A    between atoms: C_1  and  C_2
REMARK    2  A    between atoms: C_2  and  C_3
REMARK    3  A    between atoms: C_3  and  C_4
REMARK    4  A    between atoms: C_4  and  N_77
REMARK    5  A    between atoms: C_5  and  C_6
REMARK    6  A    between atoms: C_5  and  N_77
REMARK    7  A    between atoms: C_6  and  C_7
REMARK    8  A    between atoms: C_7  and  C_8
REMARK    9  A    between atoms: C_9  and  C_10
REMARK   10  A    between atoms: C_9  and  N_77
REMARK   11  A    between atoms: C_10  and  C_11
REMARK   12  A    between atoms: C_11  and  N_12
REMARK   13  A    between atoms: C_32  and  C_34
REMARK                            x       y       z     vdW  Elec       q    Type
REMARK                         _______ _______ _______ _____ _____    ______ ____
ROOT
ATOM      1  N   UNL     1       1.908   5.085   1.581  0.00  0.00    -0.291 N 
ATOM      2  C   UNL     1       2.550   4.025   2.341  0.00  0.00    +0.203 C 
ATOM      3  C   UNL     1       2.555   2.727   1.601  0.00  0.00    +0.234 C 
ATOM      4  O   UNL     1       3.089   1.776   2.131  0.00  0.00    -0.274 OA
ATOM      5  N   UNL     1       2.013   2.545   0.395  0.00  0.00    -0.276 N 
ATOM      6  C   UNL     1       1.272   3.587  -0.315  0.00  0.00    +0.167 C 
ATOM      7  C   UNL     1       1.336   4.902   0.393  0.00  0.00    +0.237 C 
ATOM      8  O   UNL     1       0.835   5.864  -0.150  0.00  0.00    -0.274 OA
ATOM      9  C   UNL     1      -0.193   3.152  -0.462  0.00  0.00    +0.069 C 
ATOM     10  C   UNL     1      -0.232   1.713  -0.911  0.00  0.00    -0.015 A 
ATOM     11  C   UNL     1      -1.338   0.985  -1.499  0.00  0.00    +0.003 A 
ATOM     12  C   UNL     1      -2.647   1.352  -1.826  0.00  0.00    +0.010 A 
ATOM     13  C   UNL     1      -3.443   0.381  -2.381  0.00  0.00    +0.001 A 
ATOM     14  C   UNL     1      -2.983  -0.905  -2.611  0.00  0.00    +0.002 A 
ATOM     15  C   UNL     1      -1.693  -1.295  -2.298  0.00  0.00    +0.026 A 
ATOM     16  C   UNL     1      -0.862  -0.330  -1.733  0.00  0.00    +0.047 A 
ATOM     17  N   UNL     1       0.437  -0.372  -1.314  0.00  0.00    -0.356 N 
ATOM     18  H   UNL     1       1.012  -1.152  -1.357  0.00  0.00    +0.166 HD
ATOM     19  C   UNL     1       0.805   0.853  -0.826  0.00  0.00    +0.046 A 
ATOM     20  C   UNL     1       2.158   1.230  -0.265  0.00  0.00    +0.154 C 
ENDROOT
BRANCH  20  21
ATOM     21  C   UNL     1       3.166   1.325  -1.381  0.00  0.00    -0.021 A 
ATOM     22  C   UNL     1       3.610   0.178  -2.012  0.00  0.00    +0.006 A 
ATOM     23  C   UNL     1       4.530   0.267  -3.039  0.00  0.00    +0.000 A 
ATOM     24  C   UNL     1       5.017   1.501  -3.428  0.00  0.00    +0.000 A 
ATOM     25  C   UNL     1       4.578   2.648  -2.792  0.00  0.00    +0.000 A 
ATOM     26  C   UNL     1       3.652   2.560  -1.769  0.00  0.00    +0.006 A 
ENDBRANCH  20  21
BRANCH   1  27
ATOM     27  C   UNL     1       1.890   6.432   2.156  0.00  0.00    +0.106 C 
BRANCH  27  28
ATOM     28  C   UNL     1       3.138   7.195   1.706  0.00  0.00    +0.000 C 
BRANCH  28  29
ATOM     29  C   UNL     1       3.119   8.602   2.306  0.00  0.00    -0.077 C 
BRANCH  29  30
ATOM     30  N   UNL     1       4.340   9.319   1.880  0.00  0.00    +0.380 N 
ATOM     31  H   UNL     1       5.159   8.737   2.092  0.00  0.00    -0.082 HD
BRANCH  30  32
ATOM     32  C   UNL     1       4.295   9.572   0.425  0.00  0.00    -0.079 C 
BRANCH  32  33
ATOM     33  C   UNL     1       3.089  10.444   0.070  0.00  0.00    -0.019 C 
BRANCH  33  35
ATOM     34  C   UNL     1       1.904  11.629  -1.783  0.00  0.00    +0.004 C 
ATOM     35  C   UNL     1       3.110  10.758  -1.428  0.00  0.00    -0.005 C 
ENDBRANCH  33  35
ENDBRANCH  32  33
ENDBRANCH  30  32
BRANCH  30  36
ATOM     36  C   UNL     1       4.457  10.597   2.613  0.00  0.00    -0.079 C 
BRANCH  36  37
ATOM     37  C   UNL     1       5.807  11.235   2.280  0.00  0.00    -0.019 C 
BRANCH  37  38
ATOM     38  C   UNL     1       6.013  12.476   3.151  0.00  0.00    -0.005 C 
ATOM     39  C   UNL     1       7.363  13.115   2.819  0.00  0.00    +0.004 C 
ENDBRANCH  37  38
ENDBRANCH  36  37
ENDBRANCH  30  36
ENDBRANCH  29  30
ENDBRANCH  28  29
ENDBRANCH  27  28
ENDBRANCH   1  27
TORSDOF 11
