REMARK  Name = ZINC08161775
REMARK  5 active torsions:
REMARK  status: ('A' for Active; 'I' for Inactive)
REMARK    1  A    between atoms: C_1  and  C_2
REMARK    2  A    between atoms: C_7  and  N_8
REMARK    3  A    between atoms: C_11  and  C_16
REMARK    4  A    between atoms: C_16  and  N_52
REMARK    5  A    between atoms: C_24  and  C_26
REMARK                            x       y       z     vdW  Elec       q    Type
REMARK                         _______ _______ _______ _____ _____    ______ ____
ROOT
ATOM      1  N   UNL     1       2.750   3.817   0.477  0.00  0.00    -0.283 N 
ATOM      2  C   UNL     1       2.670   5.190   0.349  0.00  0.00    +0.224 A 
ATOM      3  N   UNL     1       3.771   5.903   0.119  0.00  0.00    -0.201 NA
ATOM      4  C   UNL     1       3.696   7.216  -0.005  0.00  0.00    +0.120 A 
ATOM      5  N   UNL     1       2.529   7.828   0.099  0.00  0.00    -0.202 NA
ATOM      6  C   UNL     1       1.424   7.122   0.329  0.00  0.00    +0.217 A 
ATOM      7  N   UNL     1       1.494   5.801   0.449  0.00  0.00    -0.181 NA
ATOM      8  N   UNL     1       0.206   7.761   0.438  0.00  0.00    -0.327 N 
ATOM      9  H   UNL     1       3.590   3.362   0.312  0.00  0.00    +0.155 HD
ATOM     10  H   UNL     1       0.154   8.726   0.347  0.00  0.00    +0.145 HD
ATOM     11  H   UNL     1      -0.599   7.247   0.605  0.00  0.00    +0.145 HD
ENDROOT
BRANCH   1  18
ATOM     12  C   UNL     1       2.522   1.141  -0.462  0.00  0.00    +0.045 C 
ATOM     13  C   UNL     1       1.466   1.773   0.408  0.00  0.00    -0.029 A 
ATOM     14  C   UNL     1       0.347   1.051   0.773  0.00  0.00    +0.005 A 
ATOM     15  C   UNL     1      -0.625   1.632   1.567  0.00  0.00    +0.000 A 
ATOM     16  C   UNL     1      -0.474   2.934   2.008  0.00  0.00    +0.002 A 
ATOM     17  C   UNL     1       0.643   3.662   1.647  0.00  0.00    +0.023 A 
ATOM     18  C   UNL     1       1.618   3.083   0.845  0.00  0.00    +0.036 A 
ENDBRANCH   1  18
BRANCH   4  19
ATOM     19  C   UNL     1       4.944   8.019  -0.265  0.00  0.00    -0.000 C 
BRANCH  19  28
ATOM     20  C   UNL     1       5.416   6.828  -2.320  0.00  0.00    -0.072 C 
ATOM     21  C   UNL     1       5.220   6.936  -3.842  0.00  0.00    +0.024 C 
ATOM     22  C   UNL     1       5.934   8.164  -4.306  0.00  0.00    -0.010 A 
ATOM     23  C   UNL     1       6.408   9.174  -3.524  0.00  0.00    -0.051 A 
ATOM     24  C   UNL     1       7.047  10.222  -4.182  0.00  0.00    +0.010 A 
ATOM     25  C   UNL     1       7.170  10.201  -5.530  0.00  0.00    +0.045 A 
ATOM     26  S   UNL     1       6.369   8.659  -5.949  0.00  0.00    -0.101 S 
ATOM     27  C   UNL     1       6.219   9.108  -2.012  0.00  0.00    -0.033 C 
ATOM     28  N   UNL     1       5.123   8.153  -1.724  0.00  0.00    +0.389 N 
ATOM     29  H   UNL     1       4.253   8.515  -2.134  0.00  0.00    -0.080 HD
BRANCH  27  30
ATOM     30  C   UNL     1       5.824  10.486  -1.479  0.00  0.00    -0.020 C 
ATOM     31  C   UNL     1       5.533  11.584  -2.505  0.00  0.00    +0.002 C 
ATOM     32  C   UNL     1       6.819  11.632  -1.676  0.00  0.00    +0.002 C 
ENDBRANCH  27  30
ENDBRANCH  19  28
ENDBRANCH   4  19
TORSDOF 4
