REMARK  Name = ZINC01380935
REMARK  8 active torsions:
REMARK  status: ('A' for Active; 'I' for Inactive)
REMARK    1  A    between atoms: C_1  and  C_2
REMARK    2  A    between atoms: C_8  and  C_10
REMARK    3  A    between atoms: N_16  and  C_35
REMARK    4  A    between atoms: C_17  and  C_25
REMARK    5  A    between atoms: C_22  and  C_24
REMARK    6  A    between atoms: N_27  and  C_28
REMARK    7  A    between atoms: C_28  and  C_29
REMARK    8  A    between atoms: C_35  and  C_36
REMARK                            x       y       z     vdW  Elec       q    Type
REMARK                         _______ _______ _______ _____ _____    ______ ____
ROOT
ATOM      1  C   UNL     1      -3.646  -4.389  -0.006  0.00  0.00    +0.126 C 
ATOM      2  C   UNL     1      -5.135  -4.008   0.081  0.00  0.00    +0.128 C 
ATOM      3  C   UNL     1      -6.017  -4.672  -0.939  0.00  0.00    +0.224 C 
ATOM      4  O   UNL     1      -5.784  -4.748  -2.126  0.00  0.00    -0.275 OA
ATOM      5  N   UNL     1      -7.117  -5.173  -0.321  0.00  0.00    -0.282 N 
ATOM      6  C   UNL     1      -7.011  -5.018   1.150  0.00  0.00    +0.199 C 
ATOM      7  C   UNL     1      -5.548  -4.764   1.397  0.00  0.00    +0.128 C 
ATOM      8  C   UNL     1      -4.985  -3.998   2.540  0.00  0.00    +0.009 C 
ATOM      9  C   UNL     1      -3.672  -4.252   2.478  0.00  0.00    +0.007 C 
ATOM     10  C   UNL     1      -3.449  -5.216   1.306  0.00  0.00    +0.098 C 
ATOM     11  O   UNL     1      -4.723  -5.958   1.330  0.00  0.00    -0.355 OA
ATOM     12  C   UNL     1      -2.168  -6.050   1.373  0.00  0.00    +0.047 C 
ENDROOT
BRANCH   1  20
ATOM     13  C   UNL     1      -0.018   1.503   0.010  0.00  0.00    +0.089 C 
ATOM     14  C   UNL     1       0.002  -0.004   0.002  0.00  0.00    +0.136 A 
ATOM     15  C   UNL     1      -1.076  -0.808   0.003  0.00  0.00    +0.091 A 
ATOM     16  C   UNL     1      -0.625  -2.147  -0.007  0.00  0.00    +0.168 A 
ATOM     17  N   UNL     1       0.683  -2.130  -0.013  0.00  0.00    -0.063 NA
ATOM     18  O   UNL     1       1.100  -0.776  -0.013  0.00  0.00    -0.358 OA
ATOM     19  N   UNL     1      -1.432  -3.285  -0.010  0.00  0.00    -0.267 N 
ATOM     20  C   UNL     1      -2.774  -3.159  -0.003  0.00  0.00    +0.225 C 
ATOM     21  O   UNL     1      -3.280  -2.057   0.006  0.00  0.00    -0.275 OA
ATOM     22  H   UNL     1      -1.027  -4.166  -0.017  0.00  0.00    +0.156 HD
ENDBRANCH   1  20
BRANCH   6  23
ATOM     23  C   UNL     1      -7.824  -3.838   1.617  0.00  0.00    +0.237 C 
ATOM     24  O   UNL     1      -8.162  -2.983   0.826  0.00  0.00    -0.274 OA
ATOM     25  N   UNL     1      -8.175  -3.732   2.914  0.00  0.00    -0.310 N 
ATOM     26  H   UNL     1      -7.905  -4.416   3.547  0.00  0.00    +0.149 HD
BRANCH  25  27
ATOM     27  C   UNL     1      -8.964  -2.585   3.368  0.00  0.00    +0.139 C 
BRANCH  27  28
ATOM     28  C   UNL     1      -9.220  -2.705   4.848  0.00  0.00    -0.030 A 
ATOM     29  C   UNL     1     -10.343  -3.371   5.303  0.00  0.00    +0.005 A 
ATOM     30  C   UNL     1     -10.578  -3.481   6.661  0.00  0.00    +0.000 A 
ATOM     31  C   UNL     1      -9.690  -2.927   7.564  0.00  0.00    +0.000 A 
ATOM     32  C   UNL     1      -8.567  -2.262   7.108  0.00  0.00    +0.000 A 
ATOM     33  C   UNL     1      -8.330  -2.155   5.751  0.00  0.00    +0.005 A 
ENDBRANCH  27  28
ENDBRANCH  25  27
ENDBRANCH   6  23
BRANCH   5  34
ATOM     34  C   UNL     1      -8.254  -5.783  -1.014  0.00  0.00    +0.143 C 
BRANCH  34  35
ATOM     35  C   UNL     1      -8.016  -7.264  -1.162  0.00  0.00    -0.030 A 
ATOM     36  C   UNL     1      -7.364  -7.750  -2.280  0.00  0.00    +0.006 A 
ATOM     37  C   UNL     1      -7.145  -9.108  -2.416  0.00  0.00    +0.020 A 
ATOM     38  C   UNL     1      -7.579  -9.980  -1.434  0.00  0.00    +0.041 A 
ATOM     39  C   UNL     1      -8.232  -9.493  -0.316  0.00  0.00    +0.020 A 
ATOM     40  C   UNL     1      -8.445  -8.134  -0.178  0.00  0.00    +0.006 A 
ATOM     41 CL   UNL     1      -7.305 -11.686  -1.605  0.00  0.00    -0.084 Cl
ENDBRANCH  34  35
ENDBRANCH   5  34
TORSDOF 6
