REMARK  Name = ZINC46673085
REMARK  3 active torsions:
REMARK  status: ('A' for Active; 'I' for Inactive)
REMARK    1  A    between atoms: C_1  and  C_2
REMARK    2  A    between atoms: C_12  and  C_14
REMARK    3  A    between atoms: N_17  and  C_19
REMARK                            x       y       z     vdW  Elec       q    Type
REMARK                         _______ _______ _______ _____ _____    ______ ____
ROOT
ATOM      1  C   UNL     1      -0.019   1.526   0.010  0.00  0.00    +0.008 C 
ATOM      2  C   UNL     1       0.002  -0.004   0.002  0.00  0.00    -0.009 C 
ATOM      3  C   UNL     1      -1.433  -0.537   0.019  0.00  0.00    +0.010 C 
ATOM      4  C   UNL     1      -1.438  -2.046  -0.235  0.00  0.00    +0.056 C 
ATOM      5  C   UNL     1      -0.479  -2.708   0.744  0.00  0.00    +0.054 A 
ATOM      6  C   UNL     1       0.472  -1.978   1.381  0.00  0.00    +0.015 A 
ATOM      7  S   UNL     1       1.291  -3.193   2.376  0.00  0.00    -0.057 S 
ATOM      8  C   UNL     1       0.366  -4.521   1.905  0.00  0.00    +0.165 A 
ATOM      9  N   UNL     1      -0.487  -4.003   1.049  0.00  0.00    -0.229 NA
ATOM     10  N   UNL     1       0.478  -5.842   2.320  0.00  0.00    -0.259 N 
ATOM     11  C   UNL     1      -0.359  -6.776   1.828  0.00  0.00    +0.270 C 
ATOM     12  O   UNL     1      -1.214  -6.463   1.022  0.00  0.00    -0.268 OA
ATOM     13  C   UNL     1       0.739  -0.516   1.250  0.00  0.00    +0.047 C 
ATOM     14  H   UNL     1       1.160  -6.092   2.963  0.00  0.00    +0.157 HD
ENDROOT
BRANCH  11  15
ATOM     15  C   UNL     1      -0.240  -8.180   2.269  0.00  0.00    +0.148 A 
ATOM     16  C   UNL     1      -1.039  -9.267   1.841  0.00  0.00    +0.054 A 
ATOM     17  C   UNL     1      -0.569 -10.347   2.507  0.00  0.00    +0.115 A 
ATOM     18  N   UNL     1       0.456  -9.921   3.290  0.00  0.00    -0.239 N 
ATOM     19  N   UNL     1       0.635  -8.658   3.133  0.00  0.00    -0.162 NA
BRANCH  18  20
ATOM     20  C   UNL     1       1.211 -10.739   4.141  0.00  0.00    +0.065 A 
ATOM     21  C   UNL     1       0.936 -12.097   4.223  0.00  0.00    +0.028 A 
ATOM     22  C   UNL     1       1.682 -12.901   5.063  0.00  0.00    +0.002 A 
ATOM     23  C   UNL     1       2.701 -12.354   5.821  0.00  0.00    +0.000 A 
ATOM     24  C   UNL     1       2.977 -11.002   5.741  0.00  0.00    +0.002 A 
ATOM     25  C   UNL     1       2.239 -10.194   4.898  0.00  0.00    +0.028 A 
ENDBRANCH  18  20
ENDBRANCH  11  15
TORSDOF 2
