REMARK  Name = ZINC20432600
REMARK  3 active torsions:
REMARK  status: ('A' for Active; 'I' for Inactive)
REMARK    1  A    between atoms: C_2  and  S_9
REMARK    2  A    between atoms: S_9  and  N_12
REMARK    3  A    between atoms: C_17  and  N_19
REMARK                            x       y       z     vdW  Elec       q    Type
REMARK                         _______ _______ _______ _____ _____    ______ ____
ROOT
ATOM      1  S   UNL     1      -1.197   0.525   2.382  0.00  0.00    +0.063 S 
ATOM      2  O   UNL     1      -1.289  -0.238   3.577  0.00  0.00    -0.153 OA
ATOM      3  O   UNL     1      -0.387   1.688   2.280  0.00  0.00    -0.153 OA
ENDROOT
BRANCH   1   5
ATOM      4  C   UNL     1      -3.916   0.285   2.434  0.00  0.00    +0.048 A 
ATOM      5  C   UNL     1      -2.838   1.018   1.972  0.00  0.00    +0.108 A 
ATOM      6  C   UNL     1      -3.048   2.140   1.192  0.00  0.00    +0.048 A 
ATOM      7  C   UNL     1      -4.336   2.525   0.866  0.00  0.00    +0.044 A 
ATOM      8  C   UNL     1      -5.415   1.792   1.328  0.00  0.00    +0.040 A 
ATOM      9  C   UNL     1      -5.204   0.672   2.112  0.00  0.00    +0.044 A 
ATOM     10 CL   UNL     1      -6.557  -0.248   2.693  0.00  0.00    -0.083 Cl
ATOM     11 CL   UNL     1      -4.599   3.930  -0.119  0.00  0.00    -0.083 Cl
ENDBRANCH   1   5
BRANCH   1  12
ATOM     12  N   UNL     1      -0.687  -0.513   1.196  0.00  0.00    -0.152 NA
ATOM     13  C   UNL     1      -0.914  -1.959   1.318  0.00  0.00    +0.112 C 
ATOM     14  C   UNL     1      -1.630  -2.454   0.058  0.00  0.00    +0.017 C 
ATOM     15  C   UNL     1      -0.822  -2.046  -1.177  0.00  0.00    +0.005 C 
ATOM     16  C   UNL     1      -0.724  -0.521  -1.244  0.00  0.00    +0.045 C 
ATOM     17  C   UNL     1       0.002  -0.004   0.002  0.00  0.00    +0.208 C 
BRANCH  17  18
ATOM     18  N   UNL     1      -0.018   1.461   0.010  0.00  0.00    -0.185 NA
ATOM     19  C   UNL     1       1.056   2.100   0.003  0.00  0.00    +0.236 C 
ATOM     20  O   UNL     1       2.094   2.719  -0.003  0.00  0.00    -0.210 OA
ENDBRANCH  17  18
ENDBRANCH   1  12
TORSDOF 3
