REMARK  Name = ZINC39581770
REMARK  5 active torsions:
REMARK  status: ('A' for Active; 'I' for Inactive)
REMARK    1  A    between atoms: C_1  and  C_2
REMARK    2  A    between atoms: C_4  and  C_9
REMARK    3  A    between atoms: C_5  and  C_8
REMARK    4  A    between atoms: C_9  and  S_10
REMARK    5  A    between atoms: S_10  and  C_13
REMARK                            x       y       z     vdW  Elec       q    Type
REMARK                         _______ _______ _______ _____ _____    ______ ____
ROOT
ATOM      1  S   UNL     1      -0.972  -1.374  -3.122  0.00  0.00    +0.001 S 
ATOM      2  O   UNL     1      -0.594  -2.743  -3.072  0.00  0.00    -0.169 OA
ATOM      3  O   UNL     1      -2.152  -0.924  -2.471  0.00  0.00    -0.169 OA
ENDROOT
BRANCH   1   4
ATOM      4  C   UNL     1      -1.247  -1.045  -4.831  0.00  0.00    +0.089 A 
ATOM      5  C   UNL     1      -2.105  -0.030  -5.210  0.00  0.00    +0.027 A 
ATOM      6  C   UNL     1      -2.321   0.228  -6.550  0.00  0.00    +0.002 A 
ATOM      7  C   UNL     1      -1.678  -0.528  -7.512  0.00  0.00    +0.000 A 
ATOM      8  C   UNL     1      -0.818  -1.542  -7.133  0.00  0.00    +0.002 A 
ATOM      9  C   UNL     1      -0.599  -1.798  -5.793  0.00  0.00    +0.027 A 
ENDBRANCH   1   4
BRANCH   1  10
ATOM     10  C   UNL     1       0.433  -0.322  -2.664  0.00  0.00    +0.206 C 
BRANCH  10  13
ATOM     11  C   UNL     1      -0.019   1.526   0.010  0.00  0.00    +0.039 C 
ATOM     12  C   UNL     1       0.002  -0.004   0.002  0.00  0.00    +0.154 C 
ATOM     13  C   UNL     1       0.759  -0.524  -1.207  0.00  0.00    -0.000 C 
ATOM     14  C   UNL     1       1.780  -1.203  -0.679  0.00  0.00    +0.063 C 
ATOM     15  N   UNL     1       1.738  -1.160   0.671  0.00  0.00    -0.159 NA
ATOM     16  N   UNL     1       0.787  -0.521   1.136  0.00  0.00    -0.180 NA
ATOM     17  C   UNL     1       2.837  -1.919  -1.480  0.00  0.00    +0.067 C 
ENDBRANCH  10  13
ENDBRANCH   1  10
TORSDOF 3
