REMARK  Name = ZINC36494144
REMARK  12 active torsions:
REMARK  status: ('A' for Active; 'I' for Inactive)
REMARK    1  A    between atoms: C_1  and  C_2
REMARK    2  A    between atoms: C_2  and  C_3
REMARK    3  A    between atoms: C_3  and  C_4
REMARK    4  A    between atoms: C_4  and  N_5
REMARK    5  A    between atoms: C_6  and  C_8
REMARK    6  A    between atoms: C_8  and  C_10
REMARK    7  A    between atoms: C_8  and  N_24
REMARK    8  A    between atoms: N_24  and  C_25
REMARK    9  A    between atoms: C_25  and  C_26
REMARK   10  A    between atoms: C_31  and  C_33
REMARK   11  A    between atoms: C_38  and  O_39
REMARK   12  A    between atoms: O_39  and  C_40
REMARK                            x       y       z     vdW  Elec       q    Type
REMARK                         _______ _______ _______ _____ _____    ______ ____
ROOT
ATOM      1  C   UNL     1      -4.960  -5.785  -0.855  0.00  0.00    +0.193 C 
ENDROOT
BRANCH   1   2
ATOM      2  C   UNL     1      -5.306  -4.624   0.042  0.00  0.00    -0.010 A 
ATOM      3  C   UNL     1      -4.625  -4.454   1.194  0.00  0.00    +0.015 A 
ATOM      4  C   UNL     1      -4.912  -3.381   2.069  0.00  0.00    -0.017 A 
ATOM      5  C   UNL     1      -4.198  -3.213   3.264  0.00  0.00    +0.008 A 
ATOM      6  C   UNL     1      -4.495  -2.168   4.089  0.00  0.00    +0.001 A 
ATOM      7  C   UNL     1      -5.500  -1.265   3.763  0.00  0.00    +0.001 A 
ATOM      8  C   UNL     1      -6.214  -1.401   2.607  0.00  0.00    +0.009 A 
ATOM      9  C   UNL     1      -5.933  -2.460   1.741  0.00  0.00    -0.010 A 
ATOM     10  C   UNL     1      -6.673  -2.645   0.490  0.00  0.00    -0.010 A 
ATOM     11  C   UNL     1      -6.334  -3.734  -0.344  0.00  0.00    -0.012 A 
ATOM     12  C   UNL     1      -7.033  -3.916  -1.546  0.00  0.00    +0.009 A 
ATOM     13  C   UNL     1      -8.021  -3.042  -1.895  0.00  0.00    +0.001 A 
ATOM     14  C   UNL     1      -8.347  -1.969  -1.073  0.00  0.00    +0.001 A 
ATOM     15  C   UNL     1      -7.693  -1.771   0.109  0.00  0.00    +0.009 A 
ENDBRANCH   1   2
BRANCH   1  17
ATOM     16  N   UNL     1      -4.934  -4.402  -2.905  0.00  0.00    -0.313 N 
ATOM     17  C   UNL     1      -4.290  -5.272  -2.103  0.00  0.00    +0.238 C 
ATOM     18  O   UNL     1      -3.170  -5.643  -2.386  0.00  0.00    -0.273 OA
ATOM     19  H   UNL     1      -5.830  -4.105  -2.679  0.00  0.00    +0.149 HD
BRANCH  16  20
ATOM     20  C   UNL     1      -4.283  -3.903  -4.119  0.00  0.00    +0.104 C 
BRANCH  20  21
ATOM     21  C   UNL     1      -5.223  -2.937  -4.843  0.00  0.00    +0.018 C 
BRANCH  21  23
ATOM     22  C   UNL     1      -5.483  -1.451  -6.834  0.00  0.00    +0.004 C 
ATOM     23  C   UNL     1      -4.543  -2.417  -6.110  0.00  0.00    -0.002 C 
ENDBRANCH  21  23
ENDBRANCH  20  21
ENDBRANCH  16  20
ENDBRANCH   1  17
BRANCH   1  24
ATOM     24  N   UNL     1      -4.051  -6.692  -0.150  0.00  0.00    -0.274 N 
ATOM     25  C   UNL     1      -4.548  -7.678   0.624  0.00  0.00    +0.251 C 
ATOM     26  O   UNL     1      -3.801  -8.345   1.312  0.00  0.00    -0.270 OA
BRANCH  25  27
ATOM     27  C   UNL     1      -5.999  -7.946   0.634  0.00  0.00    +0.078 A 
ATOM     28  C   UNL     1      -6.908  -6.901   0.456  0.00  0.00    +0.017 A 
ATOM     29  C   UNL     1      -8.262  -7.158   0.466  0.00  0.00    +0.001 A 
ATOM     30  C   UNL     1      -8.726  -8.450   0.653  0.00  0.00    +0.004 A 
ATOM     31  C   UNL     1      -7.838  -9.492   0.831  0.00  0.00    +0.046 A 
ATOM     32  C   UNL     1      -6.472  -9.252   0.818  0.00  0.00    +0.132 A 
BRANCH  32  33
ATOM     33  O   UNL     1      -5.599 -10.276   0.987  0.00  0.00    -0.494 OA
ATOM     34  C   UNL     1      -6.155 -11.580   1.168  0.00  0.00    +0.277 C 
ENDBRANCH  32  33
ENDBRANCH  25  27
BRANCH  24  35
ATOM     35  C   UNL     1      -2.601  -6.529  -0.286  0.00  0.00    +0.183 C 
BRANCH  35  36
ATOM     36  C   UNL     1      -2.040  -7.673  -1.089  0.00  0.00    +0.122 A 
ATOM     37  C   UNL     1      -1.400  -7.567  -2.268  0.00  0.00    +0.046 A 
ATOM     38  C   UNL     1      -1.047  -8.879  -2.662  0.00  0.00    +0.041 A 
ATOM     39  C   UNL     1      -1.494  -9.707  -1.700  0.00  0.00    +0.195 A 
ATOM     40  O   UNL     1      -2.089  -8.971  -0.748  0.00  0.00    -0.466 OA
ENDBRANCH  35  36
ENDBRANCH  24  35
ENDBRANCH   1  24
TORSDOF 10
