REMARK  Name = ZINC51038408
REMARK  7 active torsions:
REMARK  status: ('A' for Active; 'I' for Inactive)
REMARK    1  A    between atoms: C_1  and  C_2
REMARK    2  A    between atoms: C_5  and  S_7
REMARK    3  A    between atoms: S_7  and  C_8
REMARK    4  A    between atoms: C_10  and  C_16
REMARK    5  A    between atoms: C_11  and  N_15
REMARK    6  A    between atoms: C_16  and  O_18
REMARK    7  A    between atoms: O_18  and  C_19
REMARK                            x       y       z     vdW  Elec       q    Type
REMARK                         _______ _______ _______ _____ _____    ______ ____
ROOT
ATOM      1  C   UNL     1       0.077  -5.047   0.640  0.00  0.00    +0.053 A 
ATOM      2  C   UNL     1       0.199  -4.678  -0.687  0.00  0.00    +0.035 A 
ATOM      3  C   UNL     1       0.276  -5.661  -1.679  0.00  0.00    +0.081 A 
ATOM      4  C   UNL     1       0.230  -7.018  -1.319  0.00  0.00    +0.041 A 
ATOM      5  C   UNL     1       0.108  -7.373   0.017  0.00  0.00    +0.063 A 
ATOM      6  C   UNL     1       0.038  -6.396   0.991  0.00  0.00    +0.139 A 
ATOM      7  F   UNL     1      -0.075  -6.749   2.291  0.00  0.00    -0.204 F 
ENDROOT
BRANCH   4   8
ATOM      8  N   UNL     1       0.306  -8.002  -2.299  0.00  0.00    -0.357 N 
ATOM      9  H   UNL     1       0.304  -7.754  -3.236  0.00  0.00    +0.142 HD
ATOM     10  H   UNL     1       0.361  -8.936  -2.044  0.00  0.00    +0.142 HD
ENDBRANCH   4   8
BRANCH   3  11
ATOM     11  C   UNL     1       0.405  -5.275  -3.093  0.00  0.00    +0.341 C 
ATOM     12  O   UNL     1       0.362  -6.125  -3.961  0.00  0.00    -0.245 OA
BRANCH  11  13
ATOM     13  O   UNL     1       0.571  -3.979  -3.426  0.00  0.00    -0.464 OA
ATOM     14  C   UNL     1       0.689  -3.677  -4.818  0.00  0.00    +0.280 C 
ENDBRANCH  11  13
ENDBRANCH   3  11
BRANCH   1  15
ATOM     15  S   UNL     1      -0.020  -3.810   1.891  0.00  0.00    -0.027 S 
BRANCH  15  20
ATOM     16  C   UNL     1      -4.641  -2.801   4.248  0.00  0.00    +0.111 C 
ATOM     17  C   UNL     1      -3.596  -3.364   3.320  0.00  0.00    +0.215 A 
ATOM     18  N   UNL     1      -3.799  -4.218   2.361  0.00  0.00    -0.112 NA
ATOM     19  N   UNL     1      -2.686  -4.479   1.772  0.00  0.00    -0.101 NA
ATOM     20  C   UNL     1      -1.724  -3.793   2.341  0.00  0.00    +0.282 A 
ATOM     21  O   UNL     1      -2.281  -3.067   3.329  0.00  0.00    -0.416 OA
ENDBRANCH  15  20
ENDBRANCH   1  15
TORSDOF 5
