REMARK  Name = ZINC65466616
REMARK  4 active torsions:
REMARK  status: ('A' for Active; 'I' for Inactive)
REMARK    1  A    between atoms: C_1  and  C_2
REMARK    2  A    between atoms: C_7  and  O_8
REMARK    3  A    between atoms: C_13  and  C_15
REMARK    4  A    between atoms: C_19  and  C_26
REMARK                            x       y       z     vdW  Elec       q    Type
REMARK                         _______ _______ _______ _____ _____    ______ ____
ROOT
ATOM      1  C   UNL     1      -0.018   1.503   0.010  0.00  0.00    +0.047 C 
ATOM      2  C   UNL     1       0.002  -0.004   0.002  0.00  0.00    -0.009 A 
ATOM      3  C   UNL     1       0.006  -0.688  -1.199  0.00  0.00    +0.013 A 
ATOM      4  C   UNL     1       0.025  -2.068  -1.210  0.00  0.00    -0.018 A 
ATOM      5  C   UNL     1       0.040  -2.774  -0.014  0.00  0.00    +0.041 A 
ATOM      6  C   UNL     1       0.036  -2.090   1.193  0.00  0.00    +0.069 A 
ATOM      7  C   UNL     1       0.023  -0.703   1.200  0.00  0.00    +0.122 A 
ATOM      8  N   UNL     1       0.059  -4.172  -0.028  0.00  0.00    -0.285 N 
ATOM      9  C   UNL     1       0.432  -4.838  -1.137  0.00  0.00    +0.218 C 
ATOM     10  O   UNL     1       0.429  -6.051  -1.137  0.00  0.00    -0.275 OA
ATOM     11  C   UNL     1       0.851  -4.095  -2.376  0.00  0.00    +0.109 C 
ATOM     12  C   UNL     1       0.029  -2.814  -2.520  0.00  0.00    +0.060 C 
ATOM     13  H   UNL     1      -0.197  -4.665   0.767  0.00  0.00    +0.155 HD
ENDROOT
BRANCH  12  14
ATOM     14  C   UNL     1      -1.386  -3.167  -2.901  0.00  0.00    -0.036 A 
ATOM     15  C   UNL     1      -2.147  -3.961  -2.055  0.00  0.00    +0.005 A 
ATOM     16  C   UNL     1      -3.432  -4.292  -2.383  0.00  0.00    +0.012 A 
ATOM     17  C   UNL     1      -3.983  -3.826  -3.581  0.00  0.00    +0.021 A 
ATOM     18  C   UNL     1      -5.359  -4.162  -3.962  0.00  0.00    -0.033 A 
ATOM     19  C   UNL     1      -5.834  -3.678  -5.137  0.00  0.00    +0.096 A 
ATOM     20  C   UNL     1      -5.006  -2.875  -5.952  0.00  0.00    +0.337 A 
ATOM     21  O   UNL     1      -5.445  -2.447  -7.004  0.00  0.00    -0.245 OA
ATOM     22  O   UNL     1      -3.749  -2.572  -5.596  0.00  0.00    -0.422 OA
ATOM     23  C   UNL     1      -3.215  -3.021  -4.441  0.00  0.00    +0.140 A 
ATOM     24  C   UNL     1      -1.913  -2.694  -4.084  0.00  0.00    +0.051 A 
ATOM     25  C   UNL     1      -6.220  -5.021  -3.073  0.00  0.00    +0.045 C 
ENDBRANCH  12  14
BRANCH   7  26
ATOM     26  O   UNL     1       0.024  -0.030   2.381  0.00  0.00    -0.506 OA
ATOM     27  H   UNL     1      -0.858   0.153   2.730  0.00  0.00    +0.292 HD
ENDBRANCH   7  26
TORSDOF 2
