REMARK  Name = ZINC38886158
REMARK  11 active torsions:
REMARK  status: ('A' for Active; 'I' for Inactive)
REMARK    1  A    between atoms: C_1  and  C_2
REMARK    2  A    between atoms: C_5  and  C_9
REMARK    3  A    between atoms: C_6  and  C_8
REMARK    4  A    between atoms: C_9  and  C_11
REMARK    5  A    between atoms: C_9  and  N_14
REMARK    6  A    between atoms: C_11  and  C_12
REMARK    7  A    between atoms: C_11  and  C_13
REMARK    8  A    between atoms: C_15  and  C_17
REMARK    9  A    between atoms: N_22  and  C_24
REMARK   10  A    between atoms: C_24  and  C_25
REMARK   11  A    between atoms: C_27  and  C_30
REMARK                            x       y       z     vdW  Elec       q    Type
REMARK                         _______ _______ _______ _____ _____    ______ ____
ROOT
ATOM      1  C   UNL     1       2.050  -6.453  -2.959  0.00  0.00    +0.058 C 
ATOM      2  C   UNL     1       3.183  -5.487  -3.319  0.00  0.00    +0.009 C 
ATOM      3  C   UNL     1       3.930  -6.025  -4.542  0.00  0.00    -0.018 C 
ATOM      4  C   UNL     1       4.444  -7.434  -4.240  0.00  0.00    -0.078 C 
ATOM      5  N   UNL     1       3.312  -8.316  -3.930  0.00  0.00    +0.386 N 
ATOM      6  C   UNL     1       2.633  -7.847  -2.716  0.00  0.00    -0.065 C 
ATOM      7  H   UNL     1       2.662  -8.310  -4.701  0.00  0.00    -0.081 HD
ENDROOT
BRANCH   1   9
ATOM      8  N   UNL     1       0.767  -4.761  -1.691  0.00  0.00    -0.308 N 
ATOM      9  C   UNL     1       1.356  -5.972  -1.711  0.00  0.00    +0.215 C 
ATOM     10  O   UNL     1       1.329  -6.676  -0.723  0.00  0.00    -0.276 OA
ATOM     11  H   UNL     1       0.789  -4.198  -2.481  0.00  0.00    +0.149 HD
BRANCH   8  12
ATOM     12  C   UNL     1       0.092  -4.294  -0.477  0.00  0.00    +0.106 C 
BRANCH  12  17
ATOM     13  C   UNL     1      -0.010   1.484  -0.428  0.00  0.00    +0.044 C 
ATOM     14  C   UNL     1       0.017  -0.023  -0.441  0.00  0.00    -0.050 A 
ATOM     15  C   UNL     1      -1.119  -0.731  -0.787  0.00  0.00    +0.004 A 
ATOM     16  C   UNL     1      -1.094  -2.113  -0.799  0.00  0.00    +0.006 A 
ATOM     17  C   UNL     1       0.066  -2.787  -0.465  0.00  0.00    -0.024 A 
ATOM     18  C   UNL     1       1.202  -2.079  -0.120  0.00  0.00    -0.045 A 
ATOM     19  C   UNL     1       1.178  -0.696  -0.113  0.00  0.00    +0.007 A 
ATOM     20  C   UNL     1       2.466  -2.813   0.243  0.00  0.00    +0.044 C 
ENDBRANCH  12  17
BRANCH  12  21
ATOM     21  C   UNL     1      -1.341  -4.829  -0.452  0.00  0.00    +0.008 C 
ATOM     22  C   UNL     1      -1.319  -6.352  -0.594  0.00  0.00    +0.009 C 
ATOM     23  C   UNL     1      -2.003  -4.450   0.874  0.00  0.00    +0.009 C 
ENDBRANCH  12  21
ENDBRANCH   8  12
ENDBRANCH   1   9
BRANCH   5  24
ATOM     24  C   UNL     1       3.803  -9.684  -3.717  0.00  0.00    +0.022 C 
BRANCH  24  25
ATOM     25  C   UNL     1       4.382 -10.215  -5.002  0.00  0.00    +0.211 A 
ATOM     26  N   UNL     1       5.624 -10.107  -5.380  0.00  0.00    -0.193 NA
ATOM     27  C   UNL     1       5.794 -10.694  -6.578  0.00  0.00    +0.202 A 
ATOM     28  N   UNL     1       4.645 -11.185  -6.971  0.00  0.00    -0.056 NA
ATOM     29  O   UNL     1       3.708 -10.884  -5.947  0.00  0.00    -0.340 OA
BRANCH  27  30
ATOM     30  C   UNL     1       7.071 -10.772  -7.330  0.00  0.00    +0.022 A 
ATOM     31  C   UNL     1       8.231 -10.212  -6.799  0.00  0.00    +0.012 A 
ATOM     32  C   UNL     1       9.416 -10.288  -7.502  0.00  0.00    +0.001 A 
ATOM     33  C   UNL     1       9.454 -10.918  -8.733  0.00  0.00    +0.000 A 
ATOM     34  C   UNL     1       8.305 -11.476  -9.265  0.00  0.00    +0.001 A 
ATOM     35  C   UNL     1       7.116 -11.411  -8.567  0.00  0.00    +0.012 A 
ENDBRANCH  27  30
ENDBRANCH  24  25
ENDBRANCH   5  24
TORSDOF 7
