REMARK  Name = ZINC35591910
REMARK  13 active torsions:
REMARK  status: ('A' for Active; 'I' for Inactive)
REMARK    1  A    between atoms: C_1  and  C_2
REMARK    2  A    between atoms: C_7  and  C_8
REMARK    3  A    between atoms: C_8  and  O_9
REMARK    4  A    between atoms: O_9  and  C_10
REMARK    5  A    between atoms: C_10  and  C_31
REMARK    6  A    between atoms: C_12  and  O_30
REMARK    7  A    between atoms: C_14  and  O_29
REMARK    8  A    between atoms: C_16  and  O_19
REMARK    9  A    between atoms: O_19  and  C_20
REMARK   10  A    between atoms: C_20  and  C_21
REMARK   11  A    between atoms: C_26  and  C_27
REMARK   12  A    between atoms: N_33  and  C_34
REMARK   13  A    between atoms: C_34  and  C_35
REMARK                            x       y       z     vdW  Elec       q    Type
REMARK                         _______ _______ _______ _____ _____    ______ ____
ROOT
ATOM      1  C   UNL     1       0.166  -0.284   4.874  0.00  0.00    +0.150 C 
ATOM      2  C   UNL     1      -1.036   0.479   5.434  0.00  0.00    +0.078 C 
ATOM      3  C   UNL     1      -0.747   0.902   6.875  0.00  0.00    +0.149 C 
ATOM      4  C   UNL     1      -0.490  -0.342   7.729  0.00  0.00    +0.172 C 
ATOM      5  C   UNL     1       0.713  -1.105   7.170  0.00  0.00    +0.153 C 
ATOM      6  C   UNL     1       0.423  -1.527   5.728  0.00  0.00    +0.079 C 
ENDROOT
BRANCH   1   7
ATOM      7  C   UNL     1       1.383   0.605   4.903  0.00  0.00    +0.246 C 
ATOM      8  O   UNL     1       1.400   1.586   5.615  0.00  0.00    -0.273 OA
ATOM      9  N   UNL     1       2.451   0.309   4.136  0.00  0.00    -0.306 N 
ATOM     10  H   UNL     1       2.467  -0.514   3.622  0.00  0.00    +0.149 HD
BRANCH   9  11
ATOM     11  C   UNL     1       3.590   1.229   4.080  0.00  0.00    +0.178 C 
BRANCH  11  12
ATOM     12  C   UNL     1       4.643   0.669   3.159  0.00  0.00    +0.122 A 
ATOM     13  C   UNL     1       4.736   0.899   1.837  0.00  0.00    +0.046 A 
ATOM     14  C   UNL     1       5.863   0.183   1.375  0.00  0.00    +0.041 A 
ATOM     15  C   UNL     1       6.392  -0.442   2.442  0.00  0.00    +0.195 A 
ATOM     16  O   UNL     1       5.653  -0.139   3.521  0.00  0.00    -0.466 OA
ENDBRANCH  11  12
ENDBRANCH   9  11
ENDBRANCH   1   7
BRANCH   4  17
ATOM     17  O   UNL     1      -1.644  -1.184   7.702  0.00  0.00    -0.387 OA
ATOM     18  H   UNL     1      -2.445  -0.765   8.043  0.00  0.00    +0.210 HD
ENDBRANCH   4  17
BRANCH   3  19
ATOM     19  O   UNL     1      -1.869   1.615   7.397  0.00  0.00    -0.389 OA
ATOM     20  H   UNL     1      -1.756   1.914   8.310  0.00  0.00    +0.210 HD
ENDBRANCH   3  19
BRANCH   1  21
ATOM     21  O   UNL     1      -0.104  -0.679   3.528  0.00  0.00    -0.359 OA
BRANCH  21  22
ATOM     22  C   UNL     1      -0.318   0.415   2.634  0.00  0.00    +0.196 C 
BRANCH  22  29
ATOM     23  C   UNL     1      -0.772   2.252   0.450  0.00  0.00    +0.044 C 
ATOM     24  C   UNL     1      -0.688   0.771   0.184  0.00  0.00    -0.045 A 
ATOM     25  C   UNL     1      -0.822   0.293  -1.106  0.00  0.00    +0.004 A 
ATOM     26  C   UNL     1      -0.744  -1.065  -1.351  0.00  0.00    +0.000 A 
ATOM     27  C   UNL     1      -0.532  -1.945  -0.305  0.00  0.00    +0.000 A 
ATOM     28  C   UNL     1      -0.398  -1.466   0.984  0.00  0.00    +0.006 A 
ATOM     29  C   UNL     1      -0.471  -0.107   1.228  0.00  0.00    -0.019 A 
ENDBRANCH  22  29
ENDBRANCH  21  22
ENDBRANCH   1  21
BRANCH   5  30
ATOM     30  O   UNL     1       0.952  -2.266   7.968  0.00  0.00    -0.369 OA
BRANCH  30  31
ATOM     31  C   UNL     1       1.847  -2.046   9.060  0.00  0.00    +0.196 C 
BRANCH  31  32
ATOM     32  C   UNL     1       2.026  -3.330   9.829  0.00  0.00    -0.005 A 
ATOM     33  C   UNL     1       1.371  -4.475   9.425  0.00  0.00    +0.007 A 
ATOM     34  C   UNL     1       1.534  -5.654  10.129  0.00  0.00    +0.000 A 
ATOM     35  C   UNL     1       2.355  -5.695  11.243  0.00  0.00    +0.001 A 
ATOM     36  C   UNL     1       3.016  -4.558  11.658  0.00  0.00    +0.019 A 
ATOM     37  C   UNL     1       2.860  -3.365  10.947  0.00  0.00    +0.057 A 
BRANCH  37  38
ATOM     38  C   UNL     1       3.549  -2.182  11.369  0.00  0.00    +0.100 C 
ATOM     39  N   UNL     1       4.094  -1.244  11.703  0.00  0.00    -0.191 NA
ENDBRANCH  37  38
ENDBRANCH  31  32
ENDBRANCH  30  31
ENDBRANCH   5  30
TORSDOF 12
