REMARK  Name = ZINC13500186
REMARK  16 active torsions:
REMARK  status: ('A' for Active; 'I' for Inactive)
REMARK    1  A    between atoms: C_1  and  C_2
REMARK    2  A    between atoms: C_2  and  C_3
REMARK    3  A    between atoms: C_3  and  C_4
REMARK    4  A    between atoms: C_4  and  C_6
REMARK    5  A    between atoms: C_4  and  N_72
REMARK    6  A    between atoms: N_10  and  C_11
REMARK    7  A    between atoms: C_11  and  C_12
REMARK    8  A    between atoms: C_12  and  O_14
REMARK    9  A    between atoms: O_14  and  C_15
REMARK   10  A    between atoms: C_15  and  C_16
REMARK   11  A    between atoms: C_17  and  C_18
REMARK   12  A    between atoms: C_17  and  N_72
REMARK   13  A    between atoms: C_22  and  O_30
REMARK   14  A    between atoms: O_30  and  C_31
REMARK   15  A    between atoms: C_31  and  C_32
REMARK   16  A    between atoms: C_33  and  N_72
REMARK                            x       y       z     vdW  Elec       q    Type
REMARK                         _______ _______ _______ _____ _____    ______ ____
ROOT
ATOM      1  N   UNL     1       0.884  -0.641  -1.031  0.00  0.00    +0.391 N 
ATOM      2  H   UNL     1       1.735  -0.250  -0.610  0.00  0.00    -0.080 HD
ENDROOT
BRANCH   1   3
ATOM      3  C   UNL     1       0.827  -0.243  -2.454  0.00  0.00    -0.067 C 
ATOM      4  C   UNL     1      -0.526  -0.630  -3.084  0.00  0.00    -0.015 C 
ATOM      5  C   UNL     1      -0.162  -1.065  -4.526  0.00  0.00    -0.002 C 
ATOM      6  C   UNL     1       1.182  -1.810  -4.330  0.00  0.00    -0.002 C 
ATOM      7  C   UNL     1       1.913  -0.993  -3.245  0.00  0.00    -0.015 C 
ENDBRANCH   1   3
BRANCH   1   8
ATOM      8  C   UNL     1      -0.294  -0.113  -0.311  0.00  0.00    +0.003 C 
BRANCH   8   9
ATOM      9  C   UNL     1      -0.635   1.254  -0.848  0.00  0.00    +0.139 A 
ATOM     10  N   UNL     1       0.207   2.222  -1.117  0.00  0.00    -0.115 NA
ATOM     11  N   UNL     1      -0.470   3.227  -1.556  0.00  0.00    -0.023 NA
ATOM     12  N   UNL     1      -1.721   2.925  -1.574  0.00  0.00    -0.043 NA
ATOM     13  N   UNL     1      -1.863   1.715  -1.149  0.00  0.00    -0.220 N 
BRANCH  13  14
ATOM     14  C   UNL     1      -3.125   0.982  -1.017  0.00  0.00    +0.267 C 
BRANCH  14  15
ATOM     15  C   UNL     1      -3.700   1.216   0.356  0.00  0.00    +0.329 C 
ATOM     16  O   UNL     1      -3.117   1.923   1.143  0.00  0.00    -0.249 OA
BRANCH  15  17
ATOM     17  O   UNL     1      -4.862   0.640   0.704  0.00  0.00    -0.464 OA
BRANCH  17  18
ATOM     18  C   UNL     1      -5.356   0.910   2.042  0.00  0.00    +0.229 C 
ATOM     19  C   UNL     1      -6.680   0.173   2.255  0.00  0.00    +0.048 C 
ENDBRANCH  17  18
ENDBRANCH  15  17
ENDBRANCH  14  15
ENDBRANCH  13  14
ENDBRANCH   8   9
BRANCH   8  20
ATOM     20  C   UNL     1       0.050  -0.005   1.176  0.00  0.00    -0.008 C 
BRANCH  20  22
ATOM     21  C   UNL     1       1.581   1.060   2.838  0.00  0.00    +0.004 C 
ATOM     22  C   UNL     1       1.145   1.046   1.371  0.00  0.00    -0.005 C 
ENDBRANCH  20  22
ENDBRANCH   8  20
ENDBRANCH   1   8
BRANCH   1  23
ATOM     23  C   UNL     1       0.926  -2.114  -0.920  0.00  0.00    -0.036 C 
BRANCH  23  24
ATOM     24  C   UNL     1      -0.451  -2.696  -1.112  0.00  0.00    +0.001 A 
ATOM     25  C   UNL     1      -0.800  -3.223  -2.312  0.00  0.00    +0.017 A 
ATOM     26  C   UNL     1      -2.144  -3.785  -2.465  0.00  0.00    +0.002 A 
ATOM     27  C   UNL     1      -2.557  -4.348  -3.677  0.00  0.00    +0.055 A 
ATOM     28  C   UNL     1      -3.832  -4.865  -3.788  0.00  0.00    +0.121 A 
ATOM     29  C   UNL     1      -4.703  -4.828  -2.702  0.00  0.00    +0.047 A 
ATOM     30  C   UNL     1      -4.308  -4.276  -1.504  0.00  0.00    +0.030 A 
ATOM     31  C   UNL     1      -3.027  -3.749  -1.370  0.00  0.00    +0.049 A 
ATOM     32  N   UNL     1      -2.612  -3.193  -0.177  0.00  0.00    -0.322 N 
ATOM     33  H   UNL     1      -3.222  -3.169   0.577  0.00  0.00    +0.169 HD
ATOM     34  C   UNL     1      -1.375  -2.685  -0.045  0.00  0.00    +0.251 A 
ATOM     35  O   UNL     1      -1.042  -2.202   1.024  0.00  0.00    -0.268 OA
BRANCH  28  36
ATOM     36  O   UNL     1      -4.239  -5.414  -4.964  0.00  0.00    -0.492 OA
BRANCH  36  37
ATOM     37  C   UNL     1      -5.570  -5.931  -5.012  0.00  0.00    +0.225 C 
ATOM     38  C   UNL     1      -5.846  -6.502  -6.404  0.00  0.00    +0.048 C 
ENDBRANCH  36  37
ENDBRANCH  28  36
ENDBRANCH  23  24
ENDBRANCH   1  23
TORSDOF 13
