REMARK  Name = ZINC66312654
REMARK  7 active torsions:
REMARK  status: ('A' for Active; 'I' for Inactive)
REMARK    1  A    between atoms: C_1  and  C_2
REMARK    2  A    between atoms: C_7  and  C_8
REMARK    3  A    between atoms: C_10  and  C_13
REMARK    4  A    between atoms: C_13  and  O_15
REMARK    5  A    between atoms: O_15  and  C_16
REMARK    6  A    between atoms: C_22  and  O_24
REMARK    7  A    between atoms: O_24  and  C_25
REMARK                            x       y       z     vdW  Elec       q    Type
REMARK                         _______ _______ _______ _____ _____    ______ ____
ROOT
ATOM      1  C   UNL     1      -0.121  -0.125   2.565  0.00  0.00    +0.109 A 
ATOM      2  N   UNL     1      -0.006  -0.663   3.764  0.00  0.00    -0.232 NA
ATOM      3  C   UNL     1      -0.107   0.126   4.826  0.00  0.00    +0.155 A 
ATOM      4  C   UNL     1      -0.328   1.475   4.633  0.00  0.00    +0.082 A 
ATOM      5  S   UNL     1      -0.381   1.597   2.955  0.00  0.00    -0.075 S 
ENDROOT
BRANCH   1  12
ATOM      6  C   UNL     1       2.016  -1.993   2.008  0.00  0.00    +0.044 C 
ATOM      7  C   UNL     1       0.978  -1.682   0.961  0.00  0.00    -0.041 A 
ATOM      8  C   UNL     1       1.038  -2.293  -0.275  0.00  0.00    +0.004 A 
ATOM      9  C   UNL     1       0.086  -2.008  -1.238  0.00  0.00    +0.000 A 
ATOM     10  C   UNL     1      -0.931  -1.109  -0.969  0.00  0.00    +0.001 A 
ATOM     11  C   UNL     1      -1.002  -0.491   0.263  0.00  0.00    +0.011 A 
ATOM     12  C   UNL     1      -0.048  -0.779   1.240  0.00  0.00    +0.010 A 
ENDBRANCH   1  12
BRANCH   3  13
ATOM     13  C   UNL     1       0.015  -0.426   6.184  0.00  0.00    +0.359 C 
ATOM     14  O   UNL     1      -0.080   0.307   7.149  0.00  0.00    -0.243 OA
BRANCH  13  15
ATOM     15  O   UNL     1       0.231  -1.745   6.359  0.00  0.00    -0.454 OA
BRANCH  15  16
ATOM     16  C   UNL     1       0.339  -2.212   7.705  0.00  0.00    +0.205 C 
ATOM     17  C   UNL     1      -1.047  -2.608   8.220  0.00  0.00    +0.047 C 
ATOM     18  C   UNL     1      -0.932  -3.109   9.661  0.00  0.00    +0.004 C 
ATOM     19  C   UNL     1      -0.004  -4.325   9.706  0.00  0.00    +0.003 C 
ATOM     20  C   UNL     1       1.381  -3.929   9.192  0.00  0.00    +0.035 C 
ATOM     21  C   UNL     1       1.266  -3.429   7.750  0.00  0.00    +0.158 C 
BRANCH  21  22
ATOM     22  O   UNL     1       0.731  -4.467   6.927  0.00  0.00    -0.376 OA
ATOM     23  C   UNL     1       1.722  -5.317   6.347  0.00  0.00    +0.194 C 
ENDBRANCH  21  22
ENDBRANCH  15  16
ENDBRANCH  13  15
ENDBRANCH   3  13
TORSDOF 5
