REMARK  Name = ZINC64703907
REMARK  12 active torsions:
REMARK  status: ('A' for Active; 'I' for Inactive)
REMARK    1  A    between atoms: C_1  and  C_2
REMARK    2  A    between atoms: C_2  and  C_3
REMARK    3  A    between atoms: C_2  and  C_4
REMARK    4  A    between atoms: C_2  and  N_5
REMARK    5  A    between atoms: N_5  and  C_6
REMARK    6  A    between atoms: C_7  and  C_28
REMARK    7  A    between atoms: N_14  and  C_15
REMARK    8  A    between atoms: N_14  and  C_16
REMARK    9  A    between atoms: C_16  and  C_17
REMARK   10  A    between atoms: N_19  and  C_20
REMARK   11  A    between atoms: C_20  and  C_21
REMARK   12  A    between atoms: C_21  and  C_22
REMARK                            x       y       z     vdW  Elec       q    Type
REMARK                         _______ _______ _______ _____ _____    ______ ____
ROOT
ATOM      1  C   UNL     1       1.986   0.353  -1.605  0.00  0.00    +0.150 A 
ATOM      2  C   UNL     1       2.753   0.164  -2.715  0.00  0.00    +0.114 A 
ATOM      3  N   UNL     1       3.881   0.908  -2.573  0.00  0.00    -0.218 NA
ATOM      4  C   UNL     1       3.828   1.532  -1.435  0.00  0.00    +0.199 A 
ATOM      5  N   UNL     1       2.662   1.235  -0.774  0.00  0.00    -0.190 N 
ATOM      6  N   UNL     1       2.478   1.847   0.462  0.00  0.00    -0.140 NA
ATOM      7  C   UNL     1       3.371   2.661   0.956  0.00  0.00    +0.184 A 
ATOM      8  S   UNL     1       4.631   2.650  -0.309  0.00  0.00    -0.013 S 
ATOM      9  N   UNL     1       3.350   3.350   2.158  0.00  0.00    -0.302 N 
ATOM     10  C   UNL     1       2.208   3.207   3.064  0.00  0.00    +0.132 C 
ENDROOT
BRANCH   2  11
ATOM     11  C   UNL     1       2.417  -0.699  -3.871  0.00  0.00    +0.004 A 
ATOM     12  C   UNL     1       1.716  -1.889  -3.675  0.00  0.00    +0.013 A 
ATOM     13  C   UNL     1       1.405  -2.690  -4.755  0.00  0.00    +0.039 A 
ATOM     14  C   UNL     1       1.789  -2.314  -6.032  0.00  0.00    +0.123 A 
ATOM     15  C   UNL     1       2.486  -1.133  -6.232  0.00  0.00    +0.039 A 
ATOM     16  C   UNL     1       2.796  -0.323  -5.159  0.00  0.00    +0.013 A 
ATOM     17  F   UNL     1       1.482  -3.101  -7.086  0.00  0.00    -0.205 F 
ENDBRANCH   2  11
BRANCH   1  18
ATOM     18  N   UNL     1       0.742  -0.231  -1.351  0.00  0.00    -0.323 N 
ATOM     19  H   UNL     1       0.299  -0.748  -2.042  0.00  0.00    +0.148 HD
BRANCH  18  21
ATOM     20  C   UNL     1      -0.264   1.409   0.160  0.00  0.00    +0.031 C 
ATOM     21  C   UNL     1       0.106  -0.062  -0.042  0.00  0.00    +0.025 C 
ATOM     22  C   UNL     1       1.078  -0.498   1.057  0.00  0.00    +0.031 C 
ATOM     23  C   UNL     1      -1.158  -0.920   0.026  0.00  0.00    +0.031 C 
ENDBRANCH  18  21
ENDBRANCH   1  18
BRANCH   9  24
ATOM     24  C   UNL     1       4.470   4.221   2.522  0.00  0.00    +0.202 C 
BRANCH  24  25
ATOM     25  C   UNL     1       4.211   5.614   2.008  0.00  0.00    +0.230 C 
ATOM     26  O   UNL     1       3.191   5.855   1.398  0.00  0.00    -0.274 OA
ATOM     27  N   UNL     1       5.112   6.592   2.227  0.00  0.00    -0.314 N 
ATOM     28  H   UNL     1       5.928   6.399   2.715  0.00  0.00    +0.149 HD
BRANCH  27  29
ATOM     29  C   UNL     1       4.860   7.946   1.728  0.00  0.00    +0.108 C 
BRANCH  29  30
ATOM     30  C   UNL     1       6.030   8.856   2.108  0.00  0.00    +0.049 C 
BRANCH  30  31
ATOM     31  C   UNL     1       5.770  10.249   1.595  0.00  0.00    -0.072 C 
ATOM     32  C   UNL     1       5.235  11.104   2.405  0.00  0.00    -0.028 C 
ATOM     33  C   UNL     1       4.908  12.522   2.035  0.00  0.00    +0.027 C 
ATOM     34  C   UNL     1       5.662  12.922   0.766  0.00  0.00    +0.004 C 
ATOM     35  C   UNL     1       5.445  11.833  -0.292  0.00  0.00    +0.005 C 
ATOM     36  C   UNL     1       6.154  10.559   0.177  0.00  0.00    +0.030 C 
ENDBRANCH  30  31
ENDBRANCH  29  30
ENDBRANCH  27  29
ENDBRANCH  24  25
ENDBRANCH   9  24
TORSDOF 8
