REMARK  Name = ZINC36122253
REMARK  14 active torsions:
REMARK  status: ('A' for Active; 'I' for Inactive)
REMARK    1  A    between atoms: C_1  and  C_2
REMARK    2  A    between atoms: C_2  and  C_3
REMARK    3  A    between atoms: C_2  and  C_4
REMARK    4  A    between atoms: C_7  and  O_10
REMARK    5  A    between atoms: O_10  and  C_11
REMARK    6  A    between atoms: C_11  and  C_12
REMARK    7  A    between atoms: C_22  and  C_24
REMARK    8  A    between atoms: C_24  and  N_25
REMARK    9  A    between atoms: N_25  and  C_26
REMARK   10  A    between atoms: C_26  and  C_27
REMARK   11  A    between atoms: N_35  and  C_36
REMARK   12  A    between atoms: C_36  and  C_37
REMARK   13  A    between atoms: C_36  and  C_38
REMARK   14  A    between atoms: C_36  and  C_39
REMARK                            x       y       z     vdW  Elec       q    Type
REMARK                         _______ _______ _______ _____ _____    ______ ____
ROOT
ATOM      1  C   UNL     1       4.376  -3.024  -5.804  0.00  0.00    +0.144 C 
ATOM      2  C   UNL     1       3.291  -3.690  -6.649  0.00  0.00    -0.014 A 
ATOM      3  C   UNL     1       2.821  -4.980  -6.409  0.00  0.00    +0.013 A 
ATOM      4  C   UNL     1       1.854  -5.505  -7.196  0.00  0.00    +0.046 A 
ATOM      5  S   UNL     1       1.551  -4.171  -8.345  0.00  0.00    -0.101 S 
ATOM      6  C   UNL     1       2.733  -3.021  -7.694  0.00  0.00    -0.004 A 
ATOM      7  C   UNL     1       3.050  -1.643  -8.176  0.00  0.00    +0.061 C 
ATOM      8  C   UNL     1       3.828  -0.903  -7.077  0.00  0.00    +0.114 C 
ATOM      9  N   UNL     1       4.831  -1.825  -6.520  0.00  0.00    -0.289 N 
ATOM     10  C   UNL     1       6.147  -1.574  -6.664  0.00  0.00    +0.234 C 
ATOM     11  O   UNL     1       6.965  -2.340  -6.202  0.00  0.00    -0.274 OA
ENDROOT
BRANCH   1  12
ATOM     12  C   UNL     1       3.802  -2.628  -4.442  0.00  0.00    +0.256 C 
BRANCH  12  13
ATOM     13  O   UNL     1       2.638  -1.822  -4.632  0.00  0.00    -0.490 OA
BRANCH  13  17
ATOM     14  C   UNL     1       0.707  -0.490  -1.238  0.00  0.00    -0.045 A 
ATOM     15  C   UNL     1       0.221  -0.150  -2.487  0.00  0.00    +0.007 A 
ATOM     16  C   UNL     1       0.865  -0.595  -3.625  0.00  0.00    +0.046 A 
ATOM     17  C   UNL     1       2.002  -1.383  -3.514  0.00  0.00    +0.121 A 
ATOM     18  C   UNL     1       2.489  -1.722  -2.260  0.00  0.00    +0.046 A 
ATOM     19  C   UNL     1       1.843  -1.270  -1.125  0.00  0.00    +0.007 A 
BRANCH  14  21
ATOM     20  C   UNL     1      -0.019   1.526   0.010  0.00  0.00    +0.012 C 
ATOM     21  C   UNL     1       0.002  -0.004   0.002  0.00  0.00    +0.013 C 
ATOM     22  C   UNL     1      -1.433  -0.534   0.013  0.00  0.00    +0.012 C 
ENDBRANCH  14  21
ENDBRANCH  13  17
ENDBRANCH  12  13
ENDBRANCH   1  12
BRANCH  10  23
ATOM     23  C   UNL     1       6.603  -0.340  -7.401  0.00  0.00    +0.205 C 
BRANCH  23  24
ATOM     24  N   UNL     1       8.067  -0.296  -7.420  0.00  0.00    -0.274 N 
ATOM     25  C   UNL     1       8.736   0.324  -6.428  0.00  0.00    +0.303 C 
ATOM     26  O   UNL     1       8.124   0.846  -5.516  0.00  0.00    -0.253 OA
ATOM     27  N   UNL     1      10.083   0.365  -6.447  0.00  0.00    -0.294 N 
ATOM     28  H   UNL     1      10.571  -0.052  -7.174  0.00  0.00    +0.151 HD
BRANCH  27  29
ATOM     29  C   UNL     1      10.810   1.038  -5.368  0.00  0.00    +0.028 C 
ATOM     30  C   UNL     1      10.479   0.368  -4.033  0.00  0.00    +0.031 C 
ATOM     31  C   UNL     1      12.314   0.940  -5.628  0.00  0.00    +0.031 C 
ATOM     32  C   UNL     1      10.396   2.511  -5.316  0.00  0.00    +0.031 C 
ENDBRANCH  27  29
BRANCH  24  33
ATOM     33  C   UNL     1       8.804  -0.925  -8.519  0.00  0.00    +0.141 C 
BRANCH  33  34
ATOM     34  C   UNL     1       9.013   0.093  -9.642  0.00  0.00    +0.136 C 
ATOM     35  C   UNL     1       9.681  -0.593 -10.853  0.00  0.00    +0.035 C 
ATOM     36  C   UNL     1      10.674   0.496 -11.342  0.00  0.00    +0.031 C 
ATOM     37  C   UNL     1      11.082   1.148  -9.996  0.00  0.00    +0.160 C 
ATOM     38  O   UNL     1       9.887   1.136  -9.196  0.00  0.00    -0.375 OA
ENDBRANCH  33  34
ENDBRANCH  24  33
ENDBRANCH  23  24
ENDBRANCH  10  23
TORSDOF 9
