REMARK  Name = ZINC40982460
REMARK  20 active torsions:
REMARK  status: ('A' for Active; 'I' for Inactive)
REMARK    1  A    between atoms: C_1  and  C_2
REMARK    2  A    between atoms: C_2  and  C_3
REMARK    3  A    between atoms: C_3  and  S_4
REMARK    4  A    between atoms: S_4  and  C_5
REMARK    5  A    between atoms: C_10  and  C_22
REMARK    6  A    between atoms: C_12  and  C_16
REMARK    7  A    between atoms: C_13  and  C_15
REMARK    8  A    between atoms: C_16  and  O_18
REMARK    9  A    between atoms: O_18  and  C_19
REMARK   10  A    between atoms: C_19  and  C_20
REMARK   11  A    between atoms: C_19  and  C_21
REMARK   12  A    between atoms: C_25  and  O_30
REMARK   13  A    between atoms: C_26  and  O_28
REMARK   14  A    between atoms: O_28  and  C_29
REMARK   15  A    between atoms: O_30  and  C_31
REMARK   16  A    between atoms: C_31  and  C_32
REMARK   17  A    between atoms: N_34  and  C_35
REMARK   18  A    between atoms: N_34  and  C_37
REMARK   19  A    between atoms: C_35  and  C_36
REMARK   20  A    between atoms: C_37  and  C_38
REMARK                            x       y       z     vdW  Elec       q    Type
REMARK                         _______ _______ _______ _____ _____    ______ ____
ROOT
ATOM      1  C   UNL     1       1.998  -2.757  -2.555  0.00  0.00    +0.210 A 
ATOM      2  N   UNL     1       2.442  -1.865  -3.452  0.00  0.00    -0.187 NA
ATOM      3  C   UNL     1       2.831  -2.489  -4.531  0.00  0.00    +0.219 A 
ATOM      4  N   UNL     1       2.636  -3.817  -4.343  0.00  0.00    -0.220 N 
ATOM      5  N   UNL     1       2.106  -3.966  -3.062  0.00  0.00    -0.141 NA
ATOM      6  C   UNL     1       2.949  -4.830  -5.348  0.00  0.00    +0.179 C 
ATOM      7  C   UNL     1       3.771  -4.210  -6.446  0.00  0.00    +0.082 C 
ATOM      8  C   UNL     1       3.933  -2.884  -6.579  0.00  0.00    +0.020 C 
ATOM      9  N   UNL     1       3.365  -1.986  -5.710  0.00  0.00    -0.287 N 
ATOM     10  C   UNL     1       4.767  -2.363  -7.722  0.00  0.00    +0.061 C 
ATOM     11  H   UNL     1       3.336  -1.038  -5.912  0.00  0.00    +0.155 HD
ENDROOT
BRANCH   6  12
ATOM     12  C   UNL     1       1.670  -5.377  -5.926  0.00  0.00    -0.015 A 
ATOM     13  C   UNL     1       0.788  -4.532  -6.574  0.00  0.00    +0.010 A 
ATOM     14  C   UNL     1      -0.387  -5.029  -7.106  0.00  0.00    +0.050 A 
ATOM     15  C   UNL     1      -0.683  -6.378  -6.991  0.00  0.00    +0.163 A 
ATOM     16  C   UNL     1       0.204  -7.229  -6.339  0.00  0.00    +0.162 A 
ATOM     17  C   UNL     1       1.382  -6.725  -5.812  0.00  0.00    +0.055 A 
BRANCH  16  18
ATOM     18  O   UNL     1      -0.083  -8.553  -6.224  0.00  0.00    -0.491 OA
ATOM     19  C   UNL     1       0.874  -9.367  -5.542  0.00  0.00    +0.277 C 
ENDBRANCH  16  18
BRANCH  15  20
ATOM     20  O   UNL     1      -1.839  -6.868  -7.513  0.00  0.00    -0.479 OA
BRANCH  20  21
ATOM     21  C   UNL     1      -2.702  -5.936  -8.168  0.00  0.00    +0.324 C 
BRANCH  21  22
ATOM     22  C   UNL     1      -3.923  -6.656  -8.679  0.00  0.00    +0.253 C 
ATOM     23  O   UNL     1      -4.043  -7.849  -8.501  0.00  0.00    -0.272 OA
ATOM     24  N   UNL     1      -4.883  -5.973  -9.335  0.00  0.00    -0.299 N 
BRANCH  24  25
ATOM     25  C   UNL     1      -4.738  -4.531  -9.551  0.00  0.00    +0.104 C 
ATOM     26  C   UNL     1      -4.014  -4.284 -10.876  0.00  0.00    +0.024 C 
ENDBRANCH  24  25
BRANCH  24  27
ATOM     27  C   UNL     1      -6.070  -6.673  -9.832  0.00  0.00    +0.104 C 
ATOM     28  C   UNL     1      -7.157  -6.662  -8.755  0.00  0.00    +0.024 C 
ENDBRANCH  24  27
ENDBRANCH  21  22
ENDBRANCH  20  21
ENDBRANCH  15  20
ENDBRANCH   6  12
BRANCH   7  29
ATOM     29  C   UNL     1       4.402  -5.062  -7.378  0.00  0.00    +0.339 C 
ATOM     30  O   UNL     1       5.388  -5.697  -7.053  0.00  0.00    -0.245 OA
BRANCH  29  31
ATOM     31  O   UNL     1       3.912  -5.173  -8.631  0.00  0.00    -0.459 OA
BRANCH  31  32
ATOM     32  C   UNL     1       4.600  -6.053  -9.522  0.00  0.00    +0.171 C 
ATOM     33  C   UNL     1       4.002  -7.458  -9.413  0.00  0.00    +0.052 C 
ATOM     34  C   UNL     1       4.451  -5.545 -10.957  0.00  0.00    +0.052 C 
ENDBRANCH  31  32
ENDBRANCH  29  31
ENDBRANCH   7  29
BRANCH   1  35
ATOM     35  S   UNL     1       1.376  -2.372  -0.952  0.00  0.00    -0.084 S 
BRANCH  35  36
ATOM     36  C   UNL     1       1.486  -0.564  -0.861  0.00  0.00    +0.077 C 
BRANCH  36  38
ATOM     37  C   UNL     1       1.063   1.436   0.576  0.00  0.00    +0.004 C 
ATOM     38  C   UNL     1       0.970  -0.089   0.499  0.00  0.00    +0.008 C 
ENDBRANCH  36  38
ENDBRANCH  35  36
ENDBRANCH   1  35
TORSDOF 13
