REMARK  Name = ZINC49117034
REMARK  8 active torsions:
REMARK  status: ('A' for Active; 'I' for Inactive)
REMARK    1  A    between atoms: C_1  and  C_2
REMARK    2  A    between atoms: C_2  and  C_3
REMARK    3  A    between atoms: C_6  and  N_9
REMARK    4  A    between atoms: C_10  and  C_12
REMARK    5  A    between atoms: C_12  and  N_13
REMARK    6  A    between atoms: C_14  and  C_20
REMARK    7  A    between atoms: C_15  and  N_19
REMARK    8  A    between atoms: C_16  and  C_18
REMARK                            x       y       z     vdW  Elec       q    Type
REMARK                         _______ _______ _______ _____ _____    ______ ____
ROOT
ATOM      1  N   UNL     1       3.477  -2.688   1.263  0.00  0.00    -0.311 N 
ATOM      2  C   UNL     1       3.975  -3.941   1.289  0.00  0.00    +0.235 C 
ATOM      3  O   UNL     1       3.915  -4.596   2.308  0.00  0.00    -0.274 OA
ATOM      4  H   UNL     1       3.526  -2.164   0.448  0.00  0.00    +0.149 HD
ENDROOT
BRANCH   1   8
ATOM      5  C   UNL     1       0.742  -0.511   1.242  0.00  0.00    -0.011 C 
ATOM      6  C   UNL     1       2.210  -0.086   1.169  0.00  0.00    +0.005 C 
ATOM      7  C   UNL     1       2.950  -0.593   2.408  0.00  0.00    +0.022 C 
ATOM      8  C   UNL     1       2.863  -2.119   2.465  0.00  0.00    +0.073 C 
ATOM      9  C   UNL     1       1.395  -2.544   2.538  0.00  0.00    +0.022 C 
ATOM     10  C   UNL     1       0.655  -2.037   1.299  0.00  0.00    +0.005 C 
BRANCH   5  12
ATOM     11  C   UNL     1      -0.019   1.526   0.010  0.00  0.00    +0.004 C 
ATOM     12  C   UNL     1       0.002  -0.004   0.002  0.00  0.00    -0.000 C 
ENDBRANCH   5  12
ENDBRANCH   1   8
BRANCH   2  13
ATOM     13  C   UNL     1       4.607  -4.526   0.052  0.00  0.00    +0.239 C 
BRANCH  13  14
ATOM     14  N   UNL     1       5.067  -5.888   0.337  0.00  0.00    -0.258 N 
ATOM     15  C   UNL     1       6.293  -6.236   0.810  0.00  0.00    +0.058 A 
ATOM     16  C   UNL     1       6.315  -7.587   0.935  0.00  0.00    +0.068 A 
ATOM     17  C   UNL     1       5.066  -8.077   0.527  0.00  0.00    +0.081 A 
ATOM     18  N   UNL     1       4.319  -7.061   0.176  0.00  0.00    -0.174 NA
ATOM     19  C   UNL     1       4.652  -9.526   0.504  0.00  0.00    +0.069 C 
ATOM     20  C   UNL     1       7.423  -5.293   1.134  0.00  0.00    +0.067 C 
BRANCH  16  21
ATOM     21  N   UNL     1       7.399  -8.360   1.393  0.00  0.00    -0.355 N 
ATOM     22  H   UNL     1       8.227  -7.927   1.654  0.00  0.00    +0.142 HD
ATOM     23  H   UNL     1       7.318  -9.325   1.448  0.00  0.00    +0.142 HD
ENDBRANCH  16  21
ENDBRANCH  13  14
ENDBRANCH   2  13
TORSDOF 5
