REMARK  Name = ZINC41793706
REMARK  5 active torsions:
REMARK  status: ('A' for Active; 'I' for Inactive)
REMARK    1  A    between atoms: C_1  and  N_2
REMARK    2  A    between atoms: C_3  and  C_5
REMARK    3  A    between atoms: C_5  and  N_6
REMARK    4  A    between atoms: N_6  and  C_7
REMARK    5  A    between atoms: C_7  and  C_18
REMARK                            x       y       z     vdW  Elec       q    Type
REMARK                         _______ _______ _______ _____ _____    ______ ____
ROOT
ATOM      1  C   UNL     1       1.252  -4.134   2.240  0.00  0.00    +0.062 C 
ATOM      2  C   UNL     1       1.941  -4.610   3.518  0.00  0.00    +0.003 C 
ATOM      3  C   UNL     1       1.808  -3.511   4.574  0.00  0.00    -0.000 C 
ATOM      4  C   UNL     1       0.333  -3.253   4.865  0.00  0.00    +0.005 C 
ATOM      5  C   UNL     1      -0.410  -4.585   4.715  0.00  0.00    +0.035 C 
ATOM      6  C   UNL     1      -0.962  -4.743   3.324  0.00  0.00    -0.045 A 
ATOM      7  C   UNL     1      -0.194  -4.563   2.197  0.00  0.00    -0.044 A 
ATOM      8  C   UNL     1      -0.756  -4.773   0.943  0.00  0.00    +0.003 A 
ATOM      9  C   UNL     1      -2.082  -5.134   0.820  0.00  0.00    +0.000 A 
ATOM     10  C   UNL     1      -2.861  -5.286   1.951  0.00  0.00    +0.000 A 
ATOM     11  C   UNL     1      -2.301  -5.092   3.197  0.00  0.00    +0.004 A 
ENDROOT
BRANCH   1  12
ATOM     12  N   UNL     1       1.320  -2.668   2.176  0.00  0.00    +0.398 N 
ATOM     13  H   UNL     1       2.284  -2.379   2.105  0.00  0.00    -0.083 HD
ATOM     14  H   UNL     1       0.912  -2.276   3.011  0.00  0.00    -0.083 HD
BRANCH  12  15
ATOM     15  C   UNL     1       0.579  -2.195   0.999  0.00  0.00    +0.017 C 
BRANCH  15  18
ATOM     16  C   UNL     1      -0.092   1.437  -0.008  0.00  0.00    +0.128 C 
ATOM     17  N   UNL     1      -0.071  -0.028  -0.001  0.00  0.00    -0.320 N 
ATOM     18  C   UNL     1       0.557  -0.688   0.992  0.00  0.00    +0.196 C 
ATOM     19  O   UNL     1       1.105  -0.070   1.880  0.00  0.00    -0.278 OA
ATOM     20  H   UNL     1      -0.509  -0.523  -0.711  0.00  0.00    +0.148 HD
ENDBRANCH  15  18
ENDBRANCH  12  15
ENDBRANCH   1  12
BRANCH   1  21
ATOM     21  C   UNL     1       1.972  -4.713   1.050  0.00  0.00    +0.350 C 
ATOM     22  O   UNL     1       2.579  -3.979   0.288  0.00  0.00    -0.248 OA
ATOM     23  O   UNL     1       1.949  -5.915   0.848  0.00  0.00    -0.248 OA
ENDBRANCH   1  21
TORSDOF 4
