REMARK  Name = ZINC29828778
REMARK  7 active torsions:
REMARK  status: ('A' for Active; 'I' for Inactive)
REMARK    1  A    between atoms: C_1  and  C_2
REMARK    2  A    between atoms: C_7  and  C_10
REMARK    3  A    between atoms: C_10  and  S_11
REMARK    4  A    between atoms: S_11  and  C_12
REMARK    5  A    between atoms: C_15  and  C_23
REMARK    6  A    between atoms: N_16  and  C_17
REMARK    7  A    between atoms: C_17  and  C_18
REMARK                            x       y       z     vdW  Elec       q    Type
REMARK                         _______ _______ _______ _____ _____    ______ ____
ROOT
ATOM      1  C   UNL     1       2.102   2.400  -1.053  0.00  0.00    +0.193 A 
ATOM      2  N   UNL     1       3.243   2.857  -0.586  0.00  0.00    -0.122 NA
ATOM      3  N   UNL     1       3.272   2.744   0.694  0.00  0.00    -0.128 NA
ATOM      4  C   UNL     1       2.151   2.214   1.123  0.00  0.00    +0.165 A 
ATOM      5  N   UNL     1       1.369   1.972   0.016  0.00  0.00    -0.295 N 
ENDROOT
BRANCH   4   6
ATOM      6  C   UNL     1       1.795   1.929   2.529  0.00  0.00    +0.019 A 
ATOM      7  C   UNL     1       0.746   1.057   2.823  0.00  0.00    +0.013 A 
ATOM      8  C   UNL     1       0.422   0.790   4.137  0.00  0.00    +0.021 A 
ATOM      9  C   UNL     1       1.129   1.394   5.163  0.00  0.00    +0.041 A 
ATOM     10  C   UNL     1       2.168   2.263   4.878  0.00  0.00    +0.021 A 
ATOM     11  C   UNL     1       2.505   2.534   3.568  0.00  0.00    +0.013 A 
ATOM     12 CL   UNL     1       0.712   1.059   6.815  0.00  0.00    -0.084 Cl
ENDBRANCH   4   6
BRANCH   1  13
ATOM     13  S   UNL     1       1.611   2.350  -2.745  0.00  0.00    -0.080 S 
BRANCH  13  14
ATOM     14  C   UNL     1       3.078   3.072  -3.520  0.00  0.00    +0.133 C 
BRANCH  14  21
ATOM     15  C   UNL     1       0.918   6.263  -9.806  0.00  0.00    +0.109 C 
ATOM     16  C   UNL     1       1.514   5.151  -8.982  0.00  0.00    +0.216 C 
ATOM     17  O   UNL     1       1.908   4.139  -9.524  0.00  0.00    -0.276 OA
ATOM     18  N   UNL     1       1.610   5.279  -7.644  0.00  0.00    -0.265 N 
ATOM     19  C   UNL     1       2.159   4.253  -6.885  0.00  0.00    +0.165 A 
ATOM     20  N   UNL     1       2.337   4.191  -5.580  0.00  0.00    -0.229 NA
ATOM     21  C   UNL     1       2.880   3.132  -5.013  0.00  0.00    +0.061 A 
ATOM     22  C   UNL     1       3.260   2.100  -5.805  0.00  0.00    +0.072 A 
ATOM     23  S   UNL     1       2.789   2.723  -7.412  0.00  0.00    -0.060 S 
ATOM     24  H   UNL     1       1.253   6.196  -7.153  0.00  0.00    +0.157 HD
ENDBRANCH  14  21
ENDBRANCH  13  14
ENDBRANCH   1  13
BRANCH   5  25
ATOM     25  C   UNL     1       0.028   1.384  -0.008  0.00  0.00    +0.200 C 
BRANCH  25  26
ATOM     26  C   UNL     1       0.130  -0.088  -0.312  0.00  0.00    +0.125 A 
ATOM     27  C   UNL     1       0.376  -1.061   0.584  0.00  0.00    +0.046 A 
ATOM     28  C   UNL     1       0.383  -2.282  -0.129  0.00  0.00    +0.041 A 
ATOM     29  C   UNL     1       0.150  -1.982  -1.419  0.00  0.00    +0.195 A 
ATOM     30  O   UNL     1      -0.003  -0.651  -1.524  0.00  0.00    -0.466 OA
ENDBRANCH  25  26
ENDBRANCH   5  25
TORSDOF 6
