REMARK  Name = ZINC45669472
REMARK  7 active torsions:
REMARK  status: ('A' for Active; 'I' for Inactive)
REMARK    1  A    between atoms: C_1  and  C_2
REMARK    2  A    between atoms: C_6  and  N_9
REMARK    3  A    between atoms: C_7  and  C_8
REMARK    4  A    between atoms: C_10  and  C_12
REMARK    5  A    between atoms: C_12  and  S_13
REMARK    6  A    between atoms: S_13  and  C_14
REMARK    7  A    between atoms: C_22  and  C_24
REMARK                            x       y       z     vdW  Elec       q    Type
REMARK                         _______ _______ _______ _____ _____    ______ ____
ROOT
ATOM      1  C   UNL     1      -0.334  -7.412   4.943  0.00  0.00    +0.109 A 
ATOM      2  C   UNL     1      -0.424  -8.863   5.104  0.00  0.00    +0.032 A 
ATOM      3  C   UNL     1      -0.429  -9.734   4.012  0.00  0.00    +0.012 A 
ATOM      4  C   UNL     1      -0.515 -11.080   4.227  0.00  0.00    +0.001 A 
ATOM      5  C   UNL     1      -0.597 -11.593   5.518  0.00  0.00    +0.002 A 
ATOM      6  C   UNL     1      -0.595 -10.769   6.604  0.00  0.00    +0.028 A 
ATOM      7  C   UNL     1      -0.508  -9.382   6.420  0.00  0.00    +0.076 A 
ATOM      8  N   UNL     1      -0.500  -8.526   7.450  0.00  0.00    -0.225 NA
ATOM      9  C   UNL     1      -0.416  -7.223   7.251  0.00  0.00    +0.197 A 
ATOM     10  N   UNL     1      -0.330  -6.669   6.041  0.00  0.00    -0.218 NA
ENDROOT
BRANCH   9  11
ATOM     11  C   UNL     1      -0.413  -6.334   8.428  0.00  0.00    +0.172 A 
ATOM     12  C   UNL     1      -0.339  -4.975   8.404  0.00  0.00    +0.053 A 
ATOM     13  C   UNL     1      -0.366  -4.543   9.743  0.00  0.00    +0.042 A 
ATOM     14  C   UNL     1      -0.455  -5.647  10.513  0.00  0.00    +0.196 A 
ATOM     15  O   UNL     1      -0.488  -6.726   9.716  0.00  0.00    -0.460 OA
ENDBRANCH   9  11
BRANCH   1  16
ATOM     16  S   UNL     1      -0.226  -6.677   3.345  0.00  0.00    -0.096 S 
BRANCH  16  17
ATOM     17  C   UNL     1      -0.129  -4.898   3.686  0.00  0.00    +0.171 C 
BRANCH  17  19
ATOM     18  N   UNL     1       0.052  -2.797   2.393  0.00  0.00    -0.285 N 
ATOM     19  C   UNL     1      -0.031  -4.143   2.385  0.00  0.00    +0.227 C 
ATOM     20  O   UNL     1      -0.028  -4.745   1.333  0.00  0.00    -0.275 OA
ATOM     21  H   UNL     1       0.130  -2.321   3.234  0.00  0.00    +0.155 HD
BRANCH  18  27
ATOM     22  C   UNL     1       1.206   1.236  -0.172  0.00  0.00    +0.044 C 
ATOM     23  C   UNL     1       0.577  -0.131  -0.084  0.00  0.00    -0.046 A 
ATOM     24  C   UNL     1      -0.027  -0.686  -1.198  0.00  0.00    +0.004 A 
ATOM     25  C   UNL     1      -0.605  -1.940  -1.122  0.00  0.00    +0.002 A 
ATOM     26  C   UNL     1      -0.580  -2.642   0.067  0.00  0.00    +0.023 A 
ATOM     27  C   UNL     1       0.026  -2.088   1.187  0.00  0.00    +0.037 A 
ATOM     28  C   UNL     1       0.610  -0.831   1.106  0.00  0.00    -0.026 A 
ATOM     29  C   UNL     1       1.274  -0.228   2.317  0.00  0.00    +0.046 C 
ENDBRANCH  18  27
ENDBRANCH  17  19
ENDBRANCH  16  17
ENDBRANCH   1  16
TORSDOF 5
