REMARK  Name = ZINC39380866
REMARK  10 active torsions:
REMARK  status: ('A' for Active; 'I' for Inactive)
REMARK    1  A    between atoms: C_1  and  C_2
REMARK    2  A    between atoms: C_7  and  C_8
REMARK    3  A    between atoms: N_12  and  C_14
REMARK    4  A    between atoms: C_14  and  C_15
REMARK    5  A    between atoms: C_15  and  N_16
REMARK    6  A    between atoms: C_17  and  C_19
REMARK    7  A    between atoms: C_19  and  C_20
REMARK    8  A    between atoms: C_20  and  C_21
REMARK    9  A    between atoms: C_21  and  C_27
REMARK   10  A    between atoms: C_27  and  C_28
REMARK                            x       y       z     vdW  Elec       q    Type
REMARK                         _______ _______ _______ _____ _____    ______ ____
ROOT
ATOM      1  N   UNL     1       2.034   2.332   7.439  0.00  0.00    -0.317 N 
ATOM      2  C   UNL     1       1.827   2.133   8.755  0.00  0.00    +0.213 C 
ATOM      3  O   UNL     1       0.916   1.423   9.125  0.00  0.00    -0.276 OA
ATOM      4  H   UNL     1       2.763   2.900   7.143  0.00  0.00    +0.149 HD
ENDROOT
BRANCH   1   5
ATOM      5  C   UNL     1       1.160   1.691   6.454  0.00  0.00    +0.085 C 
BRANCH   5   6
ATOM      6  C   UNL     1       1.609   2.079   5.043  0.00  0.00    -0.060 C 
BRANCH   6  10
ATOM      7  C   UNL     1       0.123   2.432   1.925  0.00  0.00    +0.001 C 
ATOM      8  C   UNL     1      -1.158   2.041   2.708  0.00  0.00    -0.012 C 
ATOM      9  C   UNL     1      -0.633   1.995   4.164  0.00  0.00    -0.078 C 
ATOM     10  N   UNL     1       0.732   1.436   4.056  0.00  0.00    +0.381 N 
ATOM     11  C   UNL     1       1.243   1.701   2.695  0.00  0.00    -0.071 C 
ATOM     12  H   UNL     1       0.706   0.441   4.223  0.00  0.00    -0.082 HD
BRANCH   7  19
ATOM     13  C   UNL     1       0.412   4.297  -0.262  0.00  0.00    +0.044 C 
ATOM     14  C   UNL     1       0.186   2.834  -0.545  0.00  0.00    -0.047 A 
ATOM     15  C   UNL     1       0.123   2.384  -1.850  0.00  0.00    +0.003 A 
ATOM     16  C   UNL     1      -0.084   1.042  -2.109  0.00  0.00    +0.000 A 
ATOM     17  C   UNL     1      -0.228   0.150  -1.062  0.00  0.00    +0.000 A 
ATOM     18  C   UNL     1      -0.164   0.600   0.243  0.00  0.00    +0.004 A 
ATOM     19  C   UNL     1       0.048   1.942   0.502  0.00  0.00    -0.043 A 
ENDBRANCH   7  19
ENDBRANCH   6  10
ENDBRANCH   5   6
ENDBRANCH   1   5
BRANCH   2  20
ATOM     20  C   UNL     1       2.727   2.792   9.768  0.00  0.00    +0.098 C 
BRANCH  20  21
ATOM     21  C   UNL     1       2.277   2.405  11.178  0.00  0.00    +0.035 C 
BRANCH  21  22
ATOM     22  C   UNL     1       3.138   3.140  12.208  0.00  0.00    +0.040 C 
ATOM     23  C   UNL     1       2.567   2.931  13.628  0.00  0.00    +0.035 C 
ATOM     24  C   UNL     1       1.662   4.175  13.790  0.00  0.00    +0.098 C 
ATOM     25  C   UNL     1       2.259   5.194  12.844  0.00  0.00    +0.214 C 
ATOM     26  O   UNL     1       2.027   6.384  12.868  0.00  0.00    -0.276 OA
ATOM     27  N   UNL     1       3.085   4.588  11.973  0.00  0.00    -0.309 N 
ATOM     28  H   UNL     1       3.582   5.048  11.279  0.00  0.00    +0.149 HD
BRANCH  22  29
ATOM     29  C   UNL     1       4.584   2.645  12.139  0.00  0.00    +0.068 C 
BRANCH  29  30
ATOM     30  C   UNL     1       5.436   3.448  13.088  0.00  0.00    -0.008 A 
ATOM     31  C   UNL     1       5.806   3.155  14.359  0.00  0.00    +0.011 A 
ATOM     32  C   UNL     1       6.601   4.051  15.048  0.00  0.00    +0.008 A 
ATOM     33  C   UNL     1       6.988   5.195  14.433  0.00  0.00    +0.045 A 
ATOM     34  S   UNL     1       6.226   5.027  12.827  0.00  0.00    -0.102 S 
ENDBRANCH  29  30
ENDBRANCH  22  29
ENDBRANCH  21  22
ENDBRANCH  20  21
ENDBRANCH   2  20
TORSDOF 9
