REMARK  Name = ZINC20996745
REMARK  10 active torsions:
REMARK  status: ('A' for Active; 'I' for Inactive)
REMARK    1  A    between atoms: C_1  and  C_2
REMARK    2  A    between atoms: C_2  and  C_3
REMARK    3  A    between atoms: C_2  and  N_4
REMARK    4  A    between atoms: C_6  and  N_25
REMARK    5  A    between atoms: C_9  and  C_11
REMARK    6  A    between atoms: N_13  and  C_14
REMARK    7  A    between atoms: C_14  and  C_15
REMARK    8  A    between atoms: C_15  and  C_16
REMARK    9  A    between atoms: N_25  and  C_26
REMARK   10  A    between atoms: C_26  and  C_27
REMARK                            x       y       z     vdW  Elec       q    Type
REMARK                         _______ _______ _______ _____ _____    ______ ____
ROOT
ATOM      1  N   UNL     1      -6.339  -1.777   4.052  0.00  0.00    -0.291 NA
ATOM      2  C   UNL     1      -7.671  -1.141   4.126  0.00  0.00    +0.070 C 
ATOM      3  C   UNL     1      -8.242  -1.249   2.690  0.00  0.00    -0.055 C 
ATOM      4  C   UNL     1      -6.969  -1.027   1.826  0.00  0.00    +0.014 C 
ATOM      5  C   UNL     1      -5.864  -1.713   2.657  0.00  0.00    +0.142 C 
ENDROOT
BRANCH   5   6
ATOM      6  C   UNL     1      -4.593  -0.907   2.585  0.00  0.00    +0.230 C 
ATOM      7  O   UNL     1      -4.597   0.262   2.904  0.00  0.00    -0.274 OA
ATOM      8  N   UNL     1      -3.451  -1.487   2.165  0.00  0.00    -0.314 N 
ATOM      9  H   UNL     1      -3.447  -2.548   1.875  0.00  0.00    +0.149 HD
BRANCH   8  10
ATOM     10  C   UNL     1      -2.215  -0.704   2.094  0.00  0.00    +0.109 C 
BRANCH  10  11
ATOM     11  C   UNL     1      -1.076  -1.593   1.591  0.00  0.00    +0.054 C 
BRANCH  11  12
ATOM     12  C   UNL     1       0.196  -0.787   1.518  0.00  0.00    -0.042 A 
ATOM     13  C   UNL     1       1.037  -0.726   2.614  0.00  0.00    +0.007 A 
ATOM     14  C   UNL     1       2.207   0.007   2.550  0.00  0.00    +0.050 A 
ATOM     15  C   UNL     1       2.537   0.687   1.389  0.00  0.00    +0.166 A 
ATOM     16  C   UNL     1       1.687   0.629   0.287  0.00  0.00    +0.166 A 
ATOM     17  C   UNL     1       0.515  -0.107   0.359  0.00  0.00    +0.053 A 
ATOM     18  O   UNL     1       2.229   1.373  -0.721  0.00  0.00    -0.453 OA
ATOM     19  C   UNL     1       3.613   1.551  -0.366  0.00  0.00    +0.466 C 
ATOM     20  O   UNL     1       3.612   1.466   1.071  0.00  0.00    -0.453 OA
ENDBRANCH  11  12
ENDBRANCH  10  11
ENDBRANCH   8  10
ENDBRANCH   5   6
BRANCH   1  22
ATOM     21  C   UNL     1      -6.041  -0.941   6.334  0.00  0.00    +0.024 C 
ATOM     22  C   UNL     1      -5.390  -1.121   4.961  0.00  0.00    +0.051 C 
ATOM     23  C   UNL     1      -4.136  -1.985   5.101  0.00  0.00    +0.024 C 
ENDBRANCH   1  22
BRANCH   3  24
ATOM     24  N   UNL     1      -9.239  -0.200   2.439  0.00  0.00    +0.384 N 
ATOM     25  H   UNL     1      -8.958   0.711   2.987  0.00  0.00    -0.085 HD
ATOM     26  H   UNL     1      -9.278   0.018   1.362  0.00  0.00    -0.085 HD
BRANCH  24  27
ATOM     27  C   UNL     1     -10.573  -0.625   2.883  0.00  0.00    -0.046 C 
BRANCH  27  28
ATOM     28  C   UNL     1     -11.567   0.475   2.611  0.00  0.00    -0.057 A 
ATOM     29  C   UNL     1     -11.964   1.303   3.615  0.00  0.00    +0.002 A 
ATOM     30  C   UNL     1     -12.877   2.329   3.381  0.00  0.00    +0.001 A 
ATOM     31  C   UNL     1     -13.407   2.526   2.142  0.00  0.00    +0.008 A 
ATOM     32  C   UNL     1     -13.025   1.688   1.081  0.00  0.00    -0.018 A 
ATOM     33  C   UNL     1     -12.092   0.648   1.319  0.00  0.00    -0.017 A 
ATOM     34  C   UNL     1     -11.711  -0.191   0.258  0.00  0.00    +0.009 A 
ATOM     35  C   UNL     1     -12.241   0.005  -0.980  0.00  0.00    +0.001 A 
ATOM     36  C   UNL     1     -13.159   1.028  -1.214  0.00  0.00    +0.001 A 
ATOM     37  C   UNL     1     -13.552   1.859  -0.210  0.00  0.00    +0.008 A 
ENDBRANCH  27  28
ENDBRANCH  24  27
ENDBRANCH   3  24
TORSDOF 8
