REMARK  Name = ZINC10851356
REMARK  13 active torsions:
REMARK  status: ('A' for Active; 'I' for Inactive)
REMARK    1  A    between atoms: C_1  and  C_2
REMARK    2  A    between atoms: C_2  and  N_3
REMARK    3  A    between atoms: C_5  and  C_33
REMARK    4  A    between atoms: N_8  and  C_11
REMARK    5  A    between atoms: C_11  and  C_12
REMARK    6  A    between atoms: N_14  and  C_15
REMARK    7  A    between atoms: C_16  and  C_28
REMARK    8  A    between atoms: C_17  and  C_21
REMARK    9  A    between atoms: C_18  and  C_20
REMARK   10  A    between atoms: C_24  and  C_27
REMARK   11  A    between atoms: C_28  and  O_30
REMARK   12  A    between atoms: O_30  and  C_31
REMARK   13  A    between atoms: C_31  and  C_32
REMARK                            x       y       z     vdW  Elec       q    Type
REMARK                         _______ _______ _______ _____ _____    ______ ____
ROOT
ATOM      1  C   UNL     1       4.283   5.607  -2.982  0.00  0.00    +0.087 A 
ATOM      2  C   UNL     1       5.379   6.329  -3.435  0.00  0.00    +0.095 A 
ATOM      3  C   UNL     1       5.538   6.440  -4.873  0.00  0.00    +0.008 A 
ATOM      4  C   UNL     1       4.593   5.837  -5.639  0.00  0.00    -0.003 A 
ATOM      5  S   UNL     1       3.494   5.112  -4.441  0.00  0.00    -0.077 S 
ATOM      6  C   UNL     1       4.499   5.792  -7.143  0.00  0.00    +0.052 C 
ENDROOT
BRANCH   3   7
ATOM      7  C   UNL     1       6.671   7.181  -5.475  0.00  0.00    -0.016 A 
ATOM      8  C   UNL     1       7.977   6.726  -5.299  0.00  0.00    +0.009 A 
ATOM      9  C   UNL     1       9.028   7.417  -5.866  0.00  0.00    +0.004 A 
ATOM     10  C   UNL     1       8.789   8.565  -6.600  0.00  0.00    -0.050 A 
ATOM     11  C   UNL     1       7.496   9.025  -6.774  0.00  0.00    +0.004 A 
ATOM     12  C   UNL     1       6.436   8.339  -6.216  0.00  0.00    +0.009 A 
ATOM     13  C   UNL     1       9.942   9.319  -7.212  0.00  0.00    +0.044 C 
ENDBRANCH   3   7
BRANCH   1  16
ATOM     14  C   UNL     1       2.798   4.627  -1.421  0.00  0.00    +0.238 C 
ATOM     15  O   UNL     1       2.128   4.203  -2.338  0.00  0.00    -0.273 OA
ATOM     16  N   UNL     1       3.907   5.349  -1.673  0.00  0.00    -0.278 N 
ATOM     17  H   UNL     1       4.443   5.688  -0.939  0.00  0.00    +0.155 HD
BRANCH  14  18
ATOM     18  C   UNL     1       2.389   4.346   0.003  0.00  0.00    +0.226 C 
BRANCH  18  24
ATOM     19  N   UNL     1      -1.190   3.482   0.032  0.00  0.00    -0.299 N 
ATOM     20  C   UNL     1      -1.211   2.122   0.019  0.00  0.00    +0.114 A 
ATOM     21  C   UNL     1      -0.017   1.428   0.010  0.00  0.00    +0.132 A 
ATOM     22  C   UNL     1       1.234   2.202   0.002  0.00  0.00    +0.274 A 
ATOM     23  O   UNL     1       2.313   1.639  -0.011  0.00  0.00    -0.266 OA
ATOM     24  N   UNL     1       1.160   3.549   0.010  0.00  0.00    -0.251 N 
ATOM     25  C   UNL     1      -0.035   4.165   0.024  0.00  0.00    +0.332 A 
ATOM     26  O   UNL     1      -0.070   5.380   0.030  0.00  0.00    -0.246 OA
BRANCH  19  28
ATOM     27  C   UNL     1      -2.912   4.479  -1.390  0.00  0.00    +0.027 C 
ATOM     28  C   UNL     1      -2.457   4.217   0.047  0.00  0.00    +0.123 C 
ENDBRANCH  19  28
BRANCH  21  29
ATOM     29  C   UNL     1       0.002  -0.004   0.002  0.00  0.00    +0.106 C 
ATOM     30  N   UNL     1       0.018  -1.140  -0.004  0.00  0.00    -0.191 NA
ENDBRANCH  21  29
ENDBRANCH  18  24
ENDBRANCH  14  18
ENDBRANCH   1  16
BRANCH   2  31
ATOM     31  C   UNL     1       6.330   6.944  -2.509  0.00  0.00    +0.342 C 
ATOM     32  O   UNL     1       7.303   6.318  -2.131  0.00  0.00    -0.245 OA
BRANCH  31  33
ATOM     33  O   UNL     1       6.128   8.204  -2.072  0.00  0.00    -0.461 OA
BRANCH  33  34
ATOM     34  C   UNL     1       7.111   8.750  -1.155  0.00  0.00    +0.229 C 
ATOM     35  C   UNL     1       6.716  10.178  -0.773  0.00  0.00    +0.048 C 
ENDBRANCH  33  34
ENDBRANCH  31  33
ENDBRANCH   2  31
TORSDOF 9
