REMARK  Name = ZINC49523357
REMARK  9 active torsions:
REMARK  status: ('A' for Active; 'I' for Inactive)
REMARK    1  A    between atoms: C_1  and  C_2
REMARK    2  A    between atoms: C_2  and  C_3
REMARK    3  A    between atoms: C_2  and  C_4
REMARK    4  A    between atoms: C_13  and  N_16
REMARK    5  A    between atoms: C_17  and  C_19
REMARK    6  A    between atoms: N_21  and  C_22
REMARK    7  A    between atoms: C_22  and  C_23
REMARK    8  A    between atoms: C_29  and  C_31
REMARK    9  A    between atoms: C_31  and  C_32
REMARK                            x       y       z     vdW  Elec       q    Type
REMARK                         _______ _______ _______ _____ _____    ______ ____
ROOT
ATOM      1  N   UNL     1       4.028  -2.857   3.758  0.00  0.00    -0.278 N 
ATOM      2  C   UNL     1       4.916  -3.216   4.706  0.00  0.00    +0.303 C 
ATOM      3  O   UNL     1       4.768  -2.838   5.850  0.00  0.00    -0.265 OA
ATOM      4  H   UNL     1       4.109  -3.212   2.859  0.00  0.00    +0.155 HD
ENDROOT
BRANCH   1  14
ATOM      5  C   UNL     1      -0.619  -2.131   2.011  0.00  0.00    +0.222 C 
ATOM      6  O   UNL     1       0.340  -2.754   1.606  0.00  0.00    -0.275 OA
ATOM      7  N   UNL     1      -0.502  -1.350   3.104  0.00  0.00    -0.271 N 
ATOM      8  C   UNL     1      -1.667  -0.632   3.637  0.00  0.00    +0.114 C 
ATOM      9  C   UNL     1      -1.226   0.801   3.964  0.00  0.00    +0.024 C 
ATOM     10  C   UNL     1      -0.164   0.752   5.062  0.00  0.00    +0.038 C 
ATOM     11  C   UNL     1       0.933  -0.211   4.692  0.00  0.00    -0.026 A 
ATOM     12  C   UNL     1       0.733  -1.214   3.753  0.00  0.00    +0.041 A 
ATOM     13  C   UNL     1       1.761  -2.093   3.440  0.00  0.00    +0.047 A 
ATOM     14  C   UNL     1       2.992  -1.973   4.070  0.00  0.00    +0.036 A 
ATOM     15  C   UNL     1       3.190  -0.971   5.012  0.00  0.00    +0.024 A 
ATOM     16  C   UNL     1       2.166  -0.090   5.314  0.00  0.00    +0.007 A 
BRANCH   5  18
ATOM     17  C   UNL     1      -2.148  -0.985   0.431  0.00  0.00    +0.017 C 
ATOM     18  C   UNL     1      -1.940  -2.231   1.294  0.00  0.00    +0.069 C 
ATOM     19  C   UNL     1      -1.945  -3.475   0.404  0.00  0.00    +0.017 C 
ENDBRANCH   5  18
ENDBRANCH   1  14
BRANCH   2  20
ATOM     20  C   UNL     1       6.081  -4.080   4.349  0.00  0.00    +0.299 C 
ATOM     21  O   UNL     1       6.229  -4.457   3.206  0.00  0.00    -0.265 OA
ATOM     22  N   UNL     1       6.969  -4.439   5.298  0.00  0.00    -0.307 N 
ATOM     23  H   UNL     1       6.851  -4.137   6.212  0.00  0.00    +0.149 HD
BRANCH  22  24
ATOM     24  C   UNL     1       8.112  -5.286   4.948  0.00  0.00    +0.108 C 
BRANCH  24  25
ATOM     25  C   UNL     1       8.957  -5.543   6.197  0.00  0.00    +0.009 C 
ATOM     26  C   UNL     1       8.142  -6.357   7.205  0.00  0.00    +0.024 C 
ATOM     27  C   UNL     1       8.979  -6.583   8.468  0.00  0.00    +0.108 C 
ATOM     28  N   UNL     1      10.256  -7.201   8.085  0.00  0.00    -0.301 N 
ATOM     29  C   UNL     1      11.076  -6.548   7.056  0.00  0.00    +0.108 C 
ATOM     30  C   UNL     1      10.216  -6.322   5.809  0.00  0.00    +0.024 C 
ATOM     31  C   UNL     1      10.666  -8.346   8.667  0.00  0.00    +0.220 C 
ATOM     32  O   UNL     1       9.980  -8.875   9.515  0.00  0.00    -0.275 OA
BRANCH  31  33
ATOM     33  C   UNL     1      11.978  -8.968   8.263  0.00  0.00    +0.138 C 
BRANCH  33  34
ATOM     34  C   UNL     1      12.201 -10.230   9.056  0.00  0.00    -0.001 A 
ATOM     35  C   UNL     1      11.839 -11.501   8.757  0.00  0.00    +0.011 A 
ATOM     36  C   UNL     1      12.152 -12.514   9.644  0.00  0.00    +0.008 A 
ATOM     37  C   UNL     1      12.812 -12.205  10.787  0.00  0.00    +0.045 A 
ATOM     38  S   UNL     1      13.017 -10.439  10.630  0.00  0.00    -0.101 S 
ENDBRANCH  33  34
ENDBRANCH  31  33
ENDBRANCH  24  25
ENDBRANCH  22  24
ENDBRANCH   2  20
TORSDOF 7
