REMARK  Name = ZINC00427863
REMARK  4 active torsions:
REMARK  status: ('A' for Active; 'I' for Inactive)
REMARK    1  A    between atoms: N_9  and  C_10
REMARK    2  A    between atoms: C_10  and  C_11
REMARK    3  A    between atoms: C_11  and  N_12
REMARK    4  A    between atoms: C_13  and  C_15
REMARK                            x       y       z     vdW  Elec       q    Type
REMARK                         _______ _______ _______ _____ _____    ______ ____
ROOT
ATOM      1  N   UNL     1      -0.016   1.344   0.009  0.00  0.00    -0.309 N 
ATOM      2  C   UNL     1       0.002  -0.004   0.002  0.00  0.00    +0.251 C 
ATOM      3  O   UNL     1       1.063  -0.598  -0.011  0.00  0.00    -0.270 OA
ATOM      4  H   UNL     1      -0.863   1.817   0.016  0.00  0.00    +0.149 HD
ENDROOT
BRANCH   2   5
ATOM      5  C   UNL     1      -1.263  -0.758   0.010  0.00  0.00    +0.122 A 
ATOM      6  C   UNL     1      -2.478  -0.095   0.031  0.00  0.00    +0.031 A 
ATOM      7  C   UNL     1      -3.672  -0.860   0.033  0.00  0.00    +0.018 A 
ATOM      8  C   UNL     1      -4.920  -0.220   0.048  0.00  0.00    +0.011 A 
ATOM      9  C   UNL     1      -6.065  -0.963   0.056  0.00  0.00    +0.001 A 
ATOM     10  C   UNL     1      -6.004  -2.350   0.048  0.00  0.00    +0.004 A 
ATOM     11  C   UNL     1      -4.788  -3.000   0.033  0.00  0.00    +0.047 A 
ATOM     12  C   UNL     1      -3.607  -2.265   0.025  0.00  0.00    +0.139 A 
ATOM     13  O   UNL     1      -2.418  -2.904   0.010  0.00  0.00    -0.422 OA
ATOM     14  C   UNL     1      -1.258  -2.225   0.002  0.00  0.00    +0.350 A 
ATOM     15  O   UNL     1      -0.202  -2.829  -0.011  0.00  0.00    -0.244 OA
ENDBRANCH   2   5
BRANCH   1  16
ATOM     16  C   UNL     1       1.242   2.093   0.001  0.00  0.00    +0.126 C 
BRANCH  16  17
ATOM     17  C   UNL     1       0.943   3.594   0.012  0.00  0.00    +0.140 C 
BRANCH  17  26
ATOM     18  C   UNL     1       4.772   5.606  -2.969  0.00  0.00    +0.001 A 
ATOM     19  C   UNL     1       3.654   4.900  -3.392  0.00  0.00    +0.002 A 
ATOM     20  C   UNL     1       2.732   4.433  -2.482  0.00  0.00    +0.026 A 
ATOM     21  C   UNL     1       2.920   4.670  -1.123  0.00  0.00    +0.049 A 
ATOM     22  C   UNL     1       4.055   5.385  -0.700  0.00  0.00    -0.000 A 
ATOM     23  C   UNL     1       4.977   5.850  -1.640  0.00  0.00    +0.010 A 
ATOM     24  C   UNL     1       3.962   5.463   0.760  0.00  0.00    +0.027 A 
ATOM     25  C   UNL     1       2.834   4.828   1.116  0.00  0.00    +0.087 A 
ATOM     26  N   UNL     1       2.201   4.343   0.004  0.00  0.00    -0.345 N 
ENDBRANCH  17  26
ENDBRANCH  16  17
ENDBRANCH   1  16
TORSDOF 4
