REMARK  Name = ZINC35397332
REMARK  5 active torsions:
REMARK  status: ('A' for Active; 'I' for Inactive)
REMARK    1  A    between atoms: C_1  and  C_2
REMARK    2  A    between atoms: C_9  and  C_28
REMARK    3  A    between atoms: C_11  and  N_14
REMARK    4  A    between atoms: N_14  and  S_15
REMARK    5  A    between atoms: S_15  and  C_18
REMARK                            x       y       z     vdW  Elec       q    Type
REMARK                         _______ _______ _______ _____ _____    ______ ____
ROOT
ATOM      1  C   UNL     1      -2.005  -0.477  -1.409  0.00  0.00    +0.007 C 
ATOM      2  C   UNL     1      -1.137  -1.197  -0.376  0.00  0.00    -0.011 C 
ATOM      3  C   UNL     1      -1.192  -2.706  -0.627  0.00  0.00    +0.022 C 
ATOM      4  C   UNL     1      -0.349  -3.426   0.430  0.00  0.00    +0.107 C 
ATOM      5  N   UNL     1       1.007  -2.861   0.420  0.00  0.00    -0.315 N 
ATOM      6  C   UNL     1       1.168  -1.408   0.563  0.00  0.00    +0.107 C 
ATOM      7  C   UNL     1       0.309  -0.710  -0.496  0.00  0.00    +0.022 C 
ATOM      8  C   UNL     1       2.112  -3.683   0.279  0.00  0.00    +0.136 A 
ATOM      9  C   UNL     1       2.785  -4.150   1.422  0.00  0.00    +0.105 A 
ATOM     10  C   UNL     1       3.901  -4.981   1.256  0.00  0.00    +0.044 A 
ATOM     11  C   UNL     1       4.294  -5.306  -0.036  0.00  0.00    +0.067 A 
ATOM     12  C   UNL     1       3.575  -4.802  -1.114  0.00  0.00    +0.137 A 
ATOM     13  N   UNL     1       2.524  -4.027  -0.931  0.00  0.00    -0.238 NA
ENDROOT
BRANCH   9  14
ATOM     14  C   UNL     1       2.325  -3.774   2.767  0.00  0.00    +0.390 C 
ATOM     15  O   UNL     1       2.978  -4.099   3.750  0.00  0.00    -0.240 OA
ATOM     16  O   UNL     1       1.290  -3.136   2.904  0.00  0.00    -0.240 OA
ENDBRANCH   9  14
BRANCH  11  17
ATOM     17  N   UNL     1       5.404  -6.132  -0.251  0.00  0.00    -0.215 N 
ATOM     18  H   UNL     1       6.223  -5.983   0.246  0.00  0.00    +0.174 HD
BRANCH  17  19
ATOM     19  S   UNL     1       5.317  -7.364  -1.354  0.00  0.00    +0.072 S 
ATOM     20  O   UNL     1       4.825  -6.796  -2.560  0.00  0.00    -0.150 OA
ATOM     21  O   UNL     1       6.557  -8.056  -1.288  0.00  0.00    -0.150 OA
BRANCH  19  22
ATOM     22  C   UNL     1       4.084  -8.487  -0.785  0.00  0.00    +0.109 A 
ATOM     23  C   UNL     1       4.407  -9.465   0.137  0.00  0.00    +0.029 A 
ATOM     24  C   UNL     1       3.437 -10.341   0.575  0.00  0.00    +0.006 A 
ATOM     25  C   UNL     1       2.135 -10.249   0.098  0.00  0.00    -0.044 A 
ATOM     26  C   UNL     1       1.812  -9.272  -0.817  0.00  0.00    -0.042 A 
ATOM     27  C   UNL     1       2.790  -8.389  -1.255  0.00  0.00    +0.032 A 
ATOM     28  C   UNL     1       0.418  -9.103  -1.364  0.00  0.00    +0.035 C 
ATOM     29  C   UNL     1      -0.407 -10.366  -1.130  0.00  0.00    +0.005 C 
ATOM     30  C   UNL     1      -0.294 -10.752   0.349  0.00  0.00    +0.005 C 
ATOM     31  C   UNL     1       1.127 -11.243   0.612  0.00  0.00    +0.035 C 
ENDBRANCH  19  22
ENDBRANCH  17  19
ENDBRANCH  11  17
TORSDOF 4
