REMARK  Name = ZINC00851220
REMARK  5 active torsions:
REMARK  status: ('A' for Active; 'I' for Inactive)
REMARK    1  A    between atoms: C_3  and  C_10
REMARK    2  A    between atoms: C_5  and  N_7
REMARK    3  A    between atoms: C_11  and  C_12
REMARK    4  A    between atoms: C_11  and  N_21
REMARK    5  A    between atoms: C_22  and  C_24
REMARK                            x       y       z     vdW  Elec       q    Type
REMARK                         _______ _______ _______ _____ _____    ______ ____
ROOT
ATOM      1  C   UNL     1       3.669   2.161   0.140  0.00  0.00    +0.036 C 
ATOM      2  C   UNL     1       3.627   3.492  -0.101  0.00  0.00    +0.097 C 
ENDROOT
BRANCH   2   3
ATOM      3  C   UNL     1       2.341   4.203  -0.079  0.00  0.00    +0.261 C 
ATOM      4  O   UNL     1       1.704   4.342  -1.106  0.00  0.00    -0.269 OA
ATOM      5  N   UNL     1       1.867   4.702   1.080  0.00  0.00    -0.296 N 
ATOM      6  C   UNL     1       2.700   4.627   2.260  0.00  0.00    +0.108 C 
ATOM      7  C   UNL     1       2.436   3.291   2.997  0.00  0.00    +0.019 C 
ATOM      8  C   UNL     1       1.110   3.312   3.634  0.00  0.00    +0.002 C 
ATOM      9  C   UNL     1      -0.054   3.440   2.656  0.00  0.00    +0.002 C 
ATOM     10  C   UNL     1      -0.286   4.897   2.342  0.00  0.00    +0.019 C 
ATOM     11  C   UNL     1       0.521   5.308   1.092  0.00  0.00    +0.108 C 
ENDBRANCH   2   3
BRANCH   1  14
ATOM     12  C   UNL     1       0.163   0.962  -0.439  0.00  0.00    +0.003 A 
ATOM     13  C   UNL     1       1.332   1.683  -0.565  0.00  0.00    +0.008 A 
ATOM     14  C   UNL     1       2.418   1.398   0.268  0.00  0.00    -0.021 A 
ATOM     15  C   UNL     1       2.310   0.382   1.223  0.00  0.00    +0.040 A 
ATOM     16  C   UNL     1       1.134  -0.330   1.337  0.00  0.00    +0.127 A 
ATOM     17  C   UNL     1       0.063  -0.041   0.508  0.00  0.00    +0.033 A 
BRANCH  16  18
ATOM     18  N   UNL     1       1.017  -1.406   2.347  0.00  0.00    +0.056 N 
ATOM     19  O   UNL     1       1.952  -1.659   3.071  0.00  0.00    -0.126 OA
ATOM     20  O   UNL     1      -0.013  -2.031   2.448  0.00  0.00    -0.126 OA
ENDBRANCH  16  18
ENDBRANCH   1  14
BRANCH   2  21
ATOM     21  N   UNL     1       4.808   4.191  -0.371  0.00  0.00    -0.277 N 
ATOM     22  C   UNL     1       4.756   5.493  -0.714  0.00  0.00    +0.255 C 
ATOM     23  O   UNL     1       3.692   6.084  -0.702  0.00  0.00    -0.269 OA
ATOM     24  H   UNL     1       5.663   3.738  -0.312  0.00  0.00    +0.155 HD
BRANCH  22  25
ATOM     25  C   UNL     1       5.981   6.198  -1.101  0.00  0.00    +0.074 A 
ATOM     26  C   UNL     1       6.146   7.522  -1.479  0.00  0.00    +0.021 A 
ATOM     27  C   UNL     1       7.431   7.899  -1.788  0.00  0.00    +0.008 A 
ATOM     28  C   UNL     1       8.425   6.980  -1.708  0.00  0.00    +0.046 A 
ATOM     29  S   UNL     1       7.650   5.578  -1.202  0.00  0.00    -0.092 S 
ENDBRANCH  22  25
ENDBRANCH   2  21
TORSDOF 5
