REMARK  Name = ZINC36588600
REMARK  20 active torsions:
REMARK  status: ('A' for Active; 'I' for Inactive)
REMARK    1  A    between atoms: C_1  and  C_2
REMARK    2  A    between atoms: C_2  and  C_3
REMARK    3  A    between atoms: C_2  and  C_4
REMARK    4  A    between atoms: C_2  and  C_5
REMARK    5  A    between atoms: C_5  and  C_6
REMARK    6  A    between atoms: C_6  and  C_7
REMARK    7  A    between atoms: C_6  and  C_8
REMARK    8  A    between atoms: C_6  and  N_9
REMARK    9  A    between atoms: C_10  and  C_12
REMARK   10  A    between atoms: C_12  and  C_14
REMARK   11  A    between atoms: C_12  and  N_23
REMARK   12  A    between atoms: C_17  and  O_22
REMARK   13  A    between atoms: C_18  and  O_20
REMARK   14  A    between atoms: O_20  and  C_21
REMARK   15  A    between atoms: N_23  and  C_36
REMARK   16  A    between atoms: C_24  and  C_26
REMARK   17  A    between atoms: C_26  and  C_27
REMARK   18  A    between atoms: C_36  and  C_37
REMARK   19  A    between atoms: C_36  and  C_38
REMARK   20  A    between atoms: C_36  and  C_39
REMARK                            x       y       z     vdW  Elec       q    Type
REMARK                         _______ _______ _______ _____ _____    ______ ____
ROOT
ATOM      1  C   UNL     1       4.497   0.636  -5.072  0.00  0.00    +0.193 C 
ENDROOT
BRANCH   1   2
ATOM      2  C   UNL     1       4.336  -0.365  -6.187  0.00  0.00    -0.015 A 
ATOM      3  C   UNL     1       5.308  -1.325  -6.398  0.00  0.00    +0.010 A 
ATOM      4  C   UNL     1       5.164  -2.245  -7.419  0.00  0.00    +0.049 A 
ATOM      5  C   UNL     1       4.044  -2.207  -8.234  0.00  0.00    +0.158 A 
ATOM      6  C   UNL     1       3.066  -1.241  -8.021  0.00  0.00    +0.162 A 
ATOM      7  C   UNL     1       3.213  -0.324  -6.993  0.00  0.00    +0.055 A 
BRANCH   6   8
ATOM      8  O   UNL     1       1.964  -1.199  -8.818  0.00  0.00    -0.491 OA
ATOM      9  C   UNL     1       1.002  -0.180  -8.541  0.00  0.00    +0.277 C 
ENDBRANCH   6   8
BRANCH   5  10
ATOM     10  O   UNL     1       3.901  -3.111  -9.239  0.00  0.00    -0.503 OA
ATOM     11  H   UNL     1       3.440  -3.920  -8.979  0.00  0.00    +0.292 HD
ENDBRANCH   5  10
ENDBRANCH   1   2
BRANCH   1  13
ATOM     12  N   UNL     1       2.751  -0.459  -3.705  0.00  0.00    -0.308 N 
ATOM     13  C   UNL     1       4.002   0.035  -3.782  0.00  0.00    +0.239 C 
ATOM     14  O   UNL     1       4.730  -0.003  -2.812  0.00  0.00    -0.273 OA
ATOM     15  H   UNL     1       2.169  -0.429  -4.481  0.00  0.00    +0.149 HD
BRANCH  12  16
ATOM     16  C   UNL     1       2.269  -1.044  -2.451  0.00  0.00    +0.030 C 
ATOM     17  C   UNL     1       2.611  -0.109  -1.289  0.00  0.00    +0.031 C 
ATOM     18  C   UNL     1       2.942  -2.400  -2.229  0.00  0.00    +0.031 C 
BRANCH  16  19
ATOM     19  C   UNL     1       0.753  -1.232  -2.525  0.00  0.00    +0.031 C 
BRANCH  19  21
ATOM     20  C   UNL     1       0.207  -0.194  -4.731  0.00  0.00    +0.010 C 
ATOM     21  C   UNL     1       0.121  -0.021  -3.214  0.00  0.00    -0.036 C 
ATOM     22  C   UNL     1       0.871   1.248  -2.802  0.00  0.00    +0.010 C 
ATOM     23  C   UNL     1      -1.346   0.096  -2.796  0.00  0.00    +0.010 C 
ENDBRANCH  19  21
ENDBRANCH  16  19
ENDBRANCH  12  16
ENDBRANCH   1  13
BRANCH   1  24
ATOM     24  N   UNL     1       5.912   0.990  -4.934  0.00  0.00    -0.281 N 
ATOM     25  C   UNL     1       6.790   0.085  -4.457  0.00  0.00    +0.221 C 
ATOM     26  O   UNL     1       6.393  -0.981  -4.035  0.00  0.00    -0.275 OA
BRANCH  24  27
ATOM     27  C   UNL     1       6.374   2.327  -5.316  0.00  0.00    +0.030 C 
ATOM     28  C   UNL     1       5.268   3.046  -6.091  0.00  0.00    +0.031 C 
ATOM     29  C   UNL     1       6.717   3.126  -4.057  0.00  0.00    +0.031 C 
ATOM     30  C   UNL     1       7.618   2.205  -6.197  0.00  0.00    +0.031 C 
ENDBRANCH  24  27
BRANCH  25  31
ATOM     31  C   UNL     1       8.264   0.397  -4.447  0.00  0.00    +0.131 C 
BRANCH  31  32
ATOM     32  C   UNL     1       9.007  -0.708  -3.742  0.00  0.00    -0.035 A 
ATOM     33  C   UNL     1       9.213  -0.638  -2.376  0.00  0.00    +0.008 A 
ATOM     34  C   UNL     1       9.893  -1.649  -1.724  0.00  0.00    +0.050 A 
ATOM     35  C   UNL     1      10.372  -2.736  -2.439  0.00  0.00    +0.166 A 
ATOM     36  C   UNL     1      10.164  -2.806  -3.814  0.00  0.00    +0.166 A 
ATOM     37  C   UNL     1       9.476  -1.792  -4.460  0.00  0.00    +0.053 A 
ATOM     38  O   UNL     1      10.724  -3.960  -4.282  0.00  0.00    -0.453 OA
ATOM     39  C   UNL     1      11.629  -4.394  -3.249  0.00  0.00    +0.466 C 
ATOM     40  O   UNL     1      11.062  -3.846  -2.044  0.00  0.00    -0.453 OA
ENDBRANCH  31  32
ENDBRANCH  25  31
ENDBRANCH   1  24
TORSDOF 11
