REMARK  Name = ZINC36684452
REMARK  13 active torsions:
REMARK  status: ('A' for Active; 'I' for Inactive)
REMARK    1  A    between atoms: C_1  and  O_2
REMARK    2  A    between atoms: O_2  and  C_3
REMARK    3  A    between atoms: C_8  and  C_9
REMARK    4  A    between atoms: N_11  and  C_12
REMARK    5  A    between atoms: C_12  and  C_14
REMARK    6  A    between atoms: C_12  and  C_18
REMARK    7  A    between atoms: C_14  and  C_15
REMARK    8  A    between atoms: C_15  and  S_16
REMARK    9  A    between atoms: S_16  and  C_17
REMARK   10  A    between atoms: N_20  and  C_21
REMARK   11  A    between atoms: C_21  and  C_22
REMARK   12  A    between atoms: C_22  and  C_24
REMARK   13  A    between atoms: C_22  and  N_29
REMARK                            x       y       z     vdW  Elec       q    Type
REMARK                         _______ _______ _______ _____ _____    ______ ____
ROOT
ATOM      1  C   UNL     1      -1.786  -6.162  -0.046  0.00  0.00    +0.233 C 
ATOM      2  O   UNL     1      -1.901  -6.413   1.134  0.00  0.00    -0.274 OA
ATOM      3  N   UNL     1      -1.943  -7.139  -0.962  0.00  0.00    -0.315 N 
ATOM      4  H   UNL     1      -1.850  -6.939  -1.906  0.00  0.00    +0.149 HD
ENDROOT
BRANCH   1   5
ATOM      5  C   UNL     1      -1.467  -4.758  -0.491  0.00  0.00    +0.160 C 
BRANCH   5   8
ATOM      6  C   UNL     1      -1.566  -2.565   0.567  0.00  0.00    +0.248 C 
ATOM      7  O   UNL     1      -1.864  -2.091  -0.512  0.00  0.00    -0.270 OA
ATOM      8  N   UNL     1      -1.346  -3.890   0.683  0.00  0.00    -0.300 N 
ATOM      9  H   UNL     1      -1.109  -4.268   1.544  0.00  0.00    +0.150 HD
BRANCH   6  15
ATOM     10  C   UNL     1      -1.673  -0.313   1.633  0.00  0.00    +0.132 A 
ATOM     11  C   UNL     1      -1.562   0.499   2.752  0.00  0.00    +0.046 A 
ATOM     12  C   UNL     1      -1.222  -0.049   3.973  0.00  0.00    +0.004 A 
ATOM     13  C   UNL     1      -0.990  -1.410   4.091  0.00  0.00    +0.001 A 
ATOM     14  C   UNL     1      -1.097  -2.231   2.990  0.00  0.00    +0.017 A 
ATOM     15  C   UNL     1      -1.445  -1.691   1.749  0.00  0.00    +0.078 A 
BRANCH  10  17
ATOM     16  C   UNL     1      -2.223   1.635   0.391  0.00  0.00    +0.277 C 
ATOM     17  O   UNL     1      -2.006   0.224   0.432  0.00  0.00    -0.494 OA
ENDBRANCH  10  17
ENDBRANCH   6  15
ENDBRANCH   5   8
BRANCH   5  18
ATOM     18  C   UNL     1      -0.147  -4.755  -1.264  0.00  0.00    +0.042 C 
BRANCH  18  19
ATOM     19  C   UNL     1       0.115  -3.355  -1.822  0.00  0.00    +0.071 C 
BRANCH  19  20
ATOM     20  S   UNL     1       1.680  -3.352  -2.739  0.00  0.00    -0.164 S 
ATOM     21  C   UNL     1       1.841  -1.643  -3.327  0.00  0.00    +0.084 C 
ENDBRANCH  19  20
ENDBRANCH  18  19
ENDBRANCH   5  18
ENDBRANCH   1   5
BRANCH   3  22
ATOM     22  C   UNL     1      -2.253  -8.504  -0.530  0.00  0.00    +0.096 C 
BRANCH  22  23
ATOM     23  C   UNL     1      -2.508  -9.382  -1.757  0.00  0.00    +0.016 C 
BRANCH  23  24
ATOM     24  N   UNL     1      -3.589  -8.797  -2.561  0.00  0.00    +0.387 N 
ATOM     25  C   UNL     1      -4.779  -8.616  -1.720  0.00  0.00    -0.078 C 
ATOM     26  C   UNL     1      -5.881  -7.933  -2.532  0.00  0.00    -0.019 C 
ATOM     27  C   UNL     1      -6.236  -8.806  -3.739  0.00  0.00    -0.004 C 
ATOM     28  C   UNL     1      -4.972  -9.051  -4.568  0.00  0.00    -0.019 C 
ATOM     29  C   UNL     1      -3.902  -9.692  -3.681  0.00  0.00    -0.078 C 
ATOM     30  H   UNL     1      -3.293  -7.902  -2.920  0.00  0.00    -0.081 HD
ENDBRANCH  23  24
BRANCH  23  31
ATOM     31  C   UNL     1      -2.905 -10.766  -1.311  0.00  0.00    +0.093 A 
ATOM     32  C   UNL     1      -2.146 -11.872  -1.410  0.00  0.00    +0.043 A 
ATOM     33  C   UNL     1      -2.905 -12.938  -0.875  0.00  0.00    +0.041 A 
ATOM     34  C   UNL     1      -4.082 -12.419  -0.481  0.00  0.00    +0.195 A 
ATOM     35  O   UNL     1      -4.074 -11.102  -0.742  0.00  0.00    -0.469 OA
ENDBRANCH  23  31
ENDBRANCH  22  23
ENDBRANCH   3  22
TORSDOF 11
