REMARK  Name = ZINC60320083
REMARK  6 active torsions:
REMARK  status: ('A' for Active; 'I' for Inactive)
REMARK    1  A    between atoms: C_1  and  C_2
REMARK    2  A    between atoms: C_2  and  C_3
REMARK    3  A    between atoms: C_3  and  C_4
REMARK    4  A    between atoms: C_14  and  C_16
REMARK    5  A    between atoms: C_16  and  C_17
REMARK    6  A    between atoms: C_17  and  N_18
REMARK                            x       y       z     vdW  Elec       q    Type
REMARK                         _______ _______ _______ _____ _____    ______ ____
ROOT
ATOM      1  C   UNL     1      -1.413  -2.063   0.004  0.00  0.00    -0.006 C 
ATOM      2  C   UNL     1      -2.842  -2.597   0.134  0.00  0.00    +0.010 C 
ATOM      3  C   UNL     1      -2.821  -4.108   0.374  0.00  0.00    +0.056 C 
ATOM      4  C   UNL     1      -1.971  -4.761  -0.708  0.00  0.00    +0.054 A 
ATOM      5  C   UNL     1      -1.093  -4.024  -1.435  0.00  0.00    +0.015 A 
ATOM      6  S   UNL     1      -0.385  -5.229  -2.523  0.00  0.00    -0.057 S 
ATOM      7  C   UNL     1      -1.255  -6.562  -1.969  0.00  0.00    +0.165 A 
ATOM      8  N   UNL     1      -2.013  -6.052  -1.023  0.00  0.00    -0.229 NA
ATOM      9  N   UNL     1      -1.188  -7.880  -2.406  0.00  0.00    -0.265 N 
ATOM     10  C   UNL     1      -1.969  -8.819  -1.837  0.00  0.00    +0.220 C 
ATOM     11  O   UNL     1      -2.731  -8.514  -0.944  0.00  0.00    -0.275 OA
ATOM     12  C   UNL     1      -0.812  -2.563  -1.319  0.00  0.00    +0.048 C 
ATOM     13  H   UNL     1      -0.579  -8.123  -3.121  0.00  0.00    +0.157 HD
ENDROOT
BRANCH   1  14
ATOM     14  C   UNL     1      -1.433  -0.534   0.013  0.00  0.00    +0.003 C 
BRANCH  14  16
ATOM     15  C   UNL     1      -0.019   1.526   0.010  0.00  0.00    +0.004 C 
ATOM     16  C   UNL     1       0.002  -0.004   0.002  0.00  0.00    -0.003 C 
ENDBRANCH  14  16
ENDBRANCH   1  14
BRANCH  10  17
ATOM     17  C   UNL     1      -1.896 -10.248  -2.312  0.00  0.00    +0.118 C 
BRANCH  17  18
ATOM     18  C   UNL     1      -2.878 -11.102  -1.507  0.00  0.00    +0.136 C 
BRANCH  18  19
ATOM     19  N   UNL     1      -2.807 -12.491  -1.968  0.00  0.00    -0.293 N 
ATOM     20  C   UNL     1      -3.631 -12.916  -3.000  0.00  0.00    +0.059 A 
ATOM     21  C   UNL     1      -4.530 -12.055  -3.612  0.00  0.00    +0.027 A 
ATOM     22  C   UNL     1      -5.333 -12.518  -4.636  0.00  0.00    +0.002 A 
ATOM     23  C   UNL     1      -5.251 -13.836  -5.058  0.00  0.00    +0.001 A 
ATOM     24  C   UNL     1      -4.363 -14.707  -4.460  0.00  0.00    +0.015 A 
ATOM     25  C   UNL     1      -3.547 -14.252  -3.427  0.00  0.00    +0.063 A 
ATOM     26  C   UNL     1      -2.582 -15.140  -2.753  0.00  0.00    +0.262 A 
ATOM     27  O   UNL     1      -2.469 -16.304  -3.085  0.00  0.00    -0.267 OA
ATOM     28  N   UNL     1      -1.826 -14.626  -1.759  0.00  0.00    -0.274 N 
ATOM     29  H   UNL     1      -1.185 -15.196  -1.306  0.00  0.00    +0.173 HD
ATOM     30  C   UNL     1      -1.940 -13.341  -1.391  0.00  0.00    +0.330 A 
ATOM     31  O   UNL     1      -1.231 -12.928  -0.493  0.00  0.00    -0.246 OA
ENDBRANCH  18  19
ENDBRANCH  17  18
ENDBRANCH  10  17
TORSDOF 5
