REMARK  Name = ZINC12197419
REMARK  8 active torsions:
REMARK  status: ('A' for Active; 'I' for Inactive)
REMARK    1  A    between atoms: C_1  and  O_2
REMARK    2  A    between atoms: O_2  and  C_3
REMARK    3  A    between atoms: C_6  and  S_9
REMARK    4  A    between atoms: S_9  and  N_12
REMARK    5  A    between atoms: N_12  and  C_13
REMARK    6  A    between atoms: C_13  and  C_14
REMARK    7  A    between atoms: C_14  and  C_16
REMARK    8  A    between atoms: C_14  and  N_52
REMARK                            x       y       z     vdW  Elec       q    Type
REMARK                         _______ _______ _______ _____ _____    ______ ____
ROOT
ATOM      1  C   UNL     1       2.113   4.893   3.701  0.00  0.00    -0.022 C 
ENDROOT
BRANCH   1   2
ATOM      2  C   UNL     1       3.405   4.804   4.472  0.00  0.00    -0.056 A 
ATOM      3  C   UNL     1       4.496   5.557   4.080  0.00  0.00    +0.006 A 
ATOM      4  C   UNL     1       5.683   5.479   4.784  0.00  0.00    +0.050 A 
ATOM      5  C   UNL     1       5.782   4.644   5.886  0.00  0.00    +0.166 A 
ATOM      6  C   UNL     1       4.682   3.886   6.281  0.00  0.00    +0.166 A 
ATOM      7  C   UNL     1       3.494   3.974   5.574  0.00  0.00    +0.051 A 
ATOM      8  O   UNL     1       5.029   3.155   7.381  0.00  0.00    -0.453 OA
ATOM      9  C   UNL     1       6.220   3.779   7.897  0.00  0.00    +0.466 C 
ATOM     10  O   UNL     1       6.817   4.388   6.738  0.00  0.00    -0.453 OA
ENDBRANCH   1   2
BRANCH   1  15
ATOM     11  C   UNL     1       0.619   6.411   2.522  0.00  0.00    -0.078 C 
ATOM     12  C   UNL     1       0.250   7.909   2.667  0.00  0.00    -0.020 C 
ATOM     13  C   UNL     1       0.640   8.221   4.130  0.00  0.00    -0.020 C 
ATOM     14  C   UNL     1       1.669   7.140   4.511  0.00  0.00    -0.078 C 
ATOM     15  N   UNL     1       1.853   6.313   3.317  0.00  0.00    +0.385 N 
ATOM     16  H   UNL     1       2.647   6.666   2.770  0.00  0.00    -0.081 HD
ENDBRANCH   1  15
BRANCH   1  17
ATOM     17  C   UNL     1       2.211   4.028   2.442  0.00  0.00    +0.095 C 
BRANCH  17  18
ATOM     18  N   UNL     1       2.345   2.621   2.826  0.00  0.00    -0.191 NA
ATOM     19  H   UNL     1       2.571   2.387   3.740  0.00  0.00    +0.148 HD
BRANCH  18  20
ATOM     20  S   UNL     1       2.112   1.429   1.700  0.00  0.00    +0.058 S 
ATOM     21  O   UNL     1       0.890   1.728   1.039  0.00  0.00    -0.153 OA
ATOM     22  O   UNL     1       2.337   0.193   2.364  0.00  0.00    -0.153 OA
BRANCH  20  26
ATOM     23  C   UNL     1       5.393   1.851  -1.393  0.00  0.00    +0.120 A 
ATOM     24  C   UNL     1       5.587   1.047  -0.280  0.00  0.00    +0.047 A 
ATOM     25  C   UNL     1       4.585   0.920   0.662  0.00  0.00    +0.032 A 
ATOM     26  C   UNL     1       3.389   1.594   0.496  0.00  0.00    +0.105 A 
ATOM     27  C   UNL     1       3.193   2.396  -0.612  0.00  0.00    +0.032 A 
ATOM     28  C   UNL     1       4.192   2.527  -1.557  0.00  0.00    +0.047 A 
BRANCH  23  30
ATOM     29  C   UNL     1       6.108   2.824  -3.442  0.00  0.00    +0.277 C 
ATOM     30  O   UNL     1       6.378   1.978  -2.321  0.00  0.00    -0.495 OA
ENDBRANCH  23  30
ENDBRANCH  20  26
ENDBRANCH  18  20
ENDBRANCH  17  18
ENDBRANCH   1  17
TORSDOF 7
