REMARK  Name = ZINC23182443
REMARK  12 active torsions:
REMARK  status: ('A' for Active; 'I' for Inactive)
REMARK    1  A    between atoms: C_1  and  C_2
REMARK    2  A    between atoms: C_2  and  C_3
REMARK    3  A    between atoms: C_3  and  C_5
REMARK    4  A    between atoms: C_3  and  C_6
REMARK    5  A    between atoms: C_9  and  C_12
REMARK    6  A    between atoms: C_12  and  C_14
REMARK    7  A    between atoms: C_12  and  N_19
REMARK    8  A    between atoms: C_20  and  C_22
REMARK    9  A    between atoms: C_22  and  N_23
REMARK   10  A    between atoms: C_31  and  C_32
REMARK   11  A    between atoms: C_32  and  S_33
REMARK   12  A    between atoms: S_33  and  C_36
REMARK                            x       y       z     vdW  Elec       q    Type
REMARK                         _______ _______ _______ _____ _____    ______ ____
ROOT
ATOM      1  N   UNL     1      -2.686   3.283   1.700  0.00  0.00    -0.303 N 
ATOM      2  C   UNL     1      -1.609   2.514   1.444  0.00  0.00    +0.234 C 
ATOM      3  O   UNL     1      -0.964   2.050   2.361  0.00  0.00    -0.274 OA
ATOM      4  H   UNL     1      -3.272   3.703   0.869  0.00  0.00    +0.150 HD
ENDROOT
BRANCH   1   5
ATOM      5  C   UNL     1      -3.076   3.560   3.085  0.00  0.00    +0.140 C 
BRANCH   5   9
ATOM      6  C   UNL     1      -5.270   7.222   3.240  0.00  0.00    -0.045 A 
ATOM      7  C   UNL     1      -4.352   6.924   4.230  0.00  0.00    +0.004 A 
ATOM      8  C   UNL     1      -3.642   5.739   4.180  0.00  0.00    +0.006 A 
ATOM      9  C   UNL     1      -3.850   4.852   3.140  0.00  0.00    -0.022 A 
ATOM     10  C   UNL     1      -4.764   5.152   2.147  0.00  0.00    +0.006 A 
ATOM     11  C   UNL     1      -5.478   6.335   2.200  0.00  0.00    +0.004 A 
BRANCH   6  12
ATOM     12  C   UNL     1      -6.043   8.514   3.295  0.00  0.00    +0.016 C 
ATOM     13  C   UNL     1      -5.748   9.339   2.040  0.00  0.00    +0.012 C 
BRANCH  12  15
ATOM     14  C   UNL     1      -8.319   9.514   3.544  0.00  0.00    +0.004 C 
ATOM     15  C   UNL     1      -7.541   8.210   3.364  0.00  0.00    +0.004 C 
ENDBRANCH  12  15
ENDBRANCH   6  12
ENDBRANCH   5   9
BRANCH   5  16
ATOM     16  C   UNL     1      -3.938   2.436   3.599  0.00  0.00    +0.014 A 
ATOM     17  C   UNL     1      -3.935   1.847   4.819  0.00  0.00    +0.013 A 
ATOM     18  C   UNL     1      -4.828   0.823   5.072  0.00  0.00    +0.008 A 
ATOM     19  C   UNL     1      -5.674   0.430   4.088  0.00  0.00    +0.045 A 
ATOM     20  S   UNL     1      -5.223   1.528   2.755  0.00  0.00    -0.099 S 
ENDBRANCH   5  16
ENDBRANCH   1   5
BRANCH   2  21
ATOM     21  C   UNL     1      -1.208   2.228   0.020  0.00  0.00    +0.219 C 
BRANCH  21  22
ATOM     22  N   UNL     1      -0.017   1.376   0.010  0.00  0.00    -0.317 N 
ATOM     23  C   UNL     1       0.002  -0.004   0.002  0.00  0.00    +0.069 A 
ATOM     24  C   UNL     1      -0.981  -0.984   0.006  0.00  0.00    +0.028 A 
ATOM     25  C   UNL     1      -0.619  -2.314  -0.005  0.00  0.00    +0.002 A 
ATOM     26  C   UNL     1       0.720  -2.679  -0.019  0.00  0.00    +0.002 A 
ATOM     27  C   UNL     1       1.701  -1.728  -0.024  0.00  0.00    +0.030 A 
ATOM     28  C   UNL     1       1.358  -0.373  -0.013  0.00  0.00    +0.089 A 
ATOM     29  N   UNL     1       2.081   0.776  -0.014  0.00  0.00    -0.231 NA
ATOM     30  C   UNL     1       1.276   1.799  -0.001  0.00  0.00    +0.132 A 
BRANCH  30  31
ATOM     31  C   UNL     1       1.714   3.241   0.003  0.00  0.00    +0.239 C 
BRANCH  31  32
ATOM     32  S   UNL     1       1.906   3.810   1.715  0.00  0.00    -0.027 S 
ATOM     33  O   UNL     1       0.629   3.798   2.338  0.00  0.00    -0.174 OA
ATOM     34  O   UNL     1       2.973   3.087   2.312  0.00  0.00    -0.174 OA
ATOM     35  C   UNL     1       2.426   5.535   1.507  0.00  0.00    +0.194 C 
ENDBRANCH  31  32
ENDBRANCH  30  31
ENDBRANCH  21  22
ENDBRANCH   2  21
TORSDOF 9
