REMARK  Name = ZINC03155993
REMARK  3 active torsions:
REMARK  status: ('A' for Active; 'I' for Inactive)
REMARK    1  A    between atoms: C_4  and  O_21
REMARK    2  A    between atoms: C_5  and  C_7
REMARK    3  A    between atoms: C_10  and  C_13
REMARK                            x       y       z     vdW  Elec       q    Type
REMARK                         _______ _______ _______ _____ _____    ______ ____
ROOT
ATOM      1  C   UNL     1       1.307   1.622  -2.560  0.00  0.00    +0.127 C 
ATOM      2  N   UNL     1       0.156   1.026  -2.659  0.00  0.00    -0.178 NA
ATOM      3  N   UNL     1      -0.447   0.746  -3.865  0.00  0.00    -0.250 N 
ATOM      4  C   UNL     1       0.315   1.162  -5.064  0.00  0.00    +0.184 C 
ATOM      5  S   UNL     1       1.792   1.906  -4.255  0.00  0.00    -0.075 S 
ATOM      6  H   UNL     1      -1.308   0.304  -3.925  0.00  0.00    +0.170 HD
ENDROOT
BRANCH   4   7
ATOM      7  C   UNL     1       0.694  -0.024  -5.913  0.00  0.00    +0.003 A 
ATOM      8  C   UNL     1       0.619  -1.301  -5.389  0.00  0.00    +0.009 A 
ATOM      9  C   UNL     1       0.967  -2.389  -6.167  0.00  0.00    +0.020 A 
ATOM     10  C   UNL     1       1.389  -2.200  -7.471  0.00  0.00    +0.042 A 
ATOM     11  C   UNL     1       1.465  -0.923  -7.996  0.00  0.00    +0.040 A 
ATOM     12  C   UNL     1       1.112   0.166  -7.218  0.00  0.00    +0.048 A 
ATOM     13 CL   UNL     1       1.199   1.769  -7.878  0.00  0.00    -0.083 Cl
ATOM     14 CL   UNL     1       1.825  -3.567  -8.449  0.00  0.00    -0.083 Cl
ENDBRANCH   4   7
BRANCH   1  19
ATOM     15  C   UNL     1       3.968   2.945  -0.263  0.00  0.00    +0.001 A 
ATOM     16  C   UNL     1       3.432   2.644   0.977  0.00  0.00    +0.004 A 
ATOM     17  C   UNL     1       2.204   2.017   1.074  0.00  0.00    +0.046 A 
ATOM     18  C   UNL     1       1.507   1.675  -0.073  0.00  0.00    +0.127 A 
ATOM     19  C   UNL     1       2.046   1.977  -1.330  0.00  0.00    +0.050 A 
ATOM     20  C   UNL     1       3.284   2.616  -1.415  0.00  0.00    +0.014 A 
BRANCH  18  21
ATOM     21  O   UNL     1       0.303   1.054   0.021  0.00  0.00    -0.506 OA
ATOM     22  H   UNL     1       0.358   0.088   0.032  0.00  0.00    +0.292 HD
ENDBRANCH  18  21
ENDBRANCH   1  19
TORSDOF 3
