REMARK  Name = ZINC05731684
REMARK  6 active torsions:
REMARK  status: ('A' for Active; 'I' for Inactive)
REMARK    1  A    between atoms: C_7  and  N_14
REMARK    2  A    between atoms: C_8  and  O_13
REMARK    3  A    between atoms: N_9  and  C_10
REMARK    4  A    between atoms: C_10  and  C_11
REMARK    5  A    between atoms: N_15  and  C_16
REMARK    6  A    between atoms: C_16  and  N_18
REMARK                            x       y       z     vdW  Elec       q    Type
REMARK                         _______ _______ _______ _____ _____    ______ ____
ROOT
ATOM      1  C   UNL     1      -0.017   1.375   0.010  0.00  0.00    +0.001 A 
ATOM      2  C   UNL     1       1.172   2.089   0.002  0.00  0.00    +0.002 A 
ATOM      3  C   UNL     1       2.385   1.433  -0.013  0.00  0.00    +0.026 A 
ATOM      4  C   UNL     1       2.424   0.044  -0.021  0.00  0.00    +0.054 A 
ATOM      5  C   UNL     1       1.220  -0.677  -0.013  0.00  0.00    +0.031 A 
ATOM      6  C   UNL     1       0.002  -0.004   0.002  0.00  0.00    +0.012 A 
ATOM      7  C   UNL     1       1.597  -2.105  -0.024  0.00  0.00    +0.150 A 
ATOM      8  C   UNL     1       2.993  -2.137  -0.038  0.00  0.00    +0.222 A 
ATOM      9  N   UNL     1       3.467  -0.867  -0.036  0.00  0.00    -0.309 N 
ENDROOT
BRANCH   7  10
ATOM     10  N   UNL     1       0.768  -3.156  -0.021  0.00  0.00    -0.175 NA
ATOM     11  N   UNL     1       1.246  -4.354  -0.032  0.00  0.00    -0.218 N 
ATOM     12  H   UNL     1       2.206  -4.494  -0.043  0.00  0.00    +0.176 HD
BRANCH  11  13
ATOM     13  C   UNL     1       0.412  -5.412  -0.029  0.00  0.00    +0.147 C 
ATOM     14  S   UNL     1       1.046  -7.003  -0.044  0.00  0.00    -0.017 S 
BRANCH  13  15
ATOM     15  N   UNL     1      -0.922  -5.219  -0.015  0.00  0.00    -0.339 N 
ATOM     16  H   UNL     1      -1.281  -4.318  -0.007  0.00  0.00    +0.144 HD
ATOM     17  H   UNL     1      -1.523  -5.981  -0.013  0.00  0.00    +0.144 HD
ENDBRANCH  13  15
ENDBRANCH  11  13
ENDBRANCH   7  10
BRANCH   8  18
ATOM     18  O   UNL     1       3.750  -3.255  -0.051  0.00  0.00    -0.492 OA
ATOM     19  H   UNL     1       3.962  -3.576  -0.938  0.00  0.00    +0.294 HD
ENDBRANCH   8  18
BRANCH   9  20
ATOM     20  C   UNL     1       4.888  -0.507  -0.048  0.00  0.00    +0.141 C 
BRANCH  20  21
ATOM     21  C   UNL     1       5.396  -0.389   1.390  0.00  0.00    +0.130 C 
ATOM     22 CL   UNL     1       7.144   0.054   1.375  0.00  0.00    -0.124 Cl
ENDBRANCH  20  21
ENDBRANCH   9  20
TORSDOF 6
