REMARK  Name = ZINC41071048
REMARK  6 active torsions:
REMARK  status: ('A' for Active; 'I' for Inactive)
REMARK    1  A    between atoms: C_1  and  S_2
REMARK    2  A    between atoms: S_2  and  C_3
REMARK    3  A    between atoms: C_6  and  N_9
REMARK    4  A    between atoms: N_9  and  S_10
REMARK    5  A    between atoms: S_10  and  C_13
REMARK    6  A    between atoms: N_19  and  N_20
REMARK                            x       y       z     vdW  Elec       q    Type
REMARK                         _______ _______ _______ _____ _____    ______ ____
ROOT
ATOM      1  S   UNL     1       3.090  -2.959  -5.428  0.00  0.00    +0.094 S 
ATOM      2  O   UNL     1       3.973  -3.501  -4.456  0.00  0.00    -0.148 OA
ATOM      3  O   UNL     1       1.805  -3.512  -5.682  0.00  0.00    -0.148 OA
ENDROOT
BRANCH   1   4
ATOM      4  C   UNL     1       3.957  -2.976  -6.962  0.00  0.00    +0.146 A 
ATOM      5  C   UNL     1       3.268  -2.982  -8.164  0.00  0.00    +0.144 A 
ATOM      6  N   UNL     1       3.949  -2.995  -9.298  0.00  0.00    -0.220 NA
ATOM      7  C   UNL     1       5.274  -3.001  -9.292  0.00  0.00    +0.229 A 
ATOM      8  N   UNL     1       5.963  -2.996  -8.160  0.00  0.00    -0.220 NA
ATOM      9  C   UNL     1       5.342  -2.978  -6.992  0.00  0.00    +0.144 A 
ATOM     10  N   UNL     1       5.955  -3.014 -10.497  0.00  0.00    -0.252 N 
ATOM     11  H   UNL     1       5.463  -3.019 -11.332  0.00  0.00    +0.169 HD
BRANCH  10  12
ATOM     12  N   UNL     1       7.321  -3.022 -10.509  0.00  0.00    -0.254 NA
ATOM     13  H   UNL     1       7.684  -3.801  -9.980  0.00  0.00    +0.140 HD
ATOM     14  H   UNL     1       7.675  -3.031 -11.454  0.00  0.00    +0.140 HD
ENDBRANCH  10  12
ENDBRANCH   1   4
BRANCH   1  15
ATOM     15  N   UNL     1       2.850  -1.373  -5.018  0.00  0.00    -0.098 NA
BRANCH  15  19
ATOM     16  C   UNL     1       0.848  -0.411  -1.489  0.00  0.00    +0.008 A 
ATOM     17  C   UNL     1       1.314   0.600  -2.321  0.00  0.00    +0.016 A 
ATOM     18  C   UNL     1       1.978   0.281  -3.489  0.00  0.00    +0.028 A 
ATOM     19  C   UNL     1       2.178  -1.050  -3.833  0.00  0.00    +0.074 A 
ATOM     20  C   UNL     1       1.713  -2.060  -3.001  0.00  0.00    +0.028 A 
ATOM     21  C   UNL     1       1.055  -1.742  -1.830  0.00  0.00    +0.016 A 
BRANCH  16  23
ATOM     22  C   UNL     1      -0.022   1.810   0.012  0.00  0.00    +0.090 C 
ATOM     23  S   UNL     1       0.002  -0.004   0.002  0.00  0.00    -0.129 S 
ENDBRANCH  16  23
ENDBRANCH  15  19
ENDBRANCH   1  15
TORSDOF 5
