REMARK  Name = ZINC09666953
REMARK  8 active torsions:
REMARK  status: ('A' for Active; 'I' for Inactive)
REMARK    1  A    between atoms: C_1  and  C_2
REMARK    2  A    between atoms: C_3  and  C_31
REMARK    3  A    between atoms: N_9  and  C_24
REMARK    4  A    between atoms: C_10  and  S_12
REMARK    5  A    between atoms: S_12  and  C_13
REMARK    6  A    between atoms: C_13  and  C_15
REMARK    7  A    between atoms: C_13  and  C_16
REMARK    8  A    between atoms: N_18  and  C_19
REMARK                            x       y       z     vdW  Elec       q    Type
REMARK                         _______ _______ _______ _____ _____    ______ ____
ROOT
ATOM      1  C   UNL     1       0.457   4.164  -1.535  0.00  0.00    +0.045 C 
ATOM      2  C   UNL     1       1.556   3.311  -0.956  0.00  0.00    -0.026 A 
ATOM      3  C   UNL     1       2.806   3.787  -0.864  0.00  0.00    -0.008 A 
ATOM      4  S   UNL     1       3.711   2.436  -0.133  0.00  0.00    -0.073 S 
ATOM      5  C   UNL     1       2.382   1.271   0.030  0.00  0.00    +0.117 A 
ATOM      6  C   UNL     1       1.273   1.964  -0.490  0.00  0.00    +0.076 A 
ATOM      7  C   UNL     1       0.034   1.250  -0.484  0.00  0.00    +0.268 A 
ATOM      8  O   UNL     1      -0.980   1.769  -0.919  0.00  0.00    -0.267 OA
ATOM      9  N   UNL     1       0.002  -0.004   0.002  0.00  0.00    -0.255 N 
ATOM     10  C   UNL     1       1.130  -0.604   0.488  0.00  0.00    +0.178 A 
ATOM     11  N   UNL     1       2.284   0.032   0.495  0.00  0.00    -0.215 NA
ATOM     12  C   UNL     1       3.324   5.139  -1.281  0.00  0.00    +0.052 C 
ENDROOT
BRANCH   9  13
ATOM     13  C   UNL     1      -1.210  -0.708   0.010  0.00  0.00    +0.052 A 
ATOM     14  C   UNL     1      -2.053  -0.629   1.110  0.00  0.00    +0.028 A 
ATOM     15  C   UNL     1      -3.249  -1.319   1.113  0.00  0.00    +0.022 A 
ATOM     16  C   UNL     1      -3.602  -2.099   0.025  0.00  0.00    +0.041 A 
ATOM     17  C   UNL     1      -2.760  -2.184  -1.070  0.00  0.00    +0.022 A 
ATOM     18  C   UNL     1      -1.566  -1.491  -1.080  0.00  0.00    +0.028 A 
ATOM     19 CL   UNL     1      -5.102  -2.972   0.035  0.00  0.00    -0.084 Cl
ENDBRANCH   9  13
BRANCH  10  20
ATOM     20  S   UNL     1       1.039  -2.249   1.114  0.00  0.00    -0.075 S 
BRANCH  20  21
ATOM     21  C   UNL     1       2.766  -2.498   1.595  0.00  0.00    +0.137 C 
ATOM     22  C   UNL     1       3.123  -1.537   2.731  0.00  0.00    +0.029 C 
BRANCH  21  23
ATOM     23  C   UNL     1       2.958  -3.918   2.060  0.00  0.00    +0.226 C 
ATOM     24  O   UNL     1       2.002  -4.575   2.413  0.00  0.00    -0.275 OA
ATOM     25  N   UNL     1       4.193  -4.458   2.085  0.00  0.00    -0.312 N 
ATOM     26  H   UNL     1       4.957  -3.933   1.803  0.00  0.00    +0.149 HD
BRANCH  25  27
ATOM     27  C   UNL     1       4.379  -5.839   2.537  0.00  0.00    +0.073 C 
ATOM     28  C   UNL     1       4.571  -5.873   4.067  0.00  0.00    +0.022 C 
ATOM     29  C   UNL     1       5.622  -6.988   4.293  0.00  0.00    +0.002 C 
ATOM     30  C   UNL     1       6.587  -6.797   3.097  0.00  0.00    +0.002 C 
ATOM     31  C   UNL     1       5.661  -6.427   1.920  0.00  0.00    +0.022 C 
ENDBRANCH  25  27
ENDBRANCH  21  23
ENDBRANCH  20  21
ENDBRANCH  10  20
TORSDOF 5
