REMARK  Name = ZINC39920254
REMARK  7 active torsions:
REMARK  status: ('A' for Active; 'I' for Inactive)
REMARK    1  A    between atoms: C_1  and  C_2
REMARK    2  A    between atoms: C_2  and  C_3
REMARK    3  A    between atoms: N_14  and  N_15
REMARK    4  A    between atoms: C_16  and  C_18
REMARK    5  A    between atoms: C_18  and  O_19
REMARK    6  A    between atoms: O_19  and  C_20
REMARK    7  A    between atoms: C_25  and  C_26
REMARK                            x       y       z     vdW  Elec       q    Type
REMARK                         _______ _______ _______ _____ _____    ______ ____
ROOT
ATOM      1  C   UNL     1       0.742  -0.511   1.242  0.00  0.00    +0.180 C 
ATOM      2  N   UNL     1       2.116   0.005   1.232  0.00  0.00    -0.324 N 
ATOM      3  C   UNL     1       3.038  -0.577   0.369  0.00  0.00    +0.041 A 
ATOM      4  C   UNL     1       4.097   0.139  -0.163  0.00  0.00    +0.025 A 
ATOM      5  C   UNL     1       4.983  -0.486  -1.019  0.00  0.00    +0.022 A 
ATOM      6  C   UNL     1       4.821  -1.823  -1.349  0.00  0.00    +0.042 A 
ATOM      7  C   UNL     1       3.771  -2.551  -0.826  0.00  0.00    +0.035 A 
ATOM      8  C   UNL     1       2.872  -1.933   0.039  0.00  0.00    +0.061 A 
ATOM      9  C   UNL     1       1.738  -2.666   0.633  0.00  0.00    +0.266 C 
ATOM     10  O   UNL     1       1.696  -3.880   0.581  0.00  0.00    -0.268 OA
ATOM     11  N   UNL     1       0.753  -1.974   1.235  0.00  0.00    -0.196 N 
ATOM     12 CL   UNL     1       5.945  -2.587  -2.429  0.00  0.00    -0.084 Cl
ATOM     13  H   UNL     1       2.375   0.736   1.815  0.00  0.00    +0.148 HD
ENDROOT
BRANCH  11  14
ATOM     14  N   UNL     1      -0.284  -2.672   1.866  0.00  0.00    -0.227 N 
ATOM     15  C   UNL     1      -1.241  -3.270   1.128  0.00  0.00    +0.267 C 
ATOM     16  O   UNL     1      -1.204  -3.203  -0.082  0.00  0.00    -0.271 OA
ATOM     17  H   UNL     1      -0.314  -2.726   2.834  0.00  0.00    +0.173 HD
BRANCH  15  18
ATOM     18  C   UNL     1      -2.357  -4.021   1.808  0.00  0.00    +0.326 C 
BRANCH  18  19
ATOM     19  O   UNL     1      -3.237  -4.561   0.820  0.00  0.00    -0.482 OA
BRANCH  19  20
ATOM     20  C   UNL     1      -4.305  -5.273   1.269  0.00  0.00    +0.124 A 
ATOM     21  C   UNL     1      -4.503  -5.443   2.631  0.00  0.00    +0.047 A 
ATOM     22  C   UNL     1      -5.589  -6.167   3.085  0.00  0.00    +0.023 A 
ATOM     23  C   UNL     1      -6.478  -6.722   2.182  0.00  0.00    +0.041 A 
ATOM     24  C   UNL     1      -6.282  -6.554   0.823  0.00  0.00    +0.027 A 
ATOM     25  C   UNL     1      -5.201  -5.825   0.365  0.00  0.00    -0.007 A 
ATOM     26  C   UNL     1      -4.991  -5.636  -1.115  0.00  0.00    +0.047 C 
ATOM     27 CL   UNL     1      -7.841  -7.632   2.755  0.00  0.00    -0.084 Cl
ENDBRANCH  19  20
ENDBRANCH  18  19
ENDBRANCH  15  18
ENDBRANCH  11  14
BRANCH   1  29
ATOM     28  C   UNL     1      -0.019   1.526   0.010  0.00  0.00    +0.007 C 
ATOM     29  C   UNL     1       0.002  -0.004   0.002  0.00  0.00    +0.040 C 
ENDBRANCH   1  29
TORSDOF 5
