REMARK  Name = ZINC39671933
REMARK  6 active torsions:
REMARK  status: ('A' for Active; 'I' for Inactive)
REMARK    1  A    between atoms: C_6  and  C_10
REMARK    2  A    between atoms: C_10  and  N_11
REMARK    3  A    between atoms: C_12  and  C_14
REMARK    4  A    between atoms: C_25  and  C_27
REMARK    5  A    between atoms: C_30  and  O_33
REMARK    6  A    between atoms: O_33  and  C_34
REMARK                            x       y       z     vdW  Elec       q    Type
REMARK                         _______ _______ _______ _____ _____    ______ ____
ROOT
ATOM      1  C   UNL     1       4.570  -5.541   3.643  0.00  0.00    +0.100 C 
ATOM      2  C   UNL     1       3.072  -5.728   3.971  0.00  0.00    +0.121 C 
ATOM      3  N   UNL     1       2.802  -7.158   3.688  0.00  0.00    -0.296 N 
ATOM      4  C   UNL     1       4.010  -7.865   4.176  0.00  0.00    +0.115 C 
ATOM      5  C   UNL     1       5.183  -6.945   3.782  0.00  0.00    -0.004 C 
ATOM      6  C   UNL     1       5.781  -7.395   2.452  0.00  0.00    -0.010 C 
ATOM      7  C   UNL     1       6.434  -8.768   2.630  0.00  0.00    -0.082 C 
ATOM      8  N   UNL     1       7.480  -8.685   3.656  0.00  0.00    +0.379 N 
ATOM      9  C   UNL     1       6.883  -8.342   4.953  0.00  0.00    -0.082 C 
ATOM     10  C   UNL     1       6.249  -6.951   4.873  0.00  0.00    -0.010 C 
ATOM     11  C   UNL     1       1.706  -7.694   3.116  0.00  0.00    +0.247 C 
ATOM     12  O   UNL     1       0.847  -6.970   2.651  0.00  0.00    -0.270 OA
ATOM     13  H   UNL     1       7.949  -9.575   3.728  0.00  0.00    -0.086 HD
ATOM     14  H   UNL     1       8.148  -7.976   3.397  0.00  0.00    -0.086 HD
ENDROOT
BRANCH  11  15
ATOM     15  C   UNL     1       1.548  -9.160   3.054  0.00  0.00    +0.037 A 
ATOM     16  C   UNL     1       2.261  -9.979   3.933  0.00  0.00    +0.016 A 
ATOM     17  C   UNL     1       2.111 -11.347   3.872  0.00  0.00    +0.047 A 
ATOM     18  C   UNL     1       1.252 -11.912   2.937  0.00  0.00    +0.130 A 
ATOM     19  C   UNL     1       0.541 -11.101   2.061  0.00  0.00    +0.047 A 
ATOM     20  C   UNL     1       0.681  -9.732   2.119  0.00  0.00    +0.016 A 
BRANCH  18  21
ATOM     21  O   UNL     1       1.107 -13.261   2.880  0.00  0.00    -0.406 OA
BRANCH  21  22
ATOM     22  C   UNL     1       0.208 -13.775   1.895  0.00  0.00    +0.575 C 
ATOM     23  F   UNL     1       0.640 -13.389   0.622  0.00  0.00    -0.133 F 
ATOM     24  F   UNL     1       0.180 -15.172   1.974  0.00  0.00    -0.133 F 
ATOM     25  F   UNL     1      -1.075 -13.269   2.126  0.00  0.00    -0.133 F 
ENDBRANCH  21  22
ENDBRANCH  18  21
ENDBRANCH  11  15
BRANCH   1  27
ATOM     26  N   UNL     1       5.855  -4.359   1.891  0.00  0.00    -0.309 N 
ATOM     27  C   UNL     1       4.739  -5.032   2.235  0.00  0.00    +0.219 C 
ATOM     28  O   UNL     1       3.871  -5.228   1.411  0.00  0.00    -0.275 OA
ATOM     29  H   UNL     1       6.550  -4.202   2.550  0.00  0.00    +0.149 HD
BRANCH  26  30
ATOM     30  C   UNL     1       6.019  -3.864   0.522  0.00  0.00    +0.161 C 
BRANCH  30  36
ATOM     31  C   UNL     1      10.916  -0.411   0.301  0.00  0.00    +0.005 A 
ATOM     32  C   UNL     1      11.511  -1.589  -0.178  0.00  0.00    +0.018 A 
ATOM     33  C   UNL     1      10.778  -2.714  -0.317  0.00  0.00    +0.092 A 
ATOM     34  N   UNL     1       9.452  -2.724   0.005  0.00  0.00    -0.306 N 
ATOM     35  C   UNL     1       8.496  -3.702  -0.038  0.00  0.00    +0.117 A 
ATOM     36  C   UNL     1       7.342  -3.152   0.400  0.00  0.00    +0.077 A 
ATOM     37  N   UNL     1       7.569  -1.873   0.707  0.00  0.00    -0.231 NA
ATOM     38  C   UNL     1       8.843  -1.589   0.476  0.00  0.00    +0.138 A 
ATOM     39  C   UNL     1       9.595  -0.407   0.626  0.00  0.00    +0.047 A 
ENDBRANCH  30  36
ENDBRANCH  26  30
ENDBRANCH   1  27
TORSDOF 6
