REMARK  Name = ZINC09242609
REMARK  9 active torsions:
REMARK  status: ('A' for Active; 'I' for Inactive)
REMARK    1  A    between atoms: C_1  and  C_2
REMARK    2  A    between atoms: C_4  and  S_8
REMARK    3  A    between atoms: S_8  and  C_9
REMARK    4  A    between atoms: C_9  and  C_26
REMARK    5  A    between atoms: C_10  and  C_11
REMARK    6  A    between atoms: C_14  and  C_16
REMARK    7  A    between atoms: C_21  and  C_22
REMARK    8  A    between atoms: C_22  and  O_24
REMARK    9  A    between atoms: O_24  and  C_25
REMARK                            x       y       z     vdW  Elec       q    Type
REMARK                         _______ _______ _______ _____ _____    ______ ____
ROOT
ATOM      1  C   UNL     1       2.674  -4.043  -0.551  0.00  0.00    +0.130 A 
ATOM      2  C   UNL     1       1.930  -3.783   0.585  0.00  0.00    +0.050 A 
ATOM      3  C   UNL     1       2.221  -2.471   0.968  0.00  0.00    +0.050 A 
ATOM      4  C   UNL     1       3.122  -1.975   0.052  0.00  0.00    +0.136 A 
ATOM      5  O   UNL     1       3.385  -2.938  -0.853  0.00  0.00    -0.455 OA
ENDROOT
BRANCH   4   6
ATOM      6  C   UNL     1       3.705  -0.624   0.064  0.00  0.00    +0.031 A 
ATOM      7  C   UNL     1       2.880   0.497   0.181  0.00  0.00    +0.012 A 
ATOM      8  C   UNL     1       3.432   1.761   0.191  0.00  0.00    +0.001 A 
ATOM      9  C   UNL     1       4.804   1.930   0.086  0.00  0.00    +0.001 A 
ATOM     10  C   UNL     1       5.637   0.838  -0.031  0.00  0.00    +0.016 A 
ATOM     11  C   UNL     1       5.101  -0.451  -0.043  0.00  0.00    +0.070 A 
BRANCH  11  12
ATOM     12  C   UNL     1       5.987  -1.622  -0.167  0.00  0.00    +0.340 C 
ATOM     13  O   UNL     1       5.515  -2.742  -0.177  0.00  0.00    -0.245 OA
BRANCH  12  14
ATOM     14  O   UNL     1       7.320  -1.451  -0.269  0.00  0.00    -0.464 OA
ATOM     15  C   UNL     1       8.131  -2.649  -0.388  0.00  0.00    +0.280 C 
ENDBRANCH  12  14
ENDBRANCH  11  12
ENDBRANCH   4   6
BRANCH   1  17
ATOM     16  C   UNL     1       2.545  -5.248  -2.627  0.00  0.00    +0.107 C 
ATOM     17  C   UNL     1       2.687  -5.259  -1.272  0.00  0.00    +0.068 C 
BRANCH  16  18
ATOM     18  C   UNL     1       2.162  -4.012  -3.314  0.00  0.00    +0.393 C 
ATOM     19  O   UNL     1       2.148  -3.972  -4.529  0.00  0.00    -0.240 OA
ATOM     20  O   UNL     1       1.825  -2.919  -2.598  0.00  0.00    -0.240 OA
ENDBRANCH  16  18
BRANCH  16  21
ATOM     21  S   UNL     1       2.821  -6.722  -3.553  0.00  0.00    -0.043 S 
BRANCH  21  25
ATOM     22  C   UNL     1      -2.252  -6.053  -4.757  0.00  0.00    +0.090 C 
ATOM     23  C   UNL     1      -0.884  -6.683  -4.697  0.00  0.00    +0.149 A 
ATOM     24  N   UNL     1       0.172  -6.177  -4.060  0.00  0.00    -0.206 NA
ATOM     25  C   UNL     1       1.207  -6.977  -4.211  0.00  0.00    +0.189 A 
ATOM     26  N   UNL     1       0.809  -8.031  -4.956  0.00  0.00    -0.253 N 
ATOM     27  H   UNL     1       1.351  -8.787  -5.230  0.00  0.00    +0.191 HD
ATOM     28  N   UNL     1      -0.546  -7.814  -5.255  0.00  0.00    -0.157 NA
ENDBRANCH  21  25
ENDBRANCH  16  21
ENDBRANCH   1  17
TORSDOF 7
