REMARK  Name = ZINC38621748
REMARK  8 active torsions:
REMARK  status: ('A' for Active; 'I' for Inactive)
REMARK    1  A    between atoms: C_1  and  C_2
REMARK    2  A    between atoms: C_5  and  N_30
REMARK    3  A    between atoms: C_7  and  S_8
REMARK    4  A    between atoms: S_8  and  N_11
REMARK    5  A    between atoms: N_11  and  C_12
REMARK    6  A    between atoms: C_12  and  C_13
REMARK    7  A    between atoms: C_13  and  C_15
REMARK    8  A    between atoms: C_13  and  N_25
REMARK                            x       y       z     vdW  Elec       q    Type
REMARK                         _______ _______ _______ _____ _____    ______ ____
ROOT
ATOM      1  C   UNL     1       2.783   3.126   1.559  0.00  0.00    -0.021 C 
ENDROOT
BRANCH   1   2
ATOM      2  C   UNL     1       2.390   4.341   0.760  0.00  0.00    -0.052 A 
ATOM      3  C   UNL     1       1.769   5.389   1.369  0.00  0.00    +0.002 A 
ATOM      4  C   UNL     1       1.398   6.521   0.646  0.00  0.00    +0.001 A 
ATOM      5  C   UNL     1       1.645   6.613  -0.689  0.00  0.00    +0.008 A 
ATOM      6  C   UNL     1       2.285   5.552  -1.352  0.00  0.00    -0.018 A 
ATOM      7  C   UNL     1       2.667   4.402  -0.616  0.00  0.00    -0.016 A 
ATOM      8  C   UNL     1       3.312   3.343  -1.278  0.00  0.00    +0.009 A 
ATOM      9  C   UNL     1       3.565   3.437  -2.612  0.00  0.00    +0.001 A 
ATOM     10  C   UNL     1       3.194   4.570  -3.334  0.00  0.00    +0.001 A 
ATOM     11  C   UNL     1       2.556   5.610  -2.730  0.00  0.00    +0.008 A 
ENDBRANCH   1   2
BRANCH   1  12
ATOM     12  N   UNL     1       2.836   3.473   2.985  0.00  0.00    +0.385 N 
ATOM     13  C   UNL     1       3.183   2.275   3.792  0.00  0.00    -0.078 C 
ATOM     14  C   UNL     1       3.742   2.881   5.104  0.00  0.00    -0.020 C 
ATOM     15  C   UNL     1       4.522   4.120   4.608  0.00  0.00    -0.020 C 
ATOM     16  C   UNL     1       3.916   4.452   3.232  0.00  0.00    -0.078 C 
ATOM     17  H   UNL     1       1.949   3.850   3.285  0.00  0.00    -0.081 HD
ENDBRANCH   1  12
BRANCH   1  18
ATOM     18  C   UNL     1       1.750   2.017   1.342  0.00  0.00    +0.095 C 
BRANCH  18  19
ATOM     19  N   UNL     1       0.454   2.447   1.873  0.00  0.00    -0.191 NA
ATOM     20  H   UNL     1       0.403   3.211   2.468  0.00  0.00    +0.148 HD
BRANCH  19  21
ATOM     21  S   UNL     1      -0.924   1.628   1.457  0.00  0.00    +0.059 S 
ATOM     22  O   UNL     1      -0.922   1.524   0.040  0.00  0.00    -0.153 OA
ATOM     23  O   UNL     1      -1.989   2.234   2.175  0.00  0.00    -0.153 OA
BRANCH  21  30
ATOM     24  C   UNL     1      -0.790   0.935   4.399  0.00  0.00    +0.046 C 
ATOM     25  C   UNL     1      -0.711  -0.230   3.446  0.00  0.00    -0.024 A 
ATOM     26  C   UNL     1      -0.591  -1.517   3.937  0.00  0.00    +0.007 A 
ATOM     27  C   UNL     1      -0.518  -2.585   3.063  0.00  0.00    +0.033 A 
ATOM     28  C   UNL     1      -0.566  -2.367   1.699  0.00  0.00    +0.128 A 
ATOM     29  C   UNL     1      -0.687  -1.081   1.208  0.00  0.00    +0.061 A 
ATOM     30  C   UNL     1      -0.764  -0.012   2.082  0.00  0.00    +0.110 A 
BRANCH  28  31
ATOM     31  N   UNL     1      -0.487  -3.511   0.763  0.00  0.00    +0.056 N 
ATOM     32  O   UNL     1      -0.381  -4.637   1.192  0.00  0.00    -0.126 OA
ATOM     33  O   UNL     1      -0.529  -3.321  -0.430  0.00  0.00    -0.126 OA
ENDBRANCH  28  31
ENDBRANCH  21  30
ENDBRANCH  19  21
ENDBRANCH  18  19
ENDBRANCH   1  18
TORSDOF 7
