REMARK  Name = ZINC12860729
REMARK  7 active torsions:
REMARK  status: ('A' for Active; 'I' for Inactive)
REMARK    1  A    between atoms: C_3  and  N_26
REMARK    2  A    between atoms: C_4  and  C_10
REMARK    3  A    between atoms: C_6  and  N_7
REMARK    4  A    between atoms: N_12  and  C_13
REMARK    5  A    between atoms: C_13  and  N_15
REMARK    6  A    between atoms: N_15  and  C_16
REMARK    7  A    between atoms: C_17  and  C_24
REMARK                            x       y       z     vdW  Elec       q    Type
REMARK                         _______ _______ _______ _____ _____    ______ ____
ROOT
ATOM      1  C   UNL     1      -2.009   1.207   3.042  0.00  0.00    +0.251 C 
ATOM      2  O   UNL     1      -1.408   0.761   2.085  0.00  0.00    -0.270 OA
ATOM      3  N   UNL     1      -2.671   0.375   3.870  0.00  0.00    -0.263 N 
ATOM      4  H   UNL     1      -3.150   0.731   4.635  0.00  0.00    +0.157 HD
ENDROOT
BRANCH   1   8
ATOM      5  C   UNL     1      -2.030   5.392   3.777  0.00  0.00    +0.034 A 
ATOM      6  C   UNL     1      -1.435   4.906   2.631  0.00  0.00    +0.026 A 
ATOM      7  C   UNL     1      -1.419   3.539   2.381  0.00  0.00    +0.042 A 
ATOM      8  C   UNL     1      -2.015   2.658   3.298  0.00  0.00    +0.060 A 
ATOM      9  C   UNL     1      -2.608   3.166   4.457  0.00  0.00    +0.047 A 
ATOM     10  C   UNL     1      -2.615   4.524   4.687  0.00  0.00    +0.127 A 
BRANCH   7  11
ATOM     11  N   UNL     1      -0.822   3.048   1.228  0.00  0.00    -0.325 N 
ATOM     12  C   UNL     1      -1.458   3.607   0.026  0.00  0.00    +0.133 C 
ATOM     13  C   UNL     1      -0.809   2.995  -1.219  0.00  0.00    +0.178 C 
ATOM     14  O   UNL     1       0.600   3.241  -1.187  0.00  0.00    -0.377 OA
ATOM     15  C   UNL     1       1.250   2.709  -0.030  0.00  0.00    +0.178 C 
ATOM     16  C   UNL     1       0.624   3.318   1.227  0.00  0.00    +0.133 C 
ENDBRANCH   7  11
BRANCH  10  17
ATOM     17  N   UNL     1      -3.249   5.060   5.912  0.00  0.00    +0.056 N 
ATOM     18  O   UNL     1      -3.257   6.261   6.119  0.00  0.00    -0.126 OA
ATOM     19  O   UNL     1      -3.764   4.301   6.713  0.00  0.00    -0.126 OA
ENDBRANCH  10  17
ENDBRANCH   1   8
BRANCH   3  20
ATOM     20  C   UNL     1      -2.666  -0.953   3.637  0.00  0.00    +0.141 C 
ATOM     21  S   UNL     1      -1.819  -1.581   2.288  0.00  0.00    -0.018 S 
BRANCH  20  22
ATOM     22  N   UNL     1      -3.327  -1.785   4.465  0.00  0.00    -0.290 N 
ATOM     23  H   UNL     1      -3.807  -1.429   5.229  0.00  0.00    +0.154 HD
BRANCH  22  24
ATOM     24  C   UNL     1      -3.322  -3.151   4.224  0.00  0.00    +0.089 A 
ATOM     25  C   UNL     1      -3.931  -4.156   4.956  0.00  0.00    +0.084 A 
ATOM     26  C   UNL     1      -3.773  -5.530   4.483  0.00  0.00    -0.018 A 
ATOM     27  C   UNL     1      -3.030  -5.669   3.369  0.00  0.00    -0.004 A 
ATOM     28  S   UNL     1      -2.546  -4.014   2.941  0.00  0.00    -0.077 S 
ATOM     29  C   UNL     1      -2.911  -7.108   2.946  0.00  0.00    +0.043 C 
ATOM     30  C   UNL     1      -4.045  -7.831   3.706  0.00  0.00    +0.010 C 
ATOM     31  C   UNL     1      -4.236  -6.917   4.932  0.00  0.00    +0.037 C 
BRANCH  25  32
ATOM     32  C   UNL     1      -4.692  -3.859   6.133  0.00  0.00    +0.102 C 
ATOM     33  N   UNL     1      -5.295  -3.624   7.066  0.00  0.00    -0.191 NA
ENDBRANCH  25  32
ENDBRANCH  22  24
ENDBRANCH  20  22
ENDBRANCH   3  20
TORSDOF 7
