REMARK  Name = ZINC09874249
REMARK  13 active torsions:
REMARK  status: ('A' for Active; 'I' for Inactive)
REMARK    1  A    between atoms: C_1  and  C_2
REMARK    2  A    between atoms: C_3  and  C_31
REMARK    3  A    between atoms: C_4  and  C_30
REMARK    4  A    between atoms: C_7  and  C_8
REMARK    5  A    between atoms: C_8  and  C_10
REMARK    6  A    between atoms: C_10  and  C_12
REMARK    7  A    between atoms: C_10  and  S_13
REMARK    8  A    between atoms: S_13  and  C_14
REMARK    9  A    between atoms: C_17  and  C_25
REMARK   10  A    between atoms: N_18  and  C_19
REMARK   11  A    between atoms: C_25  and  N_62
REMARK   12  A    between atoms: C_31  and  O_33
REMARK   13  A    between atoms: O_33  and  C_34
REMARK                            x       y       z     vdW  Elec       q    Type
REMARK                         _______ _______ _______ _____ _____    ______ ____
ROOT
ATOM      1  C   UNL     1      -2.048   1.736   2.969  0.00  0.00    +0.197 A 
ATOM      2  N   UNL     1      -1.266   2.788   2.898  0.00  0.00    -0.122 NA
ATOM      3  N   UNL     1      -0.482   2.683   1.886  0.00  0.00    -0.135 NA
ATOM      4  C   UNL     1      -0.718   1.572   1.248  0.00  0.00    +0.122 A 
ATOM      5  N   UNL     1      -1.723   0.924   1.917  0.00  0.00    -0.276 N 
ENDROOT
BRANCH   5   6
ATOM      6  C   UNL     1      -2.298  -0.313   1.591  0.00  0.00    +0.050 A 
ATOM      7  C   UNL     1      -3.017  -0.457   0.413  0.00  0.00    +0.026 A 
ATOM      8  C   UNL     1      -3.577  -1.678   0.092  0.00  0.00    +0.002 A 
ATOM      9  C   UNL     1      -3.432  -2.753   0.949  0.00  0.00    +0.000 A 
ATOM     10  C   UNL     1      -2.721  -2.611   2.127  0.00  0.00    +0.002 A 
ATOM     11  C   UNL     1      -2.154  -1.394   2.450  0.00  0.00    +0.026 A 
ENDBRANCH   5   6
BRANCH   1  12
ATOM     12  S   UNL     1      -3.281   1.427   4.189  0.00  0.00    -0.074 S 
BRANCH  12  13
ATOM     13  C   UNL     1      -3.105   2.918   5.199  0.00  0.00    +0.124 C 
ATOM     14  C   UNL     1      -3.498   4.144   4.372  0.00  0.00    +0.028 C 
BRANCH  13  15
ATOM     15  C   UNL     1      -4.002   2.817   6.405  0.00  0.00    +0.192 C 
ATOM     16  O   UNL     1      -4.992   2.114   6.369  0.00  0.00    -0.289 OA
BRANCH  15  23
ATOM     17  C   UNL     1      -5.692   2.772   9.014  0.00  0.00    +0.047 C 
ATOM     18  C   UNL     1      -4.423   3.540   8.750  0.00  0.00    -0.008 A 
ATOM     19  C   UNL     1      -3.752   4.394   9.652  0.00  0.00    +0.083 A 
ATOM     20  C   UNL     1      -2.636   4.885   8.997  0.00  0.00    +0.028 A 
ATOM     21  N   UNL     1      -2.601   4.368   7.760  0.00  0.00    -0.355 N 
ATOM     22  H   UNL     1      -1.919   4.549   7.095  0.00  0.00    +0.166 HD
ATOM     23  C   UNL     1      -3.692   3.541   7.581  0.00  0.00    +0.087 A 
ATOM     24  C   UNL     1      -1.625   5.838   9.580  0.00  0.00    +0.064 C 
BRANCH  19  25
ATOM     25  C   UNL     1      -4.164   4.704  11.031  0.00  0.00    +0.341 C 
ATOM     26  O   UNL     1      -3.768   4.017  11.953  0.00  0.00    -0.245 OA
BRANCH  25  27
ATOM     27  O   UNL     1      -4.979   5.750  11.273  0.00  0.00    -0.464 OA
ATOM     28  C   UNL     1      -5.343   5.997  12.656  0.00  0.00    +0.280 C 
ENDBRANCH  25  27
ENDBRANCH  19  25
ENDBRANCH  15  23
ENDBRANCH  13  15
ENDBRANCH  12  13
ENDBRANCH   1  12
BRANCH   4  29
ATOM     29  C   UNL     1      -0.013   1.086   0.008  0.00  0.00    -0.001 C 
BRANCH  29  34
ATOM     30  C   UNL     1      -0.919   3.043  -1.121  0.00  0.00    -0.078 C 
ATOM     31  C   UNL     1      -1.170   3.430  -2.600  0.00  0.00    -0.020 C 
ATOM     32  C   UNL     1      -0.211   2.493  -3.369  0.00  0.00    -0.020 C 
ATOM     33  C   UNL     1       0.064   1.321  -2.409  0.00  0.00    -0.078 C 
ATOM     34  N   UNL     1      -0.725   1.587  -1.205  0.00  0.00    +0.384 N 
ATOM     35  H   UNL     1      -1.637   1.120  -1.278  0.00  0.00    -0.081 HD
ENDBRANCH  29  34
ENDBRANCH   4  29
TORSDOF 9
