REMARK  Name = ZINC39710903
REMARK  9 active torsions:
REMARK  status: ('A' for Active; 'I' for Inactive)
REMARK    1  A    between atoms: C_1  and  C_2
REMARK    2  A    between atoms: C_8  and  C_14
REMARK    3  A    between atoms: C_14  and  C_16
REMARK    4  A    between atoms: C_14  and  N_27
REMARK    5  A    between atoms: N_21  and  C_22
REMARK    6  A    between atoms: N_27  and  C_28
REMARK    7  A    between atoms: N_27  and  C_35
REMARK    8  A    between atoms: C_28  and  C_29
REMARK    9  A    between atoms: C_35  and  C_36
REMARK                            x       y       z     vdW  Elec       q    Type
REMARK                         _______ _______ _______ _____ _____    ______ ____
ROOT
ATOM      1  C   UNL     1       1.133  -2.722   4.307  0.00  0.00    -0.009 C 
ENDROOT
BRANCH   1   9
ATOM      2  C   UNL     1       1.111   1.869   0.233  0.00  0.00    +0.045 C 
ATOM      3  C   UNL     1       1.061   0.374   0.051  0.00  0.00    -0.029 A 
ATOM      4  C   UNL     1       1.316  -0.166  -1.170  0.00  0.00    +0.005 A 
ATOM      5  C   UNL     1       1.287  -1.541  -1.406  0.00  0.00    +0.001 A 
ATOM      6  C   UNL     1       0.997  -2.422  -0.415  0.00  0.00    +0.009 A 
ATOM      7  C   UNL     1       0.712  -1.909   0.925  0.00  0.00    -0.007 A 
ATOM      8  C   UNL     1       0.417  -2.757   1.951  0.00  0.00    -0.006 C 
ATOM      9  C   UNL     1       0.135  -2.137   3.306  0.00  0.00    +0.088 C 
ATOM     10  C   UNL     1       0.204  -0.630   3.409  0.00  0.00    +0.223 C 
ATOM     11  O   UNL     1      -0.013  -0.080   4.472  0.00  0.00    -0.275 OA
ATOM     12  N   UNL     1       0.501   0.088   2.339  0.00  0.00    -0.284 N 
ATOM     13  C   UNL     1       0.756  -0.453   1.147  0.00  0.00    +0.043 A 
ATOM     14  H   UNL     1       0.541   1.053   2.426  0.00  0.00    +0.155 HD
ENDBRANCH   1   9
BRANCH   1  15
ATOM     15  C   UNL     1       0.847  -4.212   4.502  0.00  0.00    +0.205 C 
ATOM     16  N   UNL     1       1.935  -4.848   5.257  0.00  0.00    -0.152 NA
ATOM     17  N   UNL     1       2.449  -5.722   4.555  0.00  0.00    -0.070 NA
ATOM     18  N   UNL     1       1.853  -5.829   3.299  0.00  0.00    -0.179 N 
ATOM     19  N   UNL     1       0.838  -4.910   3.200  0.00  0.00    -0.185 NA
ATOM     20  H   UNL     1       2.114  -6.455   2.605  0.00  0.00    +0.191 HD
BRANCH  19  21
ATOM     21  C   UNL     1      -0.453  -5.572   2.966  0.00  0.00    +0.080 C 
ATOM     22  C   UNL     1      -0.692  -6.657   4.036  0.00  0.00    +0.021 C 
ATOM     23  C   UNL     1      -1.395  -7.802   3.264  0.00  0.00    +0.002 C 
ATOM     24  C   UNL     1      -0.669  -7.788   1.896  0.00  0.00    +0.002 C 
ATOM     25  C   UNL     1      -0.438  -6.291   1.605  0.00  0.00    +0.021 C 
ENDBRANCH  19  21
ENDBRANCH   1  15
BRANCH   1  26
ATOM     26  N   UNL     1       1.002  -2.025   5.593  0.00  0.00    +0.390 N 
ATOM     27  H   UNL     1       1.090  -1.030   5.448  0.00  0.00    -0.080 HD
BRANCH  26  28
ATOM     28  C   UNL     1       2.057  -2.482   6.508  0.00  0.00    -0.042 C 
BRANCH  28  29
ATOM     29  C   UNL     1       3.399  -2.029   5.991  0.00  0.00    -0.064 A 
ATOM     30  C   UNL     1       4.099  -2.821   5.100  0.00  0.00    +0.002 A 
ATOM     31  C   UNL     1       5.330  -2.406   4.626  0.00  0.00    +0.000 A 
ATOM     32  C   UNL     1       5.860  -1.200   5.044  0.00  0.00    +0.000 A 
ATOM     33  C   UNL     1       5.160  -0.408   5.934  0.00  0.00    +0.000 A 
ATOM     34  C   UNL     1       3.927  -0.821   6.404  0.00  0.00    +0.002 A 
ENDBRANCH  28  29
ENDBRANCH  26  28
BRANCH  26  35
ATOM     35  C   UNL     1      -0.313  -2.320   6.178  0.00  0.00    -0.040 C 
BRANCH  35  36
ATOM     36  C   UNL     1      -0.509  -1.489   7.419  0.00  0.00    -0.046 A 
ATOM     37  C   UNL     1      -0.107  -1.969   8.657  0.00  0.00    +0.005 A 
ATOM     38  C   UNL     1      -0.307  -1.170   9.771  0.00  0.00    +0.020 A 
ATOM     39  C   UNL     1      -0.897   0.070   9.614  0.00  0.00    +0.111 A 
ATOM     40  N   UNL     1      -1.267   0.495   8.422  0.00  0.00    -0.263 NA
ATOM     41  C   UNL     1      -1.087  -0.236   7.339  0.00  0.00    +0.112 A 
ENDBRANCH  35  36
ENDBRANCH  26  35
ENDBRANCH   1  26
TORSDOF 8
