REMARK  Name = ZINC45410353
REMARK  4 active torsions:
REMARK  status: ('A' for Active; 'I' for Inactive)
REMARK    1  A    between atoms: C_5  and  C_6
REMARK    2  A    between atoms: N_8  and  N_9
REMARK    3  A    between atoms: N_12  and  C_13
REMARK    4  A    between atoms: N_16  and  C_19
REMARK                            x       y       z     vdW  Elec       q    Type
REMARK                         _______ _______ _______ _____ _____    ______ ____
ROOT
ATOM      1  N   UNL     1      -1.959  -3.175  -0.039  0.00  0.00    -0.218 N 
ATOM      2  C   UNL     1      -1.724  -4.502  -0.044  0.00  0.00    +0.316 C 
ATOM      3  O   UNL     1      -2.655  -5.284  -0.060  0.00  0.00    -0.251 OA
ATOM      4  N   UNL     1      -0.458  -4.962  -0.032  0.00  0.00    -0.296 N 
ATOM      5  H   UNL     1      -2.870  -2.843  -0.049  0.00  0.00    +0.174 HD
ATOM      6  H   UNL     1       0.285  -4.339  -0.019  0.00  0.00    +0.151 HD
ENDROOT
BRANCH   4   7
ATOM      7  C   UNL     1      -0.203  -6.405  -0.037  0.00  0.00    +0.071 C 
ATOM      8  C   UNL     1      -0.245  -6.938   1.399  0.00  0.00    +0.004 C 
ATOM      9  C   UNL     1       0.100  -8.428   1.394  0.00  0.00    -0.077 C 
ATOM     10  N   UNL     1       1.445  -8.621   0.838  0.00  0.00    +0.382 N 
ATOM     11  C   UNL     1       1.474  -8.179  -0.561  0.00  0.00    -0.077 C 
ATOM     12  C   UNL     1       1.182  -6.678  -0.632  0.00  0.00    +0.004 C 
ATOM     13  H   UNL     1       2.110  -8.083   1.374  0.00  0.00    -0.081 HD
BRANCH  10  14
ATOM     14  C   UNL     1       1.803 -10.044   0.908  0.00  0.00    -0.069 C 
ATOM     15  C   UNL     1       2.913 -10.447   1.881  0.00  0.00    -0.017 C 
ATOM     16  C   UNL     1       3.176 -10.454   0.374  0.00  0.00    -0.017 C 
ENDBRANCH  10  14
ENDBRANCH   4   7
BRANCH   1  19
ATOM     17  C   UNL     1      -1.120  -0.947  -0.017  0.00  0.00    +0.267 C 
ATOM     18  O   UNL     1      -2.264  -0.531  -0.028  0.00  0.00    -0.268 OA
ATOM     19  N   UNL     1      -0.886  -2.274  -0.021  0.00  0.00    -0.229 N 
ATOM     20  H   UNL     1       0.026  -2.605  -0.012  0.00  0.00    +0.173 HD
BRANCH  17  25
ATOM     21  C   UNL     1      -0.017   1.373   0.010  0.00  0.00    +0.024 A 
ATOM     22  C   UNL     1       1.220   2.026   0.001  0.00  0.00    -0.036 A 
ATOM     23  C   UNL     1       2.318   1.249  -0.055  0.00  0.00    -0.006 A 
ATOM     24  S   UNL     1       1.751  -0.336   0.022  0.00  0.00    -0.088 S 
ATOM     25  C   UNL     1       0.002  -0.004   0.002  0.00  0.00    +0.076 A 
ATOM     26  C   UNL     1       3.782   1.565  -0.240  0.00  0.00    +0.043 C 
ATOM     27  C   UNL     1       4.036   3.063  -0.409  0.00  0.00    +0.005 C 
ATOM     28  C   UNL     1       4.022   3.772   0.935  0.00  0.00    +0.000 C 
ATOM     29  C   UNL     1       2.973   3.221   1.880  0.00  0.00    +0.000 C 
ATOM     30  C   UNL     1       1.654   3.921   1.538  0.00  0.00    +0.005 C 
ATOM     31  C   UNL     1       1.248   3.543   0.113  0.00  0.00    +0.036 C 
ENDBRANCH  17  25
ENDBRANCH   1  19
TORSDOF 4
