REMARK  Name = ZINC20573076
REMARK  12 active torsions:
REMARK  status: ('A' for Active; 'I' for Inactive)
REMARK    1  A    between atoms: C_1  and  C_2
REMARK    2  A    between atoms: C_2  and  C_3
REMARK    3  A    between atoms: C_3  and  C_5
REMARK    4  A    between atoms: C_3  and  S_16
REMARK    5  A    between atoms: C_11  and  C_13
REMARK    6  A    between atoms: C_13  and  C_14
REMARK    7  A    between atoms: C_13  and  C_15
REMARK    8  A    between atoms: S_16  and  C_17
REMARK    9  A    between atoms: C_22  and  C_33
REMARK   10  A    between atoms: C_23  and  C_25
REMARK   11  A    between atoms: C_28  and  O_31
REMARK   12  A    between atoms: O_31  and  C_32
REMARK                            x       y       z     vdW  Elec       q    Type
REMARK                         _______ _______ _______ _____ _____    ______ ____
ROOT
ATOM      1  C   UNL     1      -2.626   0.989  -1.330  0.00  0.00    +0.170 A 
ATOM      2  N   UNL     1      -3.575   0.934  -2.305  0.00  0.00    -0.301 N 
ATOM      3  H   UNL     1      -3.485   1.572  -3.197  0.00  0.00    +0.171 HD
ATOM      4  C   UNL     1      -4.630   0.100  -2.184  0.00  0.00    +0.270 A 
ATOM      5  O   UNL     1      -5.483   0.046  -3.053  0.00  0.00    -0.266 OA
ATOM      6  C   UNL     1      -4.724  -0.712  -1.025  0.00  0.00    +0.142 A 
ATOM      7  C   UNL     1      -3.710  -0.608  -0.053  0.00  0.00    +0.096 A 
ATOM      8  N   UNL     1      -2.696   0.238  -0.248  0.00  0.00    -0.222 NA
ENDROOT
BRANCH   7   9
ATOM      9  C   UNL     1      -3.765  -1.434   1.171  0.00  0.00    +0.002 A 
ATOM     10  C   UNL     1      -2.638  -2.148   1.586  0.00  0.00    +0.013 A 
ATOM     11  C   UNL     1      -2.692  -2.913   2.730  0.00  0.00    +0.046 A 
ATOM     12  C   UNL     1      -3.869  -2.984   3.466  0.00  0.00    +0.120 A 
ATOM     13  C   UNL     1      -4.994  -2.280   3.054  0.00  0.00    +0.046 A 
ATOM     14  C   UNL     1      -4.947  -1.508   1.913  0.00  0.00    +0.013 A 
BRANCH  12  15
ATOM     15  O   UNL     1      -3.921  -3.744   4.589  0.00  0.00    -0.495 OA
ATOM     16  C   UNL     1      -2.728  -4.442   4.955  0.00  0.00    +0.277 C 
ENDBRANCH  12  15
ENDBRANCH   7   9
BRANCH   6  17
ATOM     17  C   UNL     1      -5.822  -1.614  -0.847  0.00  0.00    +0.107 C 
ATOM     18  N   UNL     1      -6.693  -2.329  -0.707  0.00  0.00    -0.191 NA
ENDBRANCH   6  17
BRANCH   1  19
ATOM     19  S   UNL     1      -1.264   2.090  -1.521  0.00  0.00    -0.075 S 
BRANCH  19  20
ATOM     20  C   UNL     1      -0.435   1.844   0.069  0.00  0.00    +0.140 C 
BRANCH  20  21
ATOM     21  C   UNL     1      -1.286   2.419   1.173  0.00  0.00    +0.232 C 
ATOM     22  O   UNL     1      -2.138   3.242   0.915  0.00  0.00    -0.274 OA
ATOM     23  N   UNL     1      -1.099   2.018   2.446  0.00  0.00    -0.262 N 
ATOM     24  C   UNL     1      -1.883   2.548   3.464  0.00  0.00    +0.188 A 
ATOM     25  N   UNL     1      -2.854   3.443   3.400  0.00  0.00    -0.126 NA
ATOM     26  N   UNL     1      -3.478   3.825   4.429  0.00  0.00    -0.144 NA
ATOM     27  C   UNL     1      -3.178   3.338   5.616  0.00  0.00    +0.106 A 
ATOM     28  S   UNL     1      -1.862   2.211   5.170  0.00  0.00    -0.035 S 
ATOM     29  H   UNL     1      -0.325   1.272   2.679  0.00  0.00    +0.157 HD
BRANCH  27  30
ATOM     30  C   UNL     1      -3.777   3.639   6.966  0.00  0.00    +0.040 C 
ATOM     31  C   UNL     1      -3.602   5.126   7.282  0.00  0.00    +0.014 C 
ATOM     32  C   UNL     1      -5.268   3.294   6.950  0.00  0.00    +0.014 C 
ENDBRANCH  27  30
ENDBRANCH  20  21
BRANCH  20  34
ATOM     33  C   UNL     1       1.837   1.870  -0.970  0.00  0.00    +0.005 C 
ATOM     34  C   UNL     1       0.922   2.550   0.051  0.00  0.00    +0.020 C 
ENDBRANCH  20  34
ENDBRANCH  19  20
ENDBRANCH   1  19
TORSDOF 8
