REMARK  Name = ZINC36206036
REMARK  18 active torsions:
REMARK  status: ('A' for Active; 'I' for Inactive)
REMARK    1  A    between atoms: C_1  and  C_2
REMARK    2  A    between atoms: C_2  and  C_3
REMARK    3  A    between atoms: C_3  and  C_4
REMARK    4  A    between atoms: C_4  and  C_6
REMARK    5  A    between atoms: C_4  and  O_35
REMARK    6  A    between atoms: C_6  and  N_7
REMARK    7  A    between atoms: N_7  and  C_8
REMARK    8  A    between atoms: N_7  and  C_13
REMARK    9  A    between atoms: C_8  and  C_9
REMARK   10  A    between atoms: C_9  and  C_10
REMARK   11  A    between atoms: C_10  and  C_11
REMARK   12  A    between atoms: C_10  and  C_12
REMARK   13  A    between atoms: C_13  and  C_14
REMARK   14  A    between atoms: C_20  and  C_25
REMARK   15  A    between atoms: C_28  and  O_33
REMARK   16  A    between atoms: C_29  and  O_31
REMARK   17  A    between atoms: O_31  and  C_32
REMARK   18  A    between atoms: O_33  and  C_34
REMARK                            x       y       z     vdW  Elec       q    Type
REMARK                         _______ _______ _______ _____ _____    ______ ____
ROOT
ATOM      1  C   UNL     1       3.214  -5.948  -2.516  0.00  0.00    +0.094 A 
ATOM      2  N   UNL     1       4.273  -6.631  -3.021  0.00  0.00    -0.312 N 
ATOM      3  H   UNL     1       4.715  -6.301  -3.819  0.00  0.00    +0.170 HD
ATOM      4  C   UNL     1       4.723  -7.756  -2.435  0.00  0.00    +0.260 A 
ATOM      5  O   UNL     1       5.676  -8.357  -2.900  0.00  0.00    -0.267 OA
ATOM      6  C   UNL     1       4.066  -8.235  -1.257  0.00  0.00    +0.080 A 
ATOM      7  C   UNL     1       4.361  -9.413  -0.450  0.00  0.00    +0.004 A 
ATOM      8  C   UNL     1       3.593  -9.668   0.636  0.00  0.00    +0.056 A 
ATOM      9  S   UNL     1       2.418  -8.328   0.635  0.00  0.00    -0.076 S 
ATOM     10  C   UNL     1       2.981  -7.464  -0.809  0.00  0.00    +0.116 A 
ATOM     11  N   UNL     1       2.597  -6.357  -1.440  0.00  0.00    -0.229 NA
ENDROOT
BRANCH   7  12
ATOM     12  C   UNL     1       5.481 -10.315  -0.812  0.00  0.00    -0.013 A 
ATOM     13  C   UNL     1       5.603 -10.788  -2.117  0.00  0.00    +0.012 A 
ATOM     14  C   UNL     1       6.646 -11.627  -2.453  0.00  0.00    +0.050 A 
ATOM     15  C   UNL     1       7.575 -12.001  -1.494  0.00  0.00    +0.162 A 
ATOM     16  C   UNL     1       7.458 -11.532  -0.188  0.00  0.00    +0.162 A 
ATOM     17  C   UNL     1       6.418 -10.686   0.152  0.00  0.00    +0.058 A 
BRANCH  16  18
ATOM     18  O   UNL     1       8.370 -11.900   0.751  0.00  0.00    -0.491 OA
ATOM     19  C   UNL     1       8.189 -11.381   2.070  0.00  0.00    +0.277 C 
ENDBRANCH  16  18
BRANCH  15  20
ATOM     20  O   UNL     1       8.601 -12.829  -1.829  0.00  0.00    -0.491 OA
ATOM     21  C   UNL     1       8.659 -13.274  -3.186  0.00  0.00    +0.277 C 
ENDBRANCH  15  20
ENDBRANCH   7  12
BRANCH   1  22
ATOM     22  C   UNL     1       2.745  -4.693  -3.206  0.00  0.00    -0.003 C 
BRANCH  22  23
ATOM     23  N   UNL     1       1.557  -4.170  -2.518  0.00  0.00    +0.386 N 
ATOM     24  H   UNL     1       1.757  -4.063  -1.535  0.00  0.00    -0.081 HD
BRANCH  23  25
ATOM     25  C   UNL     1       1.195  -2.865  -3.089  0.00  0.00    -0.047 C 
BRANCH  25  26
ATOM     26  C   UNL     1       0.046  -2.257  -2.282  0.00  0.00    +0.098 C 
BRANCH  26  27
ATOM     27  O   UNL     1      -1.137  -3.035  -2.478  0.00  0.00    -0.394 OA
ATOM     28  H   UNL     1      -1.428  -3.083  -3.399  0.00  0.00    +0.210 HD
ENDBRANCH  26  27
BRANCH  26  29
ATOM     29  C   UNL     1      -0.203  -0.823  -2.752  0.00  0.00    +0.029 C 
BRANCH  29  31
ATOM     30  C   UNL     1      -1.516   1.262  -2.333  0.00  0.00    +0.004 C 
ATOM     31  C   UNL     1      -1.266  -0.173  -1.864  0.00  0.00    -0.001 C 
ENDBRANCH  29  31
ENDBRANCH  26  29
ENDBRANCH  25  26
ENDBRANCH  23  25
BRANCH  23  32
ATOM     32  C   UNL     1       0.439  -5.107  -2.692  0.00  0.00    -0.078 C 
BRANCH  32  33
ATOM     33  C   UNL     1       0.033  -5.150  -4.166  0.00  0.00    -0.016 C 
BRANCH  33  34
ATOM     34  C   UNL     1      -1.202  -6.037  -4.329  0.00  0.00    -0.019 C 
ATOM     35  C   UNL     1      -1.683  -5.981  -5.781  0.00  0.00    +0.007 C 
ATOM     36  C   UNL     1      -0.845  -7.480  -3.966  0.00  0.00    +0.007 C 
ENDBRANCH  33  34
ENDBRANCH  32  33
ENDBRANCH  23  32
ENDBRANCH  22  23
ENDBRANCH   1  22
TORSDOF 13
