REMARK  Name = ZINC37060033
REMARK  5 active torsions:
REMARK  status: ('A' for Active; 'I' for Inactive)
REMARK    1  A    between atoms: C_1  and  C_2
REMARK    2  A    between atoms: C_2  and  C_4
REMARK    3  A    between atoms: C_2  and  N_12
REMARK    4  A    between atoms: N_12  and  C_13
REMARK    5  A    between atoms: C_15  and  N_20
REMARK                            x       y       z     vdW  Elec       q    Type
REMARK                         _______ _______ _______ _____ _____    ______ ____
ROOT
ATOM      1  N   UNL     1       0.811  -0.456  -1.132  0.00  0.00    -0.336 N 
ATOM      2  H   UNL     1       0.389  -0.641  -1.986  0.00  0.00    +0.147 HD
ENDROOT
BRANCH   1   3
ATOM      3  C   UNL     1       2.191  -0.622  -0.985  0.00  0.00    +0.048 A 
ATOM      4  C   UNL     1       2.796  -0.364   0.239  0.00  0.00    +0.057 A 
ATOM      5  C   UNL     1       4.160  -0.528   0.382  0.00  0.00    +0.128 A 
ATOM      6  C   UNL     1       4.923  -0.950  -0.691  0.00  0.00    +0.034 A 
ATOM      7  C   UNL     1       4.325  -1.208  -1.911  0.00  0.00    +0.024 A 
ATOM      8  C   UNL     1       2.960  -1.051  -2.060  0.00  0.00    +0.062 A 
ATOM      9 CL   UNL     1       2.209  -1.382  -3.589  0.00  0.00    -0.082 Cl
BRANCH   5  10
ATOM     10  N   UNL     1       4.805  -0.253   1.685  0.00  0.00    +0.056 N 
ATOM     11  O   UNL     1       4.138   0.116   2.623  0.00  0.00    -0.126 OA
ATOM     12  O   UNL     1       5.998  -0.397   1.811  0.00  0.00    -0.126 OA
ENDBRANCH   5  10
ENDBRANCH   1   3
BRANCH   1  14
ATOM     13  C   UNL     1       0.020   1.525   0.064  0.00  0.00    +0.033 C 
ATOM     14  C   UNL     1       0.002  -0.004   0.002  0.00  0.00    +0.099 C 
BRANCH  14  15
ATOM     15  C   UNL     1      -1.416  -0.483  -0.170  0.00  0.00    -0.008 A 
ATOM     16  C   UNL     1      -1.920  -0.712  -1.437  0.00  0.00    +0.027 A 
ATOM     17  C   UNL     1      -3.222  -1.152  -1.594  0.00  0.00    +0.041 A 
ATOM     18  C   UNL     1      -4.020  -1.363  -0.484  0.00  0.00    +0.021 A 
ATOM     19  C   UNL     1      -3.517  -1.135   0.782  0.00  0.00    +0.022 A 
ATOM     20  C   UNL     1      -2.212  -0.701   0.941  0.00  0.00    +0.046 A 
ATOM     21 CL   UNL     1      -1.577  -0.421   2.532  0.00  0.00    -0.083 Cl
ATOM     22 CL   UNL     1      -3.855  -1.438  -3.185  0.00  0.00    -0.084 Cl
ENDBRANCH  14  15
ENDBRANCH   1  14
TORSDOF 4
