REMARK  Name = ZINC33937332
REMARK  13 active torsions:
REMARK  status: ('A' for Active; 'I' for Inactive)
REMARK    1  A    between atoms: C_1  and  C_2
REMARK    2  A    between atoms: C_4  and  C_39
REMARK    3  A    between atoms: C_9  and  C_14
REMARK    4  A    between atoms: C_14  and  N_15
REMARK    5  A    between atoms: N_15  and  C_16
REMARK    6  A    between atoms: N_15  and  C_23
REMARK    7  A    between atoms: C_16  and  C_17
REMARK    8  A    between atoms: C_23  and  C_25
REMARK    9  A    between atoms: C_23  and  C_36
REMARK   10  A    between atoms: N_29  and  C_30
REMARK   11  A    between atoms: C_30  and  C_31
REMARK   12  A    between atoms: C_36  and  C_37
REMARK   13  A    between atoms: C_36  and  C_38
REMARK                            x       y       z     vdW  Elec       q    Type
REMARK                         _______ _______ _______ _____ _____    ______ ____
ROOT
ATOM      1  N   UNL     1      -0.336  -5.359   4.293  0.00  0.00    +0.391 N 
ATOM      2  H   UNL     1      -0.616  -5.562   3.345  0.00  0.00    -0.080 HD
ENDROOT
BRANCH   1   3
ATOM      3  C   UNL     1       1.073  -4.943   4.308  0.00  0.00    -0.036 C 
BRANCH   3  12
ATOM      4  C   UNL     1       3.730  -5.906  11.210  0.00  0.00    +0.044 C 
ATOM      5  C   UNL     1       3.140  -5.023  10.140  0.00  0.00    -0.050 A 
ATOM      6  C   UNL     1       2.909  -3.680  10.405  0.00  0.00    +0.008 A 
ATOM      7  C   UNL     1       2.371  -2.855   9.441  0.00  0.00    -0.026 A 
ATOM      8  C   UNL     1       2.056  -3.371   8.189  0.00  0.00    +0.052 A 
ATOM      9  C   UNL     1       2.292  -4.733   7.923  0.00  0.00    -0.001 A 
ATOM     10  C   UNL     1       2.843  -5.551   8.915  0.00  0.00    +0.013 A 
ATOM     11  C   UNL     1       1.957  -5.267   6.601  0.00  0.00    +0.017 A 
ATOM     12  C   UNL     1       1.429  -4.426   5.678  0.00  0.00    +0.001 A 
ATOM     13  C   UNL     1       1.212  -3.068   5.995  0.00  0.00    +0.251 A 
ATOM     14  O   UNL     1       0.737  -2.329   5.150  0.00  0.00    -0.268 OA
ATOM     15  N   UNL     1       1.517  -2.569   7.206  0.00  0.00    -0.322 N 
ATOM     16  H   UNL     1       1.355  -1.630   7.391  0.00  0.00    +0.169 HD
ATOM     17  C   UNL     1       2.125  -1.400   9.744  0.00  0.00    +0.046 C 
ENDBRANCH   3  12
ENDBRANCH   1   3
BRANCH   1  18
ATOM     18  C   UNL     1      -1.172  -4.278   4.831  0.00  0.00    -0.045 C 
BRANCH  18  19
ATOM     19  C   UNL     1      -1.511  -3.291   3.712  0.00  0.00    +0.102 C 
ATOM     20  C   UNL     1      -2.219  -2.042   4.294  0.00  0.00    +0.032 C 
ATOM     21  C   UNL     1      -1.884  -0.981   3.210  0.00  0.00    +0.030 C 
ATOM     22  C   UNL     1      -0.473  -1.413   2.754  0.00  0.00    +0.160 C 
ATOM     23  O   UNL     1      -0.308  -2.794   3.104  0.00  0.00    -0.378 OA
ENDBRANCH  18  19
ENDBRANCH   1  18
BRANCH   1  24
ATOM     24  C   UNL     1      -0.500  -6.563   5.119  0.00  0.00    +0.006 C 
BRANCH  24  25
ATOM     25  C   UNL     1      -0.194  -6.230   6.557  0.00  0.00    +0.139 A 
ATOM     26  N   UNL     1      -0.554  -5.149   7.204  0.00  0.00    -0.115 NA
ATOM     27  N   UNL     1      -0.103  -5.236   8.408  0.00  0.00    -0.023 NA
ATOM     28  N   UNL     1       0.536  -6.345   8.545  0.00  0.00    -0.044 NA
ATOM     29  N   UNL     1       0.498  -6.989   7.428  0.00  0.00    -0.223 N 
BRANCH  29  30
ATOM     30  C   UNL     1       1.098  -8.297   7.156  0.00  0.00    +0.221 C 
BRANCH  30  31
ATOM     31  C   UNL     1       2.486  -8.108   6.601  0.00  0.00    +0.126 A 
ATOM     32  C   UNL     1       3.627  -8.119   7.314  0.00  0.00    +0.046 A 
ATOM     33  C   UNL     1       4.683  -7.905   6.399  0.00  0.00    +0.041 A 
ATOM     34  C   UNL     1       4.125  -7.776   5.182  0.00  0.00    +0.195 A 
ATOM     35  O   UNL     1       2.794  -7.905   5.310  0.00  0.00    -0.466 OA
ENDBRANCH  30  31
ENDBRANCH  29  30
ENDBRANCH  24  25
BRANCH  24  36
ATOM     36  C   UNL     1      -1.940  -7.066   5.008  0.00  0.00    -0.024 C 
ATOM     37  C   UNL     1      -2.219  -7.499   3.567  0.00  0.00    +0.006 C 
ATOM     38  C   UNL     1      -2.139  -8.258   5.946  0.00  0.00    +0.006 C 
ENDBRANCH  24  36
ENDBRANCH   1  24
TORSDOF 9
