REMARK  Name = ZINC52094993
REMARK  3 active torsions:
REMARK  status: ('A' for Active; 'I' for Inactive)
REMARK    1  A    between atoms: C_3  and  C_9
REMARK    2  A    between atoms: C_9  and  C_11
REMARK    3  A    between atoms: C_9  and  O_24
REMARK                            x       y       z     vdW  Elec       q    Type
REMARK                         _______ _______ _______ _____ _____    ______ ____
ROOT
ATOM      1  C   UNL     1       4.215   2.239  -1.427  0.00  0.00    +0.001 A 
ATOM      2  C   UNL     1       4.033   3.374  -2.193  0.00  0.00    +0.035 A 
ATOM      3  C   UNL     1       4.533   3.423  -3.485  0.00  0.00    +0.067 A 
ATOM      4  C   UNL     1       5.219   2.324  -4.007  0.00  0.00    +0.068 A 
ATOM      5  C   UNL     1       5.397   1.189  -3.232  0.00  0.00    +0.043 A 
ATOM      6  C   UNL     1       4.900   1.151  -1.943  0.00  0.00    +0.026 A 
ATOM      7 BR   UNL     1       5.150  -0.394  -0.882  0.00  0.00    -0.050 Br
ATOM      8  N   UNL     1       5.595   2.664  -5.305  0.00  0.00    -0.306 N 
ATOM      9  H   UNL     1       6.087   2.098  -5.920  0.00  0.00    +0.170 HD
ATOM     10  C   UNL     1       5.158   3.912  -5.560  0.00  0.00    +0.325 A 
ATOM     11  O   UNL     1       5.321   4.511  -6.607  0.00  0.00    -0.247 OA
ATOM     12  N   UNL     1       4.514   4.396  -4.481  0.00  0.00    -0.306 N 
ATOM     13  H   UNL     1       4.106   5.273  -4.410  0.00  0.00    +0.170 HD
ENDROOT
BRANCH   1  14
ATOM     14  C   UNL     1       3.671   2.186  -0.023  0.00  0.00    +0.177 C 
BRANCH  14  17
ATOM     15  C   UNL     1      -0.006   1.657  -0.695  0.00  0.00    +0.002 A 
ATOM     16  C   UNL     1       1.256   2.221  -0.678  0.00  0.00    +0.008 A 
ATOM     17  C   UNL     1       2.296   1.571  -0.039  0.00  0.00    +0.005 A 
ATOM     18  C   UNL     1       2.073   0.357   0.585  0.00  0.00    +0.065 A 
ATOM     19  C   UNL     1       0.809  -0.207   0.569  0.00  0.00    +0.060 A 
ATOM     20  C   UNL     1      -0.230   0.444  -0.072  0.00  0.00    +0.021 A 
ATOM     21 CL   UNL     1       0.528  -1.731   1.351  0.00  0.00    -0.082 Cl
ATOM     22 CL   UNL     1       3.378  -0.459   1.387  0.00  0.00    -0.082 Cl
ENDBRANCH  14  17
BRANCH  14  23
ATOM     23  O   UNL     1       3.595   3.510   0.509  0.00  0.00    -0.382 OA
ATOM     24  H   UNL     1       3.023   4.104   0.004  0.00  0.00    +0.211 HD
ENDBRANCH  14  23
ENDBRANCH   1  14
TORSDOF 3
