REMARK  Name = ZINC12894112
REMARK  9 active torsions:
REMARK  status: ('A' for Active; 'I' for Inactive)
REMARK    1  A    between atoms: C_1  and  C_2
REMARK    2  A    between atoms: C_5  and  N_8
REMARK    3  A    between atoms: C_10  and  C_15
REMARK    4  A    between atoms: N_17  and  C_18
REMARK    5  A    between atoms: C_19  and  C_31
REMARK    6  A    between atoms: C_21  and  S_23
REMARK    7  A    between atoms: S_23  and  C_24
REMARK    8  A    between atoms: C_24  and  C_25
REMARK    9  A    between atoms: N_27  and  C_28
REMARK                            x       y       z     vdW  Elec       q    Type
REMARK                         _______ _______ _______ _____ _____    ______ ____
ROOT
ATOM      1  C   UNL     1       6.224   8.307  -1.005  0.00  0.00    +0.100 A 
ATOM      2  C   UNL     1       7.483   8.855  -0.994  0.00  0.00    +0.101 A 
ATOM      3  N   UNL     1       7.748   9.884  -1.799  0.00  0.00    -0.231 NA
ATOM      4  C   UNL     1       6.825  10.380  -2.601  0.00  0.00    +0.137 A 
ATOM      5  S   UNL     1       5.425   9.330  -2.234  0.00  0.00    -0.045 S 
ENDROOT
BRANCH   2   6
ATOM      6  C   UNL     1       8.531   8.312  -0.100  0.00  0.00    +0.003 A 
ATOM      7  C   UNL     1       8.192   7.828   1.164  0.00  0.00    +0.010 A 
ATOM      8  C   UNL     1       9.172   7.317   1.990  0.00  0.00    +0.001 A 
ATOM      9  C   UNL     1      10.490   7.295   1.572  0.00  0.00    +0.000 A 
ATOM     10  C   UNL     1      10.834   7.779   0.322  0.00  0.00    +0.001 A 
ATOM     11  C   UNL     1       9.862   8.286  -0.516  0.00  0.00    +0.010 A 
ENDBRANCH   2   6
BRANCH   1  14
ATOM     12  C   UNL     1       4.429   6.859  -0.433  0.00  0.00    +0.223 C 
ATOM     13  O   UNL     1       3.722   7.442  -1.227  0.00  0.00    -0.275 OA
ATOM     14  N   UNL     1       5.711   7.240  -0.266  0.00  0.00    -0.278 N 
ATOM     15  H   UNL     1       6.277   6.774   0.369  0.00  0.00    +0.155 HD
BRANCH  12  18
ATOM     16  N   UNL     1       2.356   3.889   0.001  0.00  0.00    -0.271 N 
ATOM     17  C   UNL     1       2.446   5.350  -0.104  0.00  0.00    +0.127 C 
ATOM     18  C   UNL     1       3.876   5.707   0.365  0.00  0.00    +0.102 C 
ATOM     19  C   UNL     1       4.642   4.400   0.057  0.00  0.00    +0.110 C 
ATOM     20  C   UNL     1       3.575   3.329   0.083  0.00  0.00    +0.221 C 
ATOM     21  O   UNL     1       3.788   2.138   0.166  0.00  0.00    -0.275 OA
BRANCH  16  26
ATOM     22  C   UNL     1      -2.513   0.977   0.020  0.00  0.00    +0.044 C 
ATOM     23  C   UNL     1      -1.220   1.750   0.017  0.00  0.00    -0.050 A 
ATOM     24  C   UNL     1      -0.013   1.076  -0.007  0.00  0.00    +0.005 A 
ATOM     25  C   UNL     1       1.174   1.782  -0.015  0.00  0.00    +0.024 A 
ATOM     26  C   UNL     1       1.155   3.170   0.008  0.00  0.00    +0.036 A 
ATOM     27  C   UNL     1      -0.059   3.844   0.038  0.00  0.00    +0.024 A 
ATOM     28  C   UNL     1      -1.243   3.132   0.045  0.00  0.00    +0.005 A 
ENDBRANCH  16  26
ENDBRANCH  12  18
ENDBRANCH   1  14
BRANCH   4  29
ATOM     29  S   UNL     1       6.942  11.720  -3.739  0.00  0.00    -0.089 S 
BRANCH  29  30
ATOM     30  C   UNL     1       5.258  11.718  -4.401  0.00  0.00    +0.172 C 
BRANCH  30  31
ATOM     31  C   UNL     1       5.120  12.815  -5.426  0.00  0.00    +0.223 C 
ATOM     32  O   UNL     1       6.067  13.527  -5.683  0.00  0.00    -0.275 OA
ATOM     33  N   UNL     1       3.944  13.004  -6.056  0.00  0.00    -0.312 N 
ATOM     34  H   UNL     1       3.186  12.434  -5.851  0.00  0.00    +0.149 HD
BRANCH  33  35
ATOM     35  C   UNL     1       3.809  14.070  -7.052  0.00  0.00    +0.073 C 
ATOM     36  C   UNL     1       2.543  14.928  -7.003  0.00  0.00    +0.024 C 
ATOM     37  C   UNL     1       2.731  13.904  -8.124  0.00  0.00    +0.024 C 
ENDBRANCH  33  35
ENDBRANCH  30  31
ENDBRANCH  29  30
ENDBRANCH   4  29
TORSDOF 8
