REMARK  Name = ZINC36202921
REMARK  15 active torsions:
REMARK  status: ('A' for Active; 'I' for Inactive)
REMARK    1  A    between atoms: C_1  and  C_2
REMARK    2  A    between atoms: C_2  and  C_3
REMARK    3  A    between atoms: C_3  and  N_4
REMARK    4  A    between atoms: N_4  and  C_5
REMARK    5  A    between atoms: N_4  and  C_11
REMARK    6  A    between atoms: C_5  and  C_6
REMARK    7  A    between atoms: C_11  and  C_12
REMARK    8  A    between atoms: C_15  and  C_17
REMARK    9  A    between atoms: C_17  and  C_18
REMARK   10  A    between atoms: C_17  and  C_26
REMARK   11  A    between atoms: C_17  and  O_34
REMARK   12  A    between atoms: C_21  and  O_24
REMARK   13  A    between atoms: O_24  and  C_25
REMARK   14  A    between atoms: C_29  and  O_32
REMARK   15  A    between atoms: O_32  and  C_33
REMARK                            x       y       z     vdW  Elec       q    Type
REMARK                         _______ _______ _______ _____ _____    ______ ____
ROOT
ATOM      1  C   UNL     1      -2.514  -1.932   3.397  0.00  0.00    +0.174 C 
ENDROOT
BRANCH   1   2
ATOM      2  C   UNL     1      -2.387  -3.430   3.292  0.00  0.00    -0.004 A 
ATOM      3  C   UNL     1      -3.472  -4.236   3.583  0.00  0.00    +0.011 A 
ATOM      4  C   UNL     1      -3.358  -5.610   3.488  0.00  0.00    +0.046 A 
ATOM      5  C   UNL     1      -2.155  -6.180   3.100  0.00  0.00    +0.120 A 
ATOM      6  C   UNL     1      -1.068  -5.368   2.809  0.00  0.00    +0.046 A 
ATOM      7  C   UNL     1      -1.188  -3.995   2.900  0.00  0.00    +0.011 A 
BRANCH   5   8
ATOM      8  O   UNL     1      -2.040  -7.530   3.007  0.00  0.00    -0.495 OA
ATOM      9  C   UNL     1      -0.771  -8.047   2.602  0.00  0.00    +0.277 C 
ENDBRANCH   5   8
ENDBRANCH   1   2
BRANCH   1  10
ATOM     10  C   UNL     1      -1.408  -1.394   4.268  0.00  0.00    -0.004 A 
ATOM     11  C   UNL     1      -0.141  -1.218   3.744  0.00  0.00    +0.011 A 
ATOM     12  C   UNL     1       0.875  -0.726   4.541  0.00  0.00    +0.046 A 
ATOM     13  C   UNL     1       0.622  -0.406   5.867  0.00  0.00    +0.120 A 
ATOM     14  C   UNL     1      -0.651  -0.583   6.390  0.00  0.00    +0.046 A 
ATOM     15  C   UNL     1      -1.664  -1.071   5.588  0.00  0.00    +0.011 A 
BRANCH  13  16
ATOM     16  O   UNL     1       1.620   0.078   6.653  0.00  0.00    -0.495 OA
ATOM     17  C   UNL     1       1.287   0.385   8.008  0.00  0.00    +0.277 C 
ENDBRANCH  13  16
ENDBRANCH   1  10
BRANCH   1  21
ATOM     18  C   UNL     1      -1.851  -1.016  -0.075  0.00  0.00    +0.089 A 
ATOM     19  C   UNL     1      -2.645   0.013   0.269  0.00  0.00    +0.043 A 
ATOM     20  C   UNL     1      -3.008  -0.184   1.622  0.00  0.00    +0.048 A 
ATOM     21  C   UNL     1      -2.413  -1.322   2.023  0.00  0.00    +0.146 A 
ATOM     22  O   UNL     1      -1.718  -1.824   0.989  0.00  0.00    -0.463 OA
BRANCH  18  23
ATOM     23  C   UNL     1      -1.221  -1.229  -1.427  0.00  0.00    -0.003 C 
BRANCH  23  24
ATOM     24  N   UNL     1       0.038  -0.475  -1.506  0.00  0.00    +0.387 N 
ATOM     25  H   UNL     1      -0.136   0.493  -1.283  0.00  0.00    -0.081 HD
BRANCH  24  26
ATOM     26  C   UNL     1       0.584  -0.574  -2.866  0.00  0.00    -0.078 C 
BRANCH  26  28
ATOM     27  C   UNL     1       0.278   0.152  -5.237  0.00  0.00    +0.002 C 
ATOM     28  C   UNL     1      -0.358   0.129  -3.846  0.00  0.00    -0.022 C 
ENDBRANCH  26  28
ENDBRANCH  24  26
BRANCH  24  29
ATOM     29  C   UNL     1       1.003  -1.032  -0.549  0.00  0.00    -0.042 C 
BRANCH  29  30
ATOM     30  C   UNL     1       2.249  -0.185  -0.541  0.00  0.00    -0.057 A 
ATOM     31  C   UNL     1       3.292  -0.463  -1.404  0.00  0.00    +0.009 A 
ATOM     32  C   UNL     1       4.399   0.319  -1.371  0.00  0.00    +0.045 A 
ATOM     33  S   UNL     1       3.984   1.493  -0.092  0.00  0.00    -0.105 S 
ATOM     34  C   UNL     1       2.361   0.865   0.309  0.00  0.00    +0.047 A 
ENDBRANCH  29  30
ENDBRANCH  24  29
ENDBRANCH  23  24
ENDBRANCH  18  23
ENDBRANCH   1  21
BRANCH   1  35
ATOM     35  O   UNL     1      -3.779  -1.600   3.974  0.00  0.00    -0.372 OA
ATOM     36  H   UNL     1      -3.929  -0.650   4.072  0.00  0.00    +0.212 HD
ENDBRANCH   1  35
TORSDOF 12
