REMARK  Name = ZINC40196637
REMARK  11 active torsions:
REMARK  status: ('A' for Active; 'I' for Inactive)
REMARK    1  A    between atoms: C_1  and  C_2
REMARK    2  A    between atoms: C_2  and  C_4
REMARK    3  A    between atoms: C_2  and  N_27
REMARK    4  A    between atoms: N_12  and  C_13
REMARK    5  A    between atoms: C_13  and  C_14
REMARK    6  A    between atoms: N_16  and  C_17
REMARK    7  A    between atoms: N_16  and  C_24
REMARK    8  A    between atoms: C_17  and  C_18
REMARK    9  A    between atoms: C_24  and  C_25
REMARK   10  A    between atoms: C_24  and  C_26
REMARK   11  A    between atoms: C_28  and  C_30
REMARK                            x       y       z     vdW  Elec       q    Type
REMARK                         _______ _______ _______ _____ _____    ______ ____
ROOT
ATOM      1  C   UNL     1       0.677  -0.348   1.162  0.00  0.00    +0.131 A 
ATOM      2  N   UNL     1       1.967  -0.243   1.293  0.00  0.00    -0.230 NA
ATOM      3  C   UNL     1       2.352  -0.792   2.474  0.00  0.00    +0.089 A 
ATOM      4  C   UNL     1       3.589  -0.948   3.105  0.00  0.00    +0.030 A 
ATOM      5  C   UNL     1       3.657  -1.560   4.325  0.00  0.00    +0.002 A 
ATOM      6  C   UNL     1       2.509  -2.030   4.946  0.00  0.00    +0.002 A 
ATOM      7  C   UNL     1       1.279  -1.887   4.342  0.00  0.00    +0.028 A 
ATOM      8  C   UNL     1       1.189  -1.267   3.103  0.00  0.00    +0.069 A 
ATOM      9  N   UNL     1       0.145  -0.967   2.251  0.00  0.00    -0.317 N 
ENDROOT
BRANCH   1  11
ATOM     10  C   UNL     1      -0.226   1.672   0.043  0.00  0.00    +0.036 C 
ATOM     11  C   UNL     1      -0.115   0.147  -0.021  0.00  0.00    +0.136 C 
BRANCH  11  12
ATOM     12  N   UNL     1       0.564  -0.241  -1.260  0.00  0.00    -0.299 N 
ATOM     13  C   UNL     1      -0.140  -0.373  -2.401  0.00  0.00    +0.280 C 
ATOM     14  O   UNL     1      -1.340  -0.171  -2.402  0.00  0.00    -0.267 OA
ATOM     15  H   UNL     1       1.521  -0.402  -1.259  0.00  0.00    +0.150 HD
BRANCH  13  16
ATOM     16  C   UNL     1       0.539  -0.762  -3.641  0.00  0.00    +0.189 A 
ATOM     17  C   UNL     1      -0.051  -0.926  -4.862  0.00  0.00    +0.054 A 
ATOM     18  C   UNL     1       0.967  -1.297  -5.755  0.00  0.00    +0.042 A 
ATOM     19  C   UNL     1       2.118  -1.342  -5.050  0.00  0.00    +0.196 A 
ATOM     20  O   UNL     1       1.857  -1.015  -3.777  0.00  0.00    -0.458 OA
ENDBRANCH  13  16
ENDBRANCH  11  12
ENDBRANCH   1  11
BRANCH   9  21
ATOM     21  C   UNL     1      -1.272  -1.262   2.476  0.00  0.00    +0.219 C 
BRANCH  21  22
ATOM     22  C   UNL     1      -1.596  -2.624   1.917  0.00  0.00    +0.236 C 
ATOM     23  O   UNL     1      -0.729  -3.282   1.382  0.00  0.00    -0.274 OA
ATOM     24  N   UNL     1      -2.850  -3.109   2.010  0.00  0.00    -0.293 N 
BRANCH  24  25
ATOM     25  C   UNL     1      -3.897  -2.314   2.656  0.00  0.00    +0.070 C 
ATOM     26  C   UNL     1      -5.084  -2.164   1.702  0.00  0.00    +0.028 C 
ATOM     27  C   UNL     1      -4.356  -3.017   3.935  0.00  0.00    +0.028 C 
ENDBRANCH  24  25
BRANCH  24  28
ATOM     28  C   UNL     1      -3.165  -4.433   1.466  0.00  0.00    +0.143 C 
BRANCH  28  29
ATOM     29  C   UNL     1      -2.818  -5.489   2.483  0.00  0.00    -0.030 A 
ATOM     30  C   UNL     1      -1.518  -5.948   2.586  0.00  0.00    +0.005 A 
ATOM     31  C   UNL     1      -1.199  -6.917   3.519  0.00  0.00    +0.000 A 
ATOM     32  C   UNL     1      -2.180  -7.428   4.348  0.00  0.00    +0.000 A 
ATOM     33  C   UNL     1      -3.480  -6.969   4.245  0.00  0.00    +0.000 A 
ATOM     34  C   UNL     1      -3.798  -5.996   3.316  0.00  0.00    +0.005 A 
ENDBRANCH  28  29
ENDBRANCH  24  28
ENDBRANCH  21  22
ENDBRANCH   9  21
TORSDOF 8
