REMARK  Name = ZINC05382495
REMARK  4 active torsions:
REMARK  status: ('A' for Active; 'I' for Inactive)
REMARK    1  A    between atoms: C_4  and  N_7
REMARK    2  A    between atoms: N_10  and  C_11
REMARK    3  A    between atoms: C_11  and  C_12
REMARK    4  A    between atoms: N_20  and  C_21
REMARK                            x       y       z     vdW  Elec       q    Type
REMARK                         _______ _______ _______ _____ _____    ______ ____
ROOT
ATOM      1  C   UNL     1       0.082  -0.091  -7.051  0.00  0.00    +0.009 C 
ATOM      2  C   UNL     1       1.154   0.965  -7.329  0.00  0.00    +0.024 C 
ATOM      3  C   UNL     1       2.116   0.440  -8.399  0.00  0.00    +0.109 C 
ATOM      4  N   UNL     1       1.339   0.043  -9.581  0.00  0.00    -0.286 N 
ATOM      5  C   UNL     1       0.225  -0.900  -9.410  0.00  0.00    +0.109 C 
ATOM      6  C   UNL     1      -0.716  -0.360  -8.329  0.00  0.00    +0.024 C 
ATOM      7  C   UNL     1       1.642   0.534 -10.799  0.00  0.00    +0.302 C 
ATOM      8  O   UNL     1       1.053   0.129 -11.782  0.00  0.00    -0.253 OA
ATOM      9  N   UNL     1       2.599   1.474 -10.927  0.00  0.00    -0.296 N 
ATOM     10  H   UNL     1       3.121   1.744 -10.155  0.00  0.00    +0.151 HD
ENDROOT
BRANCH   9  11
ATOM     11  C   UNL     1       2.853   2.088 -12.233  0.00  0.00    +0.074 C 
ATOM     12  C   UNL     1       3.816   1.208 -13.032  0.00  0.00    +0.022 C 
ATOM     13  C   UNL     1       4.080   1.849 -14.396  0.00  0.00    +0.002 C 
ATOM     14  C   UNL     1       4.700   3.233 -14.197  0.00  0.00    +0.000 C 
ATOM     15  C   UNL     1       3.737   4.114 -13.398  0.00  0.00    +0.002 C 
ATOM     16  C   UNL     1       3.473   3.473 -12.034  0.00  0.00    +0.022 C 
ENDBRANCH   9  11
BRANCH   1  17
ATOM     17  C   UNL     1      -0.862   0.415  -5.958  0.00  0.00    +0.109 C 
BRANCH  17  21
ATOM     18  N   UNL     1      -0.072   1.127  -2.438  0.00  0.00    -0.297 N 
ATOM     19  C   UNL     1      -0.753   0.995  -3.594  0.00  0.00    +0.300 C 
ATOM     20  O   UNL     1      -1.937   1.268  -3.636  0.00  0.00    -0.253 OA
ATOM     21  N   UNL     1      -0.121   0.559  -4.702  0.00  0.00    -0.299 N 
ATOM     22  H   UNL     1       0.873   0.908  -2.404  0.00  0.00    +0.151 HD
ATOM     23  H   UNL     1       0.823   0.341  -4.668  0.00  0.00    +0.150 HD
BRANCH  18  27
ATOM     24  C   UNL     1      -0.756   3.119   1.272  0.00  0.00    +0.000 C 
ATOM     25  C   UNL     1      -0.736   1.589   1.265  0.00  0.00    +0.002 C 
ATOM     26  C   UNL     1      -0.019   1.094   0.007  0.00  0.00    +0.022 C 
ATOM     27  C   UNL     1      -0.758   1.600  -1.234  0.00  0.00    +0.074 C 
ATOM     28  C   UNL     1      -0.778   3.130  -1.226  0.00  0.00    +0.022 C 
ATOM     29  C   UNL     1      -1.495   3.625   0.032  0.00  0.00    +0.002 C 
ENDBRANCH  18  27
ENDBRANCH  17  21
ENDBRANCH   1  17
TORSDOF 4
