REMARK  Name = ZINC42196762
REMARK  9 active torsions:
REMARK  status: ('A' for Active; 'I' for Inactive)
REMARK    1  A    between atoms: C_1  and  C_2
REMARK    2  A    between atoms: C_2  and  C_28
REMARK    3  A    between atoms: C_4  and  N_10
REMARK    4  A    between atoms: C_6  and  C_8
REMARK    5  A    between atoms: C_6  and  C_9
REMARK    6  A    between atoms: C_11  and  C_13
REMARK    7  A    between atoms: C_16  and  C_19
REMARK    8  A    between atoms: C_19  and  N_20
REMARK    9  A    between atoms: C_21  and  C_23
REMARK                            x       y       z     vdW  Elec       q    Type
REMARK                         _______ _______ _______ _____ _____    ______ ____
ROOT
ATOM      1  N   UNL     1      -3.540  -0.922   1.007  0.00  0.00    -0.309 N 
ATOM      2  C   UNL     1      -4.546  -0.473   1.784  0.00  0.00    +0.244 C 
ATOM      3  O   UNL     1      -4.333   0.386   2.617  0.00  0.00    -0.270 OA
ATOM      4  H   UNL     1      -3.710  -1.608   0.342  0.00  0.00    +0.149 HD
ENDROOT
BRANCH   1   8
ATOM      5  C   UNL     1      -0.019   1.528   0.010  0.00  0.00    -0.010 C 
ATOM      6  C   UNL     1       0.002  -0.004   0.002  0.00  0.00    -0.072 C 
ATOM      7  C   UNL     1      -1.419  -0.538  -0.145  0.00  0.00    +0.009 C 
ATOM      8  C   UNL     1      -2.188  -0.373   1.166  0.00  0.00    +0.071 C 
ATOM      9  C   UNL     1      -1.451  -1.155   2.253  0.00  0.00    +0.009 C 
ATOM     10  C   UNL     1      -0.030  -0.627   2.418  0.00  0.00    -0.072 C 
ATOM     11  N   UNL     1       0.697  -0.529   1.164  0.00  0.00    +0.386 N 
ATOM     12  C   UNL     1       0.730  -1.621   3.326  0.00  0.00    -0.010 C 
ATOM     13  C   UNL     1      -0.059   0.719   3.151  0.00  0.00    -0.010 C 
ATOM     14  C   UNL     1       0.791  -0.440  -1.254  0.00  0.00    -0.010 C 
ATOM     15  H   UNL     1       1.056  -1.460   0.929  0.00  0.00    -0.084 HD
ATOM     16  H   UNL     1       1.534   0.040   1.322  0.00  0.00    -0.084 HD
ENDBRANCH   1   8
BRANCH   2  17
ATOM     17  C   UNL     1      -5.907  -1.026   1.624  0.00  0.00    +0.037 A 
ATOM     18  C   UNL     1      -6.154  -2.017   0.672  0.00  0.00    +0.013 A 
ATOM     19  C   UNL     1      -7.427  -2.529   0.528  0.00  0.00    +0.006 A 
ATOM     20  C   UNL     1      -8.458  -2.063   1.323  0.00  0.00    -0.030 A 
ATOM     21  C   UNL     1      -8.220  -1.080   2.268  0.00  0.00    +0.006 A 
ATOM     22  C   UNL     1      -6.951  -0.564   2.427  0.00  0.00    +0.013 A 
BRANCH  20  23
ATOM     23  C   UNL     1      -9.846  -2.626   1.160  0.00  0.00    +0.139 C 
BRANCH  23  24
ATOM     24  N   UNL     1     -10.011  -3.781   2.046  0.00  0.00    -0.307 N 
ATOM     25  C   UNL     1     -11.181  -4.450   2.069  0.00  0.00    +0.251 C 
ATOM     26  O   UNL     1     -12.100  -4.095   1.354  0.00  0.00    -0.270 OA
ATOM     27  H   UNL     1      -9.279  -4.065   2.615  0.00  0.00    +0.149 HD
BRANCH  25  28
ATOM     28  C   UNL     1     -11.347  -5.606   2.955  0.00  0.00    +0.074 A 
ATOM     29  C   UNL     1     -12.452  -6.426   3.126  0.00  0.00    +0.021 A 
ATOM     30  C   UNL     1     -12.307  -7.441   4.040  0.00  0.00    +0.008 A 
ATOM     31  C   UNL     1     -11.128  -7.574   4.697  0.00  0.00    +0.046 A 
ATOM     32  S   UNL     1     -10.177  -6.329   4.090  0.00  0.00    -0.092 S 
ENDBRANCH  25  28
ENDBRANCH  23  24
ENDBRANCH  20  23
ENDBRANCH   2  17
TORSDOF 5
