REMARK  Name = ZINC65074781
REMARK  6 active torsions:
REMARK  status: ('A' for Active; 'I' for Inactive)
REMARK    1  A    between atoms: C_1  and  C_2
REMARK    2  A    between atoms: C_2  and  C_3
REMARK    3  A    between atoms: C_2  and  C_4
REMARK    4  A    between atoms: C_2  and  N_5
REMARK    5  A    between atoms: N_14  and  S_17
REMARK    6  A    between atoms: S_17  and  C_20
REMARK                            x       y       z     vdW  Elec       q    Type
REMARK                         _______ _______ _______ _____ _____    ______ ____
ROOT
ATOM      1  N   UNL     1       0.583  -0.515  -1.248  0.00  0.00    -0.328 N 
ATOM      2  C   UNL     1       1.898  -0.274  -1.544  0.00  0.00    +0.089 C 
ATOM      3  N   UNL     1       2.569   0.477  -0.755  0.00  0.00    -0.374 N 
ATOM      4  C   UNL     1       3.972   0.821  -0.959  0.00  0.00    +0.129 C 
ATOM      5  C   UNL     1       4.610  -0.147  -1.958  0.00  0.00    +0.102 C 
ATOM      6  N   UNL     1       3.736  -0.241  -3.140  0.00  0.00    -0.303 NA
ATOM      7  C   UNL     1       2.478  -0.912  -2.775  0.00  0.00    +0.075 C 
ATOM      8  C   UNL     1       2.751  -2.394  -2.503  0.00  0.00    +0.047 C 
ATOM      9  C   UNL     1       3.377  -3.030  -3.748  0.00  0.00    +0.112 C 
ATOM     10  N   UNL     1       2.498  -2.783  -4.899  0.00  0.00    -0.176 NA
ATOM     11  C   UNL     1       2.097  -1.401  -5.196  0.00  0.00    +0.112 C 
ATOM     12  C   UNL     1       1.486  -0.783  -3.934  0.00  0.00    +0.047 C 
ATOM     13  H   UNL     1       0.030  -1.018  -1.867  0.00  0.00    +0.148 HD
ATOM     14  H   UNL     1       3.562   0.671  -3.535  0.00  0.00    +0.123 HD
ATOM     15  H   UNL     1       2.118   0.839   0.024  0.00  0.00    +0.161 HD
ENDROOT
BRANCH   1  17
ATOM     16  C   UNL     1       0.028   1.519  -0.007  0.00  0.00    +0.031 C 
ATOM     17  C   UNL     1       0.009  -0.011   0.003  0.00  0.00    +0.025 C 
ATOM     18  C   UNL     1       0.835  -0.524   1.185  0.00  0.00    +0.031 C 
ATOM     19  C   UNL     1      -1.433  -0.502   0.137  0.00  0.00    +0.031 C 
ENDBRANCH   1  17
BRANCH  10  20
ATOM     20  S   UNL     1       1.971  -4.036  -5.844  0.00  0.00    +0.067 S 
ATOM     21  O   UNL     1       1.653  -3.482  -7.113  0.00  0.00    -0.152 OA
ATOM     22  O   UNL     1       2.914  -5.088  -5.686  0.00  0.00    -0.152 OA
BRANCH  20  23
ATOM     23  C   UNL     1       0.457  -4.610  -5.150  0.00  0.00    +0.144 A 
ATOM     24  C   UNL     1      -0.810  -4.213  -5.421  0.00  0.00    +0.038 A 
ATOM     25  C   UNL     1      -1.859  -4.811  -4.747  0.00  0.00    +0.030 A 
ATOM     26  C   UNL     1      -1.588  -5.777  -3.833  0.00  0.00    +0.080 A 
ATOM     27  S   UNL     1       0.193  -5.871  -3.914  0.00  0.00    -0.057 S 
ATOM     28 CL   UNL     1      -2.688  -6.689  -2.848  0.00  0.00    -0.076 Cl
ENDBRANCH  20  23
ENDBRANCH  10  20
TORSDOF 3
