REMARK  Name = ZINC21509261
REMARK  6 active torsions:
REMARK  status: ('A' for Active; 'I' for Inactive)
REMARK    1  A    between atoms: C_1  and  C_2
REMARK    2  A    between atoms: C_2  and  C_3
REMARK    3  A    between atoms: C_3  and  C_5
REMARK    4  A    between atoms: C_3  and  N_12
REMARK    5  A    between atoms: C_10  and  O_11
REMARK    6  A    between atoms: N_12  and  C_13
REMARK                            x       y       z     vdW  Elec       q    Type
REMARK                         _______ _______ _______ _____ _____    ______ ____
ROOT
ATOM      1  C   UNL     1       0.011   1.072   2.506  0.00  0.00    +0.104 C 
ENDROOT
BRANCH   1   2
ATOM      2  C   UNL     1      -0.761   1.454   3.743  0.00  0.00    +0.014 A 
ATOM      3  C   UNL     1      -0.440   2.609   4.430  0.00  0.00    +0.009 A 
ATOM      4  C   UNL     1      -1.147   2.960   5.564  0.00  0.00    +0.001 A 
ATOM      5  C   UNL     1      -2.178   2.156   6.015  0.00  0.00    +0.004 A 
ATOM      6  C   UNL     1      -2.503   1.000   5.332  0.00  0.00    +0.046 A 
ATOM      7  C   UNL     1      -1.798   0.648   4.190  0.00  0.00    +0.122 A 
BRANCH   7   8
ATOM      8  O   UNL     1      -2.119  -0.485   3.513  0.00  0.00    -0.506 OA
ATOM      9  H   UNL     1      -2.942  -1.123   3.869  0.00  0.00    +0.292 HD
ENDBRANCH   7   8
ENDBRANCH   1   2
BRANCH   1  11
ATOM     10  C   UNL     1      -0.013   1.086   0.008  0.00  0.00    +0.006 C 
ATOM     11  C   UNL     1      -0.729   1.579   1.267  0.00  0.00    +0.024 C 
ENDBRANCH   1  11
BRANCH   1  12
ATOM     12  N   UNL     1       1.346   1.674   2.558  0.00  0.00    -0.336 N 
ATOM     13  H   UNL     1       1.516   2.585   3.152  0.00  0.00    +0.147 HD
BRANCH  12  14
ATOM     14  C   UNL     1       2.403   1.092   1.854  0.00  0.00    +0.048 A 
ATOM     15  C   UNL     1       2.192  -0.060   1.109  0.00  0.00    +0.045 A 
ATOM     16  C   UNL     1       3.238  -0.631   0.409  0.00  0.00    +0.061 A 
ATOM     17  C   UNL     1       4.499  -0.061   0.459  0.00  0.00    +0.061 A 
ATOM     18  C   UNL     1       4.714   1.084   1.205  0.00  0.00    +0.043 A 
ATOM     19  C   UNL     1       3.670   1.662   1.902  0.00  0.00    +0.063 A 
ATOM     20 CL   UNL     1       3.941   3.099   2.839  0.00  0.00    -0.082 Cl
ATOM     21 CL   UNL     1       5.813  -0.785  -0.415  0.00  0.00    -0.082 Cl
ATOM     22 CL   UNL     1       2.973  -2.068  -0.528  0.00  0.00    -0.082 Cl
ENDBRANCH  12  14
ENDBRANCH   1  12
TORSDOF 5
