REMARK  Name = ZINC35232245
REMARK  2 active torsions:
REMARK  status: ('A' for Active; 'I' for Inactive)
REMARK    1  A    between atoms: C_3  and  C_14
REMARK    2  A    between atoms: C_14  and  O_15
REMARK                            x       y       z     vdW  Elec       q    Type
REMARK                         _______ _______ _______ _____ _____    ______ ____
ROOT
ATOM      1  C   UNL     1      -0.063   1.438   0.124  0.00  0.00    +0.019 C 
ATOM      2  C   UNL     1       1.339   2.048   0.051  0.00  0.00    +0.009 C 
ATOM      3  C   UNL     1       1.995   1.665  -1.278  0.00  0.00    +0.032 C 
ATOM      4  C   UNL     1       2.126   0.141  -1.357  0.00  0.00    +0.112 C 
ATOM      5  N   UNL     1       0.803  -0.460  -1.143  0.00  0.00    -0.312 N 
ATOM      6  C   UNL     1       0.045  -0.089   0.060  0.00  0.00    +0.106 C 
ATOM      7  C   UNL     1       0.273  -1.368  -2.067  0.00  0.00    +0.169 A 
ATOM      8  C   UNL     1       0.486  -2.731  -1.973  0.00  0.00    +0.180 A 
ATOM      9  N   UNL     1      -0.065  -3.474  -2.902  0.00  0.00    -0.177 NA
ATOM     10  S   UNL     1      -0.832  -2.424  -3.861  0.00  0.00    +0.119 S 
ATOM     11  N   UNL     1      -0.469  -0.986  -3.087  0.00  0.00    -0.174 NA
ATOM     12 CL   UNL     1       1.433  -3.422  -0.693  0.00  0.00    -0.058 Cl
ENDROOT
BRANCH   3  13
ATOM     13  C   UNL     1       3.383   2.303  -1.365  0.00  0.00    +0.160 C 
BRANCH  13  14
ATOM     14  O   UNL     1       3.947   2.042  -2.651  0.00  0.00    -0.395 OA
ATOM     15  H   UNL     1       4.829   2.418  -2.777  0.00  0.00    +0.209 HD
ENDBRANCH  13  14
ENDBRANCH   3  13
TORSDOF 2
