REMARK  Name = ZINC15615894
REMARK  6 active torsions:
REMARK  status: ('A' for Active; 'I' for Inactive)
REMARK    1  A    between atoms: C_7  and  C_11
REMARK    2  A    between atoms: C_11  and  C_12
REMARK    3  A    between atoms: C_12  and  N_13
REMARK    4  A    between atoms: C_14  and  C_16
REMARK    5  A    between atoms: C_16  and  N_17
REMARK    6  A    between atoms: C_18  and  C_20
REMARK                            x       y       z     vdW  Elec       q    Type
REMARK                         _______ _______ _______ _____ _____    ______ ____
ROOT
ATOM      1  N   UNL     1      -1.156  -0.694   0.009  0.00  0.00    -0.314 N 
ATOM      2  C   UNL     1       0.002  -0.004   0.002  0.00  0.00    +0.230 C 
ATOM      3  O   UNL     1       1.060  -0.596  -0.011  0.00  0.00    -0.274 OA
ATOM      4  H   UNL     1      -2.002  -0.220   0.020  0.00  0.00    +0.149 HD
ENDROOT
BRANCH   1   5
ATOM      5  C   UNL     1      -1.136  -2.159   0.001  0.00  0.00    +0.109 C 
BRANCH   5   6
ATOM      6  C   UNL     1      -2.571  -2.688   0.012  0.00  0.00    +0.056 C 
BRANCH   6  13
ATOM      7  C   UNL     1      -2.197  -5.909   3.397  0.00  0.00    +0.001 A 
ATOM      8  C   UNL     1      -2.226  -7.209   2.912  0.00  0.00    +0.002 A 
ATOM      9  C   UNL     1      -2.354  -7.453   1.563  0.00  0.00    +0.026 A 
ATOM     10  C   UNL     1      -2.455  -6.387   0.674  0.00  0.00    +0.047 A 
ATOM     11  C   UNL     1      -2.425  -5.071   1.171  0.00  0.00    +0.003 A 
ATOM     12  C   UNL     1      -2.295  -4.847   2.543  0.00  0.00    +0.010 A 
ATOM     13  C   UNL     1      -2.551  -4.195   0.004  0.00  0.00    -0.021 A 
ATOM     14  C   UNL     1      -2.650  -4.989  -1.074  0.00  0.00    +0.087 A 
ATOM     15  N   UNL     1      -2.590  -6.302  -0.693  0.00  0.00    -0.360 N 
ATOM     16  H   UNL     1      -2.638  -7.060  -1.296  0.00  0.00    +0.165 HD
ENDBRANCH   6  13
ENDBRANCH   5   6
ENDBRANCH   1   5
BRANCH   2  17
ATOM     17  C   UNL     1      -0.018   1.503   0.010  0.00  0.00    +0.200 C 
BRANCH  17  18
ATOM     18  N   UNL     1       1.356   2.010  -0.000  0.00  0.00    -0.303 N 
ATOM     19  C   UNL     1       1.584   3.338   0.005  0.00  0.00    +0.246 C 
ATOM     20  O   UNL     1       0.650   4.115   0.018  0.00  0.00    -0.270 OA
ATOM     21  H   UNL     1       2.102   1.390  -0.011  0.00  0.00    +0.150 HD
BRANCH  19  22
ATOM     22  C   UNL     1       2.970   3.849  -0.006  0.00  0.00    +0.055 A 
ATOM     23  C   UNL     1       4.046   2.959  -0.021  0.00  0.00    +0.016 A 
ATOM     24  C   UNL     1       5.337   3.442  -0.031  0.00  0.00    +0.021 A 
ATOM     25  C   UNL     1       5.569   4.808  -0.026  0.00  0.00    +0.042 A 
ATOM     26  C   UNL     1       4.508   5.697  -0.011  0.00  0.00    +0.040 A 
ATOM     27  C   UNL     1       3.210   5.226  -0.006  0.00  0.00    +0.054 A 
ATOM     28 CL   UNL     1       1.880   6.341   0.005  0.00  0.00    -0.083 Cl
ATOM     29 CL   UNL     1       7.199   5.408  -0.039  0.00  0.00    -0.083 Cl
ENDBRANCH  19  22
ENDBRANCH  17  18
ENDBRANCH   2  17
TORSDOF 6
