REMARK  Name = ZINC33681551
REMARK  8 active torsions:
REMARK  status: ('A' for Active; 'I' for Inactive)
REMARK    1  A    between atoms: C_1  and  C_2
REMARK    2  A    between atoms: C_5  and  C_8
REMARK    3  A    between atoms: C_8  and  N_9
REMARK    4  A    between atoms: N_9  and  C_10
REMARK    5  A    between atoms: C_10  and  C_26
REMARK    6  A    between atoms: C_11  and  N_12
REMARK    7  A    between atoms: C_15  and  N_17
REMARK    8  A    between atoms: N_17  and  C_18
REMARK                            x       y       z     vdW  Elec       q    Type
REMARK                         _______ _______ _______ _____ _____    ______ ____
ROOT
ATOM      1  C   UNL     1      -0.031  -6.230  -0.314  0.00  0.00    +0.003 C 
ATOM      2  C   UNL     1       0.378  -6.868  -1.409  0.00  0.00    +0.130 C 
ATOM      3  C   UNL     1      -0.235  -6.991   0.971  0.00  0.00    +0.060 C 
ENDROOT
BRANCH   2   4
ATOM      4  N   UNL     1       0.562  -6.182  -2.567  0.00  0.00    -0.228 NA
ATOM      5  C   UNL     1       0.965  -6.812  -3.646  0.00  0.00    +0.198 C 
ATOM      6  N   UNL     1       1.280  -6.547  -4.979  0.00  0.00    -0.198 NA
ATOM      7  C   UNL     1       1.671  -7.618  -5.727  0.00  0.00    +0.188 C 
ATOM      8  S   UNL     1       1.407  -8.450  -4.177  0.00  0.00    -0.013 S 
BRANCH   7   9
ATOM      9  N   UNL     1       2.066  -7.903  -7.001  0.00  0.00    -0.190 NA
BRANCH   9  10
ATOM     10  C   UNL     1       2.215  -9.233  -7.406  0.00  0.00    +0.057 A 
ATOM     11  C   UNL     1       1.565 -10.248  -6.715  0.00  0.00    +0.027 A 
ATOM     12  C   UNL     1       1.714 -11.561  -7.116  0.00  0.00    +0.023 A 
ATOM     13  C   UNL     1       2.510 -11.867  -8.206  0.00  0.00    +0.059 A 
ATOM     14  C   UNL     1       3.160 -10.858  -8.897  0.00  0.00    +0.061 A 
ATOM     15  C   UNL     1       3.009  -9.542  -8.502  0.00  0.00    +0.046 A 
ATOM     16 CL   UNL     1       4.158 -11.246 -10.263  0.00  0.00    -0.082 Cl
ATOM     17 CL   UNL     1       2.695 -13.519  -8.707  0.00  0.00    -0.082 Cl
ENDBRANCH   9  10
ENDBRANCH   7   9
ENDBRANCH   2   4
BRANCH   1  18
ATOM     18  N   UNL     1      -0.272  -4.853  -0.357  0.00  0.00    -0.404 NA
ATOM     19  H   UNL     1       0.273  -4.439  -1.099  0.00  0.00    +0.123 HD
ATOM     20  H   UNL     1      -0.009  -4.439   0.525  0.00  0.00    +0.123 HD
BRANCH  18  21
ATOM     21  C   UNL     1      -1.699  -4.613  -0.606  0.00  0.00    +0.118 C 
BRANCH  21  26
ATOM     22  C   UNL     1      -2.696   1.076  -0.783  0.00  0.00    +0.044 C 
ATOM     23  C   UNL     1      -2.436  -0.407  -0.737  0.00  0.00    -0.050 A 
ATOM     24  C   UNL     1      -2.110  -1.088  -1.895  0.00  0.00    +0.003 A 
ATOM     25  C   UNL     1      -1.872  -2.449  -1.852  0.00  0.00    +0.005 A 
ATOM     26  C   UNL     1      -1.958  -3.129  -0.652  0.00  0.00    -0.032 A 
ATOM     27  C   UNL     1      -2.283  -2.448   0.506  0.00  0.00    +0.005 A 
ATOM     28  C   UNL     1      -2.518  -1.086   0.465  0.00  0.00    +0.003 A 
ENDBRANCH  21  26
ENDBRANCH  18  21
ENDBRANCH   1  18
TORSDOF 6
