REMARK  Name = ZINC13898017
REMARK  12 active torsions:
REMARK  status: ('A' for Active; 'I' for Inactive)
REMARK    1  A    between atoms: C_1  and  C_2
REMARK    2  A    between atoms: C_2  and  C_3
REMARK    3  A    between atoms: C_3  and  C_4
REMARK    4  A    between atoms: C_4  and  C_5
REMARK    5  A    between atoms: C_11  and  C_12
REMARK    6  A    between atoms: C_15  and  O_18
REMARK    7  A    between atoms: O_18  and  C_19
REMARK    8  A    between atoms: C_19  and  C_20
REMARK    9  A    between atoms: C_20  and  O_21
REMARK   10  A    between atoms: O_21  and  C_22
REMARK   11  A    between atoms: C_25  and  C_29
REMARK   12  A    between atoms: C_27  and  C_28
REMARK                            x       y       z     vdW  Elec       q    Type
REMARK                         _______ _______ _______ _____ _____    ______ ____
ROOT
ATOM      1  C   UNL     1       6.309  -2.841   7.690  0.00  0.00    -0.024 A 
ATOM      2  C   UNL     1       6.231  -4.241   7.710  0.00  0.00    +0.011 A 
ATOM      3  C   UNL     1       7.146  -4.963   8.423  0.00  0.00    +0.046 A 
ATOM      4  C   UNL     1       8.152  -4.312   9.129  0.00  0.00    +0.121 A 
ATOM      5  C   UNL     1       8.235  -2.923   9.113  0.00  0.00    +0.046 A 
ATOM      6  C   UNL     1       7.329  -2.191   8.399  0.00  0.00    +0.011 A 
ENDROOT
BRANCH   1  13
ATOM      7  C   UNL     1       0.365  -3.375   3.995  0.00  0.00    +0.100 C 
ATOM      8  N   UNL     1       1.308  -2.538   4.322  0.00  0.00    -0.169 NA
ATOM      9  N   UNL     1       2.054  -2.713   5.468  0.00  0.00    -0.152 N 
ATOM     10  C   UNL     1       3.032  -1.822   5.960  0.00  0.00    +0.152 C 
ATOM     11  N   UNL     1       3.070  -0.554   5.648  0.00  0.00    -0.283 NA
ATOM     12  C   UNL     1       4.018  -2.471   6.870  0.00  0.00    +0.081 C 
ATOM     13  C   UNL     1       5.331  -2.061   6.928  0.00  0.00    +0.024 C 
ATOM     14  C   UNL     1       3.508  -3.581   7.712  0.00  0.00    +0.273 C 
ATOM     15  O   UNL     1       4.049  -3.870   8.767  0.00  0.00    -0.268 OA
ATOM     16  N   UNL     1       2.429  -4.262   7.278  0.00  0.00    -0.152 NA
ATOM     17  C   UNL     1       1.797  -3.846   6.209  0.00  0.00    +0.181 C 
ATOM     18  S   UNL     1       0.431  -4.561   5.332  0.00  0.00    -0.038 S 
ATOM     19  H   UNL     1       2.403  -0.181   5.050  0.00  0.00    +0.188 HD
BRANCH   7  20
ATOM     20  C   UNL     1      -0.551  -3.349   2.799  0.00  0.00    +0.064 C 
BRANCH  20  21
ATOM     21  C   UNL     1      -0.222  -2.131   1.932  0.00  0.00    +0.006 C 
BRANCH  21  23
ATOM     22  C   UNL     1      -0.823  -0.887  -0.149  0.00  0.00    +0.004 C 
ATOM     23  C   UNL     1      -1.152  -2.104   0.718  0.00  0.00    -0.003 C 
ENDBRANCH  21  23
ENDBRANCH  20  21
ENDBRANCH   7  20
ENDBRANCH   1  13
BRANCH   4  24
ATOM     24  O   UNL     1       9.058  -5.034   9.836  0.00  0.00    -0.489 OA
BRANCH  24  25
ATOM     25  C   UNL     1      10.066  -4.303  10.537  0.00  0.00    +0.270 C 
BRANCH  25  26
ATOM     26  C   UNL     1      10.987  -5.280  11.270  0.00  0.00    +0.270 C 
BRANCH  26  27
ATOM     27  O   UNL     1      11.693  -6.076  10.316  0.00  0.00    -0.488 OA
BRANCH  27  28
ATOM     28  C   UNL     1      12.560  -7.001  10.806  0.00  0.00    +0.124 A 
ATOM     29  C   UNL     1      12.723  -7.144  12.176  0.00  0.00    +0.046 A 
ATOM     30  C   UNL     1      13.605  -8.085  12.671  0.00  0.00    +0.007 A 
ATOM     31  C   UNL     1      14.324  -8.885  11.801  0.00  0.00    -0.050 A 
ATOM     32  C   UNL     1      14.163  -8.745  10.435  0.00  0.00    +0.010 A 
ATOM     33  C   UNL     1      13.278  -7.808   9.936  0.00  0.00    -0.009 A 
ATOM     34  C   UNL     1      13.099  -7.660   8.447  0.00  0.00    +0.047 C 
ATOM     35  C   UNL     1      15.285  -9.912  12.344  0.00  0.00    +0.044 C 
ENDBRANCH  27  28
ENDBRANCH  26  27
ENDBRANCH  25  26
ENDBRANCH  24  25
ENDBRANCH   4  24
TORSDOF 9
