REMARK  Name = ZINC39977440
REMARK  4 active torsions:
REMARK  status: ('A' for Active; 'I' for Inactive)
REMARK    1  A    between atoms: N_7  and  S_8
REMARK    2  A    between atoms: S_8  and  C_11
REMARK    3  A    between atoms: C_18  and  N_23
REMARK    4  A    between atoms: N_23  and  C_24
REMARK                            x       y       z     vdW  Elec       q    Type
REMARK                         _______ _______ _______ _____ _____    ______ ____
ROOT
ATOM      1  C   UNL     1       0.522   1.436  -0.625  0.00  0.00    +0.002 A 
ATOM      2  C   UNL     1       1.744   2.116  -0.486  0.00  0.00    +0.002 A 
ATOM      3  C   UNL     1       2.917   1.477  -0.288  0.00  0.00    +0.030 A 
ATOM      4  C   UNL     1       2.959   0.061  -0.210  0.00  0.00    +0.089 A 
ATOM      5  N   UNL     1       4.105  -0.556  -0.016  0.00  0.00    -0.226 NA
ATOM      6  C   UNL     1       4.180  -1.894   0.062  0.00  0.00    +0.192 C 
ATOM      7  N   UNL     1       5.324  -2.481   0.255  0.00  0.00    -0.110 NA
ATOM      8  C   UNL     1       2.913  -2.709  -0.076  0.00  0.00    +0.237 C 
ATOM      9  N   UNL     1       1.651  -1.985  -0.292  0.00  0.00    -0.359 N 
ATOM     10  C   UNL     1       1.683  -0.683  -0.353  0.00  0.00    +0.063 A 
ATOM     11  C   UNL     1       0.449   0.088  -0.567  0.00  0.00    +0.027 A 
ATOM     12  H   UNL     1       0.814  -2.465  -0.387  0.00  0.00    +0.162 HD
ENDROOT
BRANCH   7  13
ATOM     13  S   UNL     1       6.703  -1.577   0.406  0.00  0.00    +0.100 S 
ATOM     14  O   UNL     1       6.922  -0.957  -0.854  0.00  0.00    -0.146 OA
ATOM     15  O   UNL     1       6.571  -0.833   1.609  0.00  0.00    -0.146 OA
BRANCH  13  16
ATOM     16  C   UNL     1       8.038  -2.701   0.653  0.00  0.00    +0.113 A 
ATOM     17  C   UNL     1       8.389  -3.086   1.933  0.00  0.00    +0.030 A 
ATOM     18  C   UNL     1       9.436  -3.967   2.128  0.00  0.00    +0.017 A 
ATOM     19  C   UNL     1      10.132  -4.464   1.040  0.00  0.00    +0.018 A 
ATOM     20  C   UNL     1       9.780  -4.079  -0.241  0.00  0.00    +0.017 A 
ATOM     21  C   UNL     1       8.730  -3.201  -0.434  0.00  0.00    +0.030 A 
ATOM     22 BR   UNL     1      11.565  -5.670   1.306  0.00  0.00    -0.050 Br
ENDBRANCH  13  16
ENDBRANCH   7  13
BRANCH   8  23
ATOM     23  N   UNL     1       2.764  -3.514   1.139  0.00  0.00    -0.317 N 
ATOM     24  H   UNL     1       2.927  -3.115   2.008  0.00  0.00    +0.148 HD
BRANCH  23  25
ATOM     25  C   UNL     1       2.387  -4.856   1.046  0.00  0.00    +0.047 A 
ATOM     26  C   UNL     1       2.029  -5.395  -0.183  0.00  0.00    +0.024 A 
ATOM     27  C   UNL     1       1.657  -6.722  -0.272  0.00  0.00    +0.002 A 
ATOM     28  C   UNL     1       1.640  -7.515   0.862  0.00  0.00    +0.002 A 
ATOM     29  C   UNL     1       1.996  -6.982   2.087  0.00  0.00    +0.022 A 
ATOM     30  C   UNL     1       2.375  -5.657   2.182  0.00  0.00    +0.062 A 
ATOM     31 CL   UNL     1       2.828  -4.990   3.720  0.00  0.00    -0.082 Cl
ENDBRANCH  23  25
ENDBRANCH   8  23
TORSDOF 4
