REMARK  Name = ZINC39226393
REMARK  11 active torsions:
REMARK  status: ('A' for Active; 'I' for Inactive)
REMARK    1  A    between atoms: C_1  and  C_2
REMARK    2  A    between atoms: C_2  and  C_3
REMARK    3  A    between atoms: C_2  and  C_4
REMARK    4  A    between atoms: C_2  and  O_5
REMARK    5  A    between atoms: O_5  and  C_6
REMARK    6  A    between atoms: C_6  and  C_8
REMARK    7  A    between atoms: C_8  and  N_9
REMARK    8  A    between atoms: C_10  and  C_12
REMARK    9  A    between atoms: C_16  and  C_18
REMARK   10  A    between atoms: C_24  and  O_35
REMARK   11  A    between atoms: N_31  and  C_34
REMARK                            x       y       z     vdW  Elec       q    Type
REMARK                         _______ _______ _______ _____ _____    ______ ____
ROOT
ATOM      1  C   UNL     1       9.488   0.242  -5.478  0.00  0.00    -0.017 A 
ATOM      2  C   UNL     1       9.107  -0.542  -6.565  0.00  0.00    +0.012 A 
ATOM      3  C   UNL     1      10.012  -0.806  -7.569  0.00  0.00    +0.046 A 
ATOM      4  C   UNL     1      11.304  -0.292  -7.506  0.00  0.00    +0.127 A 
ATOM      5  C   UNL     1      11.683   0.492  -6.429  0.00  0.00    +0.023 A 
ATOM      6  C   UNL     1      10.778   0.761  -5.419  0.00  0.00    +0.018 A 
ATOM      7  C   UNL     1      13.069   1.078  -6.333  0.00  0.00    +0.152 C 
ATOM      8  C   UNL     1      14.014   0.329  -7.276  0.00  0.00    +0.084 C 
ATOM      9  C   UNL     1      13.338   0.216  -8.647  0.00  0.00    +0.110 C 
ATOM     10  O   UNL     1      12.165  -0.584  -8.515  0.00  0.00    -0.485 OA
ATOM     11  C   UNL     1      12.962   1.611  -9.149  0.00  0.00    +0.029 C 
ATOM     12  C   UNL     1      12.364   1.499 -10.553  0.00  0.00    -0.075 C 
ATOM     13  N   UNL     1      13.348   0.895 -11.460  0.00  0.00    +0.378 N 
ATOM     14  C   UNL     1      13.655  -0.472 -11.025  0.00  0.00    -0.075 C 
ATOM     15  C   UNL     1      14.303  -0.436  -9.639  0.00  0.00    +0.029 C 
ATOM     16  C   UNL     1      12.799   0.862 -12.823  0.00  0.00    -0.096 C 
ATOM     17  H   UNL     1      14.192   1.447 -11.454  0.00  0.00    -0.082 HD
ENDROOT
BRANCH   1  22
ATOM     18  C   UNL     1       6.325   0.285  -3.428  0.00  0.00    +0.037 A 
ATOM     19  C   UNL     1       6.719   1.078  -2.347  0.00  0.00    +0.013 A 
ATOM     20  C   UNL     1       8.000   1.588  -2.294  0.00  0.00    +0.001 A 
ATOM     21  C   UNL     1       8.900   1.319  -3.307  0.00  0.00    +0.008 A 
ATOM     22  C   UNL     1       8.519   0.529  -4.391  0.00  0.00    -0.017 A 
ATOM     23  C   UNL     1       7.232   0.006  -4.449  0.00  0.00    +0.021 A 
BRANCH  18  25
ATOM     24  N   UNL     1       4.078   0.009  -2.496  0.00  0.00    -0.301 N 
ATOM     25  C   UNL     1       4.953  -0.262  -3.484  0.00  0.00    +0.245 C 
ATOM     26  O   UNL     1       4.614  -0.956  -4.423  0.00  0.00    -0.270 OA
ATOM     27  H   UNL     1       4.349   0.562  -1.747  0.00  0.00    +0.150 HD
BRANCH  24  28
ATOM     28  C   UNL     1       2.718  -0.533  -2.552  0.00  0.00    +0.225 C 
BRANCH  28  29
ATOM     29  C   UNL     1       1.948  -0.086  -1.336  0.00  0.00    +0.325 C 
ATOM     30  O   UNL     1       2.481   0.614  -0.508  0.00  0.00    -0.249 OA
BRANCH  29  31
ATOM     31  O   UNL     1       0.671  -0.465  -1.174  0.00  0.00    -0.458 OA
BRANCH  31  33
ATOM     32  C   UNL     1      -0.019   1.526   0.010  0.00  0.00    +0.055 C 
ATOM     33  C   UNL     1       0.002  -0.004   0.002  0.00  0.00    +0.105 C 
ATOM     34  C   UNL     1       0.742  -0.511   1.242  0.00  0.00    +0.055 C 
ATOM     35  C   UNL     1      -1.433  -0.534   0.013  0.00  0.00    +0.055 C 
ENDBRANCH  31  33
ENDBRANCH  29  31
ENDBRANCH  28  29
ENDBRANCH  24  28
ENDBRANCH  18  25
ENDBRANCH   1  22
BRANCH   7  36
ATOM     36  O   UNL     1      13.544   0.957  -4.990  0.00  0.00    -0.387 OA
ATOM     37  H   UNL     1      12.996   1.411  -4.336  0.00  0.00    +0.210 HD
ENDBRANCH   7  36
TORSDOF 7
