REMARK  Name = ZINC12864339
REMARK  7 active torsions:
REMARK  status: ('A' for Active; 'I' for Inactive)
REMARK    1  A    between atoms: C_1  and  C_2
REMARK    2  A    between atoms: N_5  and  C_8
REMARK    3  A    between atoms: C_8  and  C_9
REMARK    4  A    between atoms: N_21  and  C_22
REMARK    5  A    between atoms: C_22  and  C_23
REMARK    6  A    between atoms: C_23  and  C_25
REMARK    7  A    between atoms: C_23  and  N_31
REMARK                            x       y       z     vdW  Elec       q    Type
REMARK                         _______ _______ _______ _____ _____    ______ ____
ROOT
ATOM      1  C   UNL     1      -1.767  -2.755   0.459  0.00  0.00    +0.116 A 
ATOM      2  N   UNL     1      -2.427  -1.653   0.764  0.00  0.00    -0.219 NA
ATOM      3  C   UNL     1      -1.821  -0.483   0.899  0.00  0.00    +0.131 A 
ATOM      4  C   UNL     1      -0.414  -0.411   0.709  0.00  0.00    +0.051 A 
ATOM      5  C   UNL     1       0.463   0.767   0.807  0.00  0.00    -0.025 A 
ATOM      6  C   UNL     1       1.772   0.570   0.583  0.00  0.00    -0.004 A 
ATOM      7  S   UNL     1       1.925  -1.166   0.229  0.00  0.00    -0.073 S 
ATOM      8  C   UNL     1       0.220  -1.624   0.387  0.00  0.00    +0.114 A 
ATOM      9  N   UNL     1      -0.461  -2.748   0.271  0.00  0.00    -0.227 NA
ATOM     10  C   UNL     1       2.569   1.840   0.715  0.00  0.00    +0.043 C 
ATOM     11  C   UNL     1       1.638   2.804   1.483  0.00  0.00    +0.010 C 
ATOM     12  C   UNL     1       0.246   2.251   1.119  0.00  0.00    +0.037 C 
ATOM     13  N   UNL     1      -2.546   0.650   1.219  0.00  0.00    -0.327 N 
ATOM     14  H   UNL     1      -2.034   1.618   1.330  0.00  0.00    +0.148 HD
ENDROOT
BRANCH   1  15
ATOM     15  C   UNL     1      -2.523  -4.051   0.321  0.00  0.00    -0.001 C 
BRANCH  15  20
ATOM     16  C   UNL     1      -3.643  -6.440   5.391  0.00  0.00    +0.007 C 
ATOM     17  C   UNL     1      -3.782  -5.697   4.061  0.00  0.00    -0.018 C 
ATOM     18  C   UNL     1      -3.417  -6.636   2.909  0.00  0.00    -0.016 C 
ATOM     19  C   UNL     1      -3.498  -5.870   1.587  0.00  0.00    -0.078 C 
ATOM     20  N   UNL     1      -2.574  -4.729   1.623  0.00  0.00    +0.384 N 
ATOM     21  C   UNL     1      -2.934  -3.789   2.692  0.00  0.00    -0.078 C 
ATOM     22  C   UNL     1      -2.836  -4.493   4.047  0.00  0.00    -0.016 C 
ATOM     23  H   UNL     1      -1.569  -5.118   1.843  0.00  0.00    -0.081 HD
ENDBRANCH  15  20
ENDBRANCH   1  15
BRANCH  13  24
ATOM     24  C   UNL     1      -3.995   0.563   1.412  0.00  0.00    +0.122 C 
BRANCH  24  25
ATOM     25  C   UNL     1      -4.566   1.965   1.635  0.00  0.00    +0.079 C 
BRANCH  25  26
ATOM     26  N   UNL     1      -5.921   1.860   2.192  0.00  0.00    -0.293 NA
ATOM     27  C   UNL     1      -6.584   3.172   2.216  0.00  0.00    +0.113 C 
ATOM     28  C   UNL     1      -8.011   3.006   2.747  0.00  0.00    +0.175 C 
ATOM     29  O   UNL     1      -7.965   2.399   4.041  0.00  0.00    -0.377 OA
ATOM     30  C   UNL     1      -7.326   1.120   4.054  0.00  0.00    +0.175 C 
ATOM     31  C   UNL     1      -5.893   1.266   3.537  0.00  0.00    +0.113 C 
ENDBRANCH  25  26
BRANCH  25  32
ATOM     32  C   UNL     1      -4.620   2.712   0.301  0.00  0.00    +0.035 C 
ATOM     33  C   UNL     1      -3.246   2.653  -0.422  0.00  0.00    +0.035 C 
ATOM     34  C   UNL     1      -3.692   2.766  -1.904  0.00  0.00    +0.160 C 
ATOM     35  O   UNL     1      -4.927   2.037  -1.984  0.00  0.00    -0.379 OA
ATOM     36  C   UNL     1      -5.551   1.989  -0.696  0.00  0.00    +0.165 C 
ENDBRANCH  25  32
ENDBRANCH  24  25
ENDBRANCH  13  24
TORSDOF 6
