REMARK  Name = ZINC02502433
REMARK  5 active torsions:
REMARK  status: ('A' for Active; 'I' for Inactive)
REMARK    1  A    between atoms: C_1  and  C_2
REMARK    2  A    between atoms: C_9  and  C_11
REMARK    3  A    between atoms: C_15  and  N_17
REMARK    4  A    between atoms: N_17  and  S_18
REMARK    5  A    between atoms: S_18  and  C_21
REMARK                            x       y       z     vdW  Elec       q    Type
REMARK                         _______ _______ _______ _____ _____    ______ ____
ROOT
ATOM      1  C   UNL     1       1.181   2.090   0.002  0.00  0.00    +0.004 A 
ATOM      2  C   UNL     1      -0.017   1.376   0.010  0.00  0.00    +0.010 A 
ATOM      3  C   UNL     1       0.002  -0.004   0.002  0.00  0.00    +0.002 A 
ATOM      4  C   UNL     1       1.206  -0.683  -0.014  0.00  0.00    +0.024 A 
ATOM      5  C   UNL     1       2.404   0.021  -0.022  0.00  0.00    +0.049 A 
ATOM      6  C   UNL     1       2.394   1.408  -0.014  0.00  0.00    +0.034 A 
ENDROOT
BRANCH   1  15
ATOM      7  C   UNL     1       4.050   6.852  -0.257  0.00  0.00    +0.047 C 
ATOM      8  C   UNL     1       2.550   6.854  -0.112  0.00  0.00    -0.008 A 
ATOM      9  C   UNL     1       1.869   8.029  -0.041  0.00  0.00    +0.008 A 
ATOM     10  C   UNL     1       0.471   8.016   0.095  0.00  0.00    +0.018 A 
ATOM     11  C   UNL     1      -0.197   6.844   0.154  0.00  0.00    +0.093 A 
ATOM     12  N   UNL     1       0.474   5.657   0.084  0.00  0.00    -0.306 N 
ATOM     13  C   UNL     1       1.839   5.638  -0.048  0.00  0.00    +0.141 A 
ATOM     14  N   UNL     1       2.236   4.374  -0.085  0.00  0.00    -0.228 NA
ATOM     15  C   UNL     1       1.162   3.574   0.010  0.00  0.00    +0.090 A 
ATOM     16  C   UNL     1       0.053   4.357   0.120  0.00  0.00    +0.121 A 
ENDBRANCH   1  15
BRANCH   5  17
ATOM     17  N   UNL     1       3.619  -0.669  -0.037  0.00  0.00    -0.216 N 
ATOM     18  H   UNL     1       4.340  -0.395   0.551  0.00  0.00    +0.174 HD
BRANCH  17  19
ATOM     19  S   UNL     1       3.829  -1.954  -1.060  0.00  0.00    +0.072 S 
ATOM     20  O   UNL     1       5.157  -2.418  -0.863  0.00  0.00    -0.150 OA
ATOM     21  O   UNL     1       2.695  -2.795  -0.894  0.00  0.00    -0.150 OA
BRANCH  19  22
ATOM     22  C   UNL     1       3.754  -1.328  -2.706  0.00  0.00    +0.109 A 
ATOM     23  C   UNL     1       2.542  -1.269  -3.368  0.00  0.00    +0.031 A 
ATOM     24  C   UNL     1       2.481  -0.773  -4.657  0.00  0.00    +0.040 A 
ATOM     25  C   UNL     1       3.637  -0.346  -5.288  0.00  0.00    +0.124 A 
ATOM     26  C   UNL     1       4.851  -0.410  -4.626  0.00  0.00    +0.040 A 
ATOM     27  C   UNL     1       4.908  -0.901  -3.336  0.00  0.00    +0.031 A 
ATOM     28  F   UNL     1       3.579   0.135  -6.550  0.00  0.00    -0.205 F 
ENDBRANCH  19  22
ENDBRANCH  17  19
ENDBRANCH   5  17
TORSDOF 4
