REMARK  Name = ZINC41350691
REMARK  10 active torsions:
REMARK  status: ('A' for Active; 'I' for Inactive)
REMARK    1  A    between atoms: C_1  and  C_2
REMARK    2  A    between atoms: C_4  and  C_8
REMARK    3  A    between atoms: N_6  and  C_7
REMARK    4  A    between atoms: C_11  and  S_16
REMARK    5  A    between atoms: N_12  and  C_13
REMARK    6  A    between atoms: C_13  and  C_14
REMARK    7  A    between atoms: C_13  and  C_15
REMARK    8  A    between atoms: S_16  and  C_17
REMARK    9  A    between atoms: C_17  and  C_18
REMARK   10  A    between atoms: C_17  and  C_19
REMARK                            x       y       z     vdW  Elec       q    Type
REMARK                         _______ _______ _______ _____ _____    ______ ____
ROOT
ATOM      1  C   UNL     1       0.041  -3.330  -1.534  0.00  0.00    +0.187 A 
ATOM      2  N   UNL     1       0.041  -3.338  -2.846  0.00  0.00    -0.127 NA
ATOM      3  N   UNL     1       0.053  -4.549  -3.277  0.00  0.00    -0.122 NA
ATOM      4  C   UNL     1       0.062  -5.388  -2.266  0.00  0.00    +0.192 A 
ATOM      5  N   UNL     1       0.060  -4.642  -1.122  0.00  0.00    -0.298 N 
ENDROOT
BRANCH   1   9
ATOM      6  C   UNL     1      -0.018   1.503   0.010  0.00  0.00    +0.067 C 
ATOM      7  C   UNL     1       0.002  -0.004   0.002  0.00  0.00    +0.055 A 
ATOM      8  C   UNL     1       0.008  -0.792  -1.095  0.00  0.00    +0.092 A 
ATOM      9  C   UNL     1       0.028  -2.135  -0.663  0.00  0.00    +0.148 A 
ATOM     10  N   UNL     1       0.034  -2.135   0.655  0.00  0.00    -0.167 NA
ATOM     11  N   UNL     1       0.023  -0.804   1.091  0.00  0.00    -0.270 N 
ATOM     12  C   UNL     1       0.031  -0.357   2.486  0.00  0.00    +0.172 C 
ATOM     13 CL   UNL     1      -0.006  -0.249  -2.744  0.00  0.00    -0.079 Cl
ENDBRANCH   1   9
BRANCH   5  14
ATOM     14  C   UNL     1       0.073  -5.136   0.257  0.00  0.00    +0.085 C 
ATOM     15  C   UNL     1      -1.164  -6.004   0.499  0.00  0.00    +0.030 C 
ATOM     16  C   UNL     1       1.334  -5.971   0.488  0.00  0.00    +0.030 C 
ENDBRANCH   5  14
BRANCH   4  17
ATOM     17  S   UNL     1       0.079  -7.147  -2.368  0.00  0.00    -0.083 S 
BRANCH  17  18
ATOM     18  C   UNL     1       0.082  -7.484  -4.150  0.00  0.00    +0.048 C 
ATOM     19  C   UNL     1       1.384  -6.967  -4.764  0.00  0.00    +0.019 C 
ATOM     20  C   UNL     1      -0.029  -8.992  -4.384  0.00  0.00    +0.019 C 
ENDBRANCH  17  18
ENDBRANCH   4  17
TORSDOF 4
