REMARK  Name = ZINC07292360
REMARK  13 active torsions:
REMARK  status: ('A' for Active; 'I' for Inactive)
REMARK    1  A    between atoms: C_1  and  C_2
REMARK    2  A    between atoms: C_2  and  C_3
REMARK    3  A    between atoms: C_3  and  C_4
REMARK    4  A    between atoms: C_4  and  C_5
REMARK    5  A    between atoms: C_5  and  C_6
REMARK    6  A    between atoms: C_6  and  C_8
REMARK    7  A    between atoms: C_6  and  N_9
REMARK    8  A    between atoms: C_10  and  C_12
REMARK    9  A    between atoms: C_12  and  S_13
REMARK   10  A    between atoms: S_13  and  C_14
REMARK   11  A    between atoms: C_17  and  C_20
REMARK   12  A    between atoms: N_18  and  N_19
REMARK   13  A    between atoms: C_23  and  C_26
REMARK                            x       y       z     vdW  Elec       q    Type
REMARK                         _______ _______ _______ _____ _____    ______ ____
ROOT
ATOM      1  C   UNL     1      -3.382  -8.438  -1.791  0.00  0.00    +0.209 A 
ATOM      2  N   UNL     1      -4.328  -7.711  -2.343  0.00  0.00    -0.121 NA
ATOM      3  N   UNL     1      -5.441  -8.353  -2.330  0.00  0.00    -0.127 NA
ATOM      4  C   UNL     1      -5.275  -9.528  -1.769  0.00  0.00    +0.182 A 
ATOM      5  N   UNL     1      -3.950  -9.620  -1.412  0.00  0.00    -0.224 N 
ENDROOT
BRANCH   4   6
ATOM      6  C   UNL     1      -6.314 -10.559  -1.565  0.00  0.00    +0.021 A 
ATOM      7  C   UNL     1      -6.088 -11.618  -0.684  0.00  0.00    +0.012 A 
ATOM      8  C   UNL     1      -7.062 -12.576  -0.497  0.00  0.00    +0.004 A 
ATOM      9  C   UNL     1      -8.261 -12.491  -1.182  0.00  0.00    -0.050 A 
ATOM     10  C   UNL     1      -8.492 -11.444  -2.057  0.00  0.00    +0.004 A 
ATOM     11  C   UNL     1      -7.529 -10.475  -2.248  0.00  0.00    +0.012 A 
ATOM     12  C   UNL     1      -9.321 -13.542  -0.973  0.00  0.00    +0.044 C 
ENDBRANCH   4   6
BRANCH   5  13
ATOM     13  N   UNL     1      -3.331 -10.675  -0.802  0.00  0.00    -0.295 N 
ATOM     14  H   UNL     1      -3.371 -10.586   0.202  0.00  0.00    +0.163 HD
ATOM     15  H   UNL     1      -3.729 -11.552  -1.104  0.00  0.00    +0.163 HD
ENDBRANCH   5  13
BRANCH   1  16
ATOM     16  S   UNL     1      -1.694  -7.975  -1.585  0.00  0.00    -0.075 S 
BRANCH  16  17
ATOM     17  C   UNL     1      -1.608  -6.307  -2.292  0.00  0.00    +0.173 C 
BRANCH  17  19
ATOM     18  N   UNL     1       0.106  -4.557  -2.642  0.00  0.00    -0.312 N 
ATOM     19  C   UNL     1      -0.198  -5.786  -2.179  0.00  0.00    +0.224 C 
ATOM     20  O   UNL     1       0.663  -6.472  -1.671  0.00  0.00    -0.275 OA
ATOM     21  H   UNL     1      -0.583  -4.008  -3.049  0.00  0.00    +0.149 HD
BRANCH  18  22
ATOM     22  C   UNL     1       1.476  -4.051  -2.532  0.00  0.00    +0.070 C 
ATOM     23  C   UNL     1       2.299  -4.543  -3.725  0.00  0.00    +0.028 C 
BRANCH  22  24
ATOM     24  C   UNL     1       1.455  -2.521  -2.524  0.00  0.00    +0.022 C 
BRANCH  24  25
ATOM     25  C   UNL     1       0.739  -2.027  -1.265  0.00  0.00    +0.002 C 
BRANCH  25  26
ATOM     26  C   UNL     1       0.718  -0.497  -1.257  0.00  0.00    -0.000 C 
BRANCH  26  28
ATOM     27  C   UNL     1      -0.019   1.526   0.010  0.00  0.00    +0.004 C 
ATOM     28  C   UNL     1       0.002  -0.004   0.002  0.00  0.00    -0.003 C 
ENDBRANCH  26  28
ENDBRANCH  25  26
ENDBRANCH  24  25
ENDBRANCH  22  24
ENDBRANCH  18  22
ENDBRANCH  17  19
ENDBRANCH  16  17
ENDBRANCH   1  16
TORSDOF 10
