REMARK  Name = ZINC39684362
REMARK  12 active torsions:
REMARK  status: ('A' for Active; 'I' for Inactive)
REMARK    1  A    between atoms: C_1  and  C_2
REMARK    2  A    between atoms: C_2  and  C_4
REMARK    3  A    between atoms: C_2  and  N_8
REMARK    4  A    between atoms: C_4  and  C_5
REMARK    5  A    between atoms: C_4  and  C_6
REMARK    6  A    between atoms: C_4  and  C_7
REMARK    7  A    between atoms: C_9  and  C_11
REMARK    8  A    between atoms: C_22  and  C_24
REMARK    9  A    between atoms: C_27  and  O_32
REMARK   10  A    between atoms: C_28  and  O_30
REMARK   11  A    between atoms: O_30  and  C_31
REMARK   12  A    between atoms: O_32  and  C_33
REMARK                            x       y       z     vdW  Elec       q    Type
REMARK                         _______ _______ _______ _____ _____    ______ ____
ROOT
ATOM      1  C   UNL     1       1.230  -1.300  -3.991  0.00  0.00    +0.100 C 
ATOM      2  C   UNL     1       1.627  -2.700  -3.472  0.00  0.00    +0.121 C 
ATOM      3  N   UNL     1       0.553  -3.598  -3.957  0.00  0.00    -0.296 N 
ATOM      4  C   UNL     1       0.249  -3.105  -5.322  0.00  0.00    +0.115 C 
ATOM      5  C   UNL     1       0.328  -1.570  -5.207  0.00  0.00    -0.004 C 
ATOM      6  C   UNL     1      -1.062  -0.987  -4.973  0.00  0.00    -0.010 C 
ATOM      7  C   UNL     1      -1.923  -1.218  -6.219  0.00  0.00    -0.082 C 
ATOM      8  N   UNL     1      -1.291  -0.579  -7.379  0.00  0.00    +0.379 N 
ATOM      9  C   UNL     1       0.007  -1.208  -7.652  0.00  0.00    -0.082 C 
ATOM     10  C   UNL     1       0.949  -0.977  -6.468  0.00  0.00    -0.010 C 
ATOM     11  C   UNL     1      -0.019  -4.629  -3.305  0.00  0.00    +0.247 C 
ATOM     12  O   UNL     1       0.250  -4.834  -2.137  0.00  0.00    -0.270 OA
ATOM     13  H   UNL     1      -1.889  -0.680  -8.185  0.00  0.00    -0.086 HD
ATOM     14  H   UNL     1      -1.153   0.402  -7.187  0.00  0.00    -0.086 HD
ENDROOT
BRANCH  11  15
ATOM     15  C   UNL     1      -0.973  -5.509  -4.008  0.00  0.00    +0.041 A 
ATOM     16  C   UNL     1      -0.965  -5.577  -5.404  0.00  0.00    +0.017 A 
ATOM     17  C   UNL     1      -1.855  -6.400  -6.058  0.00  0.00    +0.050 A 
ATOM     18  C   UNL     1      -2.762  -7.162  -5.335  0.00  0.00    +0.162 A 
ATOM     19  C   UNL     1      -2.776  -7.099  -3.942  0.00  0.00    +0.162 A 
ATOM     20  C   UNL     1      -1.882  -6.281  -3.279  0.00  0.00    +0.062 A 
BRANCH  19  21
ATOM     21  O   UNL     1      -3.667  -7.846  -3.236  0.00  0.00    -0.491 OA
ATOM     22  C   UNL     1      -3.624  -7.732  -1.812  0.00  0.00    +0.277 C 
ENDBRANCH  19  21
BRANCH  18  23
ATOM     23  O   UNL     1      -3.638  -7.971  -5.985  0.00  0.00    -0.491 OA
ATOM     24  C   UNL     1      -3.570  -7.987  -7.412  0.00  0.00    +0.277 C 
ENDBRANCH  18  23
ENDBRANCH  11  15
BRANCH   1  26
ATOM     25  N   UNL     1       0.442   0.803  -2.953  0.00  0.00    -0.312 N 
ATOM     26  C   UNL     1       0.470  -0.544  -2.931  0.00  0.00    +0.218 C 
ATOM     27  O   UNL     1      -0.117  -1.149  -2.059  0.00  0.00    -0.275 OA
ATOM     28  H   UNL     1       0.912   1.286  -3.651  0.00  0.00    +0.149 HD
BRANCH  25  30
ATOM     29  C   UNL     1      -1.767   1.647  -2.331  0.00  0.00    +0.028 C 
ATOM     30  C   UNL     1      -0.297   1.537  -1.923  0.00  0.00    +0.075 C 
BRANCH  30  31
ATOM     31  C   UNL     1       0.296   2.940  -1.772  0.00  0.00    -0.020 C 
ATOM     32  C   UNL     1      -0.475   3.707  -0.696  0.00  0.00    +0.012 C 
ATOM     33  C   UNL     1       1.767   2.830  -1.364  0.00  0.00    +0.012 C 
ATOM     34  C   UNL     1       0.191   3.684  -3.104  0.00  0.00    +0.012 C 
ENDBRANCH  30  31
ENDBRANCH  25  30
ENDBRANCH   1  26
TORSDOF 6
