REMARK  Name = ZINC15761144
REMARK  5 active torsions:
REMARK  status: ('A' for Active; 'I' for Inactive)
REMARK    1  A    between atoms: C_9  and  C_12
REMARK    2  A    between atoms: N_14  and  N_15
REMARK    3  A    between atoms: N_15  and  C_16
REMARK    4  A    between atoms: C_16  and  N_18
REMARK    5  A    between atoms: N_18  and  C_19
REMARK                            x       y       z     vdW  Elec       q    Type
REMARK                         _______ _______ _______ _____ _____    ______ ____
ROOT
ATOM      1  C   UNL     1      -3.536  -0.700   0.032  0.00  0.00    +0.270 C 
ATOM      2  O   UNL     1      -3.520  -1.912   0.025  0.00  0.00    -0.270 OA
ATOM      3  N   UNL     1      -2.378  -0.010   0.025  0.00  0.00    -0.232 N 
ATOM      4  H   UNL     1      -2.392   0.960   0.030  0.00  0.00    +0.173 HD
ENDROOT
BRANCH   1  13
ATOM      5  C   UNL     1      -9.247  -0.109   1.490  0.00  0.00    +0.023 A 
ATOM      6  C   UNL     1      -8.349  -0.728   0.645  0.00  0.00    +0.047 A 
ATOM      7  C   UNL     1      -6.996  -0.400   0.697  0.00  0.00    +0.125 A 
ATOM      8  C   UNL     1      -6.573   0.562   1.605  0.00  0.00    -0.000 A 
ATOM      9  C   UNL     1      -7.470   1.176   2.451  0.00  0.00    +0.027 A 
ATOM     10  C   UNL     1      -8.812   0.842   2.397  0.00  0.00    +0.041 A 
ATOM     11 CL   UNL     1      -9.946   1.613   3.461  0.00  0.00    -0.084 Cl
ATOM     12  C   UNL     1      -5.077   0.725   1.415  0.00  0.00    +0.093 C 
ATOM     13  C   UNL     1      -4.851   0.036   0.049  0.00  0.00    +0.264 C 
ATOM     14  O   UNL     1      -5.952  -0.886  -0.029  0.00  0.00    -0.479 OA
ENDBRANCH   1  13
BRANCH   3  15
ATOM     15  N   UNL     1      -1.156  -0.694   0.009  0.00  0.00    -0.246 N 
ATOM     16  H   UNL     1      -1.143  -1.664   0.004  0.00  0.00    +0.172 HD
BRANCH  15  17
ATOM     17  C   UNL     1       0.002  -0.004   0.002  0.00  0.00    +0.147 C 
ATOM     18  S   UNL     1       1.496  -0.840  -0.017  0.00  0.00    -0.017 S 
BRANCH  17  19
ATOM     19  N   UNL     1      -0.016   1.344   0.009  0.00  0.00    -0.323 N 
ATOM     20  H   UNL     1      -0.863   1.817   0.016  0.00  0.00    +0.148 HD
BRANCH  19  21
ATOM     21  C   UNL     1       1.242   2.093   0.001  0.00  0.00    +0.072 C 
ATOM     22  C   UNL     1       1.738   2.309   1.446  0.00  0.00    +0.022 C 
ATOM     23  C   UNL     1       2.352   3.731   1.429  0.00  0.00    +0.002 C 
ATOM     24  C   UNL     1       1.387   4.509   0.500  0.00  0.00    +0.002 C 
ATOM     25  C   UNL     1       1.019   3.492  -0.600  0.00  0.00    +0.022 C 
ENDBRANCH  19  21
ENDBRANCH  17  19
ENDBRANCH  15  17
ENDBRANCH   3  15
TORSDOF 5
