REMARK  Name = ZINC29221634
REMARK  13 active torsions:
REMARK  status: ('A' for Active; 'I' for Inactive)
REMARK    1  A    between atoms: C_1  and  C_2
REMARK    2  A    between atoms: C_2  and  C_3
REMARK    3  A    between atoms: C_3  and  N_4
REMARK    4  A    between atoms: C_5  and  C_7
REMARK    5  A    between atoms: C_7  and  N_8
REMARK    6  A    between atoms: C_11  and  N_14
REMARK    7  A    between atoms: C_15  and  C_17
REMARK    8  A    between atoms: C_19  and  C_29
REMARK    9  A    between atoms: N_25  and  C_26
REMARK   10  A    between atoms: C_26  and  C_27
REMARK   11  A    between atoms: C_26  and  C_28
REMARK   12  A    between atoms: C_31  and  C_35
REMARK   13  A    between atoms: C_33  and  C_34
REMARK                            x       y       z     vdW  Elec       q    Type
REMARK                         _______ _______ _______ _____ _____    ______ ____
ROOT
ATOM      1  N   UNL     1      -3.532   1.579   6.377  0.00  0.00    -0.309 N 
ATOM      2  C   UNL     1      -2.751   2.090   5.405  0.00  0.00    +0.245 C 
ATOM      3  O   UNL     1      -2.486   3.276   5.398  0.00  0.00    -0.270 OA
ATOM      4  H   UNL     1      -3.772   0.506   6.383  0.00  0.00    +0.149 HD
ENDROOT
BRANCH   2   5
ATOM      5  C   UNL     1      -2.215   1.207   4.347  0.00  0.00    +0.051 A 
ATOM      6  C   UNL     1      -2.504  -0.152   4.334  0.00  0.00    +0.042 A 
ATOM      7  C   UNL     1      -1.977  -0.954   3.316  0.00  0.00    +0.075 A 
ATOM      8  N   UNL     1      -1.210  -0.445   2.365  0.00  0.00    -0.227 NA
ATOM      9  C   UNL     1      -0.902   0.843   2.329  0.00  0.00    +0.160 A 
ATOM     10  C   UNL     1      -1.392   1.720   3.317  0.00  0.00    +0.051 A 
ATOM     11  C   UNL     1      -0.900   3.006   3.011  0.00  0.00    +0.145 A 
ATOM     12  N   UNL     1      -0.169   2.927   1.936  0.00  0.00    -0.177 NA
ATOM     13  N   UNL     1      -0.147   1.606   1.475  0.00  0.00    -0.244 N 
BRANCH   7  14
ATOM     14  C   UNL     1      -2.285  -2.403   3.301  0.00  0.00    +0.011 A 
ATOM     15  C   UNL     1      -3.085  -2.973   4.290  0.00  0.00    +0.021 A 
ATOM     16  C   UNL     1      -3.329  -4.301   4.213  0.00  0.00    -0.012 A 
ATOM     17  S   UNL     1      -2.423  -4.769   2.750  0.00  0.00    -0.098 S 
ATOM     18  C   UNL     1      -1.788  -3.214   2.322  0.00  0.00    -0.004 A 
ATOM     19  C   UNL     1      -0.905  -2.848   1.157  0.00  0.00    +0.052 C 
ATOM     20  C   UNL     1      -4.151  -5.165   5.133  0.00  0.00    +0.051 C 
ENDBRANCH   7  14
BRANCH  13  21
ATOM     21  C   UNL     1       0.564   1.121   0.290  0.00  0.00    +0.103 C 
ATOM     22  C   UNL     1       2.060   1.399   0.443  0.00  0.00    +0.032 C 
ATOM     23  C   UNL     1       0.036   1.841  -0.952  0.00  0.00    +0.032 C 
ENDBRANCH  13  21
ENDBRANCH   2   5
BRANCH   1  27
ATOM     24  N   UNL     1      -4.837   2.836  10.181  0.00  0.00    +0.385 N 
ATOM     25  C   UNL     1      -5.862   2.732   9.135  0.00  0.00    -0.076 C 
ATOM     26  C   UNL     1      -5.345   1.845   8.000  0.00  0.00    +0.004 C 
ATOM     27  C   UNL     1      -4.063   2.454   7.425  0.00  0.00    +0.070 C 
ATOM     28  C   UNL     1      -3.029   2.597   8.545  0.00  0.00    +0.004 C 
ATOM     29  C   UNL     1      -3.613   3.462   9.665  0.00  0.00    -0.076 C 
ATOM     30  H   UNL     1      -4.581   1.815  10.503  0.00  0.00    -0.081 HD
BRANCH  24  31
ATOM     31  C   UNL     1      -5.349   3.565  11.349  0.00  0.00    +0.019 C 
BRANCH  31  33
ATOM     32  N   UNL     1      -7.146   3.287  13.025  0.00  0.00    -0.317 N 
ATOM     33  C   UNL     1      -6.440   2.760  12.006  0.00  0.00    +0.196 C 
ATOM     34  O   UNL     1      -6.683   1.637  11.617  0.00  0.00    -0.278 OA
ATOM     35  H   UNL     1      -6.926   4.306  13.378  0.00  0.00    +0.149 HD
BRANCH  32  36
ATOM     36  C   UNL     1      -8.207   2.504  13.663  0.00  0.00    +0.104 C 
BRANCH  36  38
ATOM     37  C   UNL     1      -9.955   2.511  15.449  0.00  0.00    +0.005 C 
ATOM     38  C   UNL     1      -8.847   3.329  14.783  0.00  0.00    +0.015 C 
ENDBRANCH  36  38
ENDBRANCH  32  36
ENDBRANCH  31  33
ENDBRANCH  24  31
ENDBRANCH   1  27
TORSDOF 8
