REMARK  Name = ZINC40170368
REMARK  14 active torsions:
REMARK  status: ('A' for Active; 'I' for Inactive)
REMARK    1  A    between atoms: C_1  and  C_2
REMARK    2  A    between atoms: C_2  and  C_3
REMARK    3  A    between atoms: C_3  and  C_5
REMARK    4  A    between atoms: C_3  and  S_22
REMARK    5  A    between atoms: N_7  and  C_8
REMARK    6  A    between atoms: C_11  and  S_14
REMARK    7  A    between atoms: S_14  and  N_17
REMARK    8  A    between atoms: N_17  and  C_18
REMARK    9  A    between atoms: C_18  and  C_19
REMARK   10  A    between atoms: C_19  and  C_20
REMARK   11  A    between atoms: C_19  and  C_21
REMARK   12  A    between atoms: S_22  and  C_23
REMARK   13  A    between atoms: C_29  and  C_37
REMARK   14  A    between atoms: C_34  and  C_36
REMARK                            x       y       z     vdW  Elec       q    Type
REMARK                         _______ _______ _______ _____ _____    ______ ____
ROOT
ATOM      1  C   UNL     1       0.434  -0.703  -1.395  0.00  0.00    +0.140 C 
ENDROOT
BRANCH   1   2
ATOM      2  C   UNL     1       0.498  -2.183  -1.115  0.00  0.00    +0.231 C 
ATOM      3  O   UNL     1      -0.264  -2.940  -1.678  0.00  0.00    -0.274 OA
ATOM      4  N   UNL     1       1.403  -2.665  -0.240  0.00  0.00    -0.285 N 
ATOM      5  H   UNL     1       2.060  -2.070   0.155  0.00  0.00    +0.155 HD
BRANCH   4   6
ATOM      6  C   UNL     1       1.395  -4.022   0.098  0.00  0.00    +0.034 A 
ATOM      7  C   UNL     1       2.586  -4.675   0.388  0.00  0.00    +0.025 A 
ATOM      8  C   UNL     1       2.575  -6.015   0.722  0.00  0.00    +0.030 A 
ATOM      9  C   UNL     1       1.379  -6.707   0.767  0.00  0.00    +0.105 A 
ATOM     10  C   UNL     1       0.191  -6.061   0.478  0.00  0.00    +0.030 A 
ATOM     11  C   UNL     1       0.195  -4.719   0.150  0.00  0.00    +0.025 A 
BRANCH   9  12
ATOM     12  S   UNL     1       1.368  -8.417   1.193  0.00  0.00    +0.058 S 
ATOM     13  O   UNL     1       0.184  -8.968   0.633  0.00  0.00    -0.153 OA
ATOM     14  O   UNL     1       2.661  -8.920   0.886  0.00  0.00    -0.153 OA
BRANCH  12  15
ATOM     15  N   UNL     1       1.202  -8.511   2.838  0.00  0.00    -0.190 NA
ATOM     16  H   UNL     1       1.920  -8.878   3.378  0.00  0.00    +0.148 HD
BRANCH  15  17
ATOM     17  C   UNL     1      -0.028  -8.039   3.478  0.00  0.00    +0.109 C 
BRANCH  17  18
ATOM     18  C   UNL     1      -0.091  -8.566   4.913  0.00  0.00    -0.002 C 
ATOM     19  C   UNL     1      -1.310  -7.973   5.621  0.00  0.00    +0.008 C 
ATOM     20  C   UNL     1      -0.204 -10.091   4.892  0.00  0.00    +0.008 C 
ENDBRANCH  17  18
ENDBRANCH  15  17
ENDBRANCH  12  15
ENDBRANCH   9  12
ENDBRANCH   4   6
ENDBRANCH   1   2
BRANCH   1  22
ATOM     21  C   UNL     1      -0.282   1.509  -0.481  0.00  0.00    +0.005 C 
ATOM     22  C   UNL     1      -0.337  -0.005  -0.272  0.00  0.00    +0.020 C 
ENDBRANCH   1  22
BRANCH   1  23
ATOM     23  S   UNL     1      -0.412  -0.422  -2.974  0.00  0.00    -0.073 S 
BRANCH  23  24
ATOM     24  C   UNL     1       0.656  -1.158  -4.167  0.00  0.00    +0.197 A 
ATOM     25  N   UNL     1       1.779  -1.790  -3.878  0.00  0.00    -0.122 NA
ATOM     26  N   UNL     1       2.275  -2.310  -4.938  0.00  0.00    -0.129 NA
ATOM     27  C   UNL     1       1.472  -2.075  -5.957  0.00  0.00    +0.162 A 
ATOM     28  N   UNL     1       0.520  -1.169  -5.521  0.00  0.00    -0.270 N 
ATOM     29  C   UNL     1      -0.261  -0.513  -6.454  0.00  0.00    +0.061 A 
ATOM     30  C   UNL     1      -0.835   0.731  -6.243  0.00  0.00    -0.026 A 
ATOM     31  C   UNL     1      -1.784   1.219  -7.123  0.00  0.00    +0.005 A 
ATOM     32  C   UNL     1      -2.097   0.529  -8.282  0.00  0.00    +0.001 A 
ATOM     33  C   UNL     1      -1.400  -0.615  -8.604  0.00  0.00    +0.010 A 
ATOM     34  C   UNL     1      -0.420  -1.095  -7.734  0.00  0.00    +0.002 A 
ATOM     35  C   UNL     1       0.510  -2.147  -8.152  0.00  0.00    -0.038 A 
ATOM     36  C   UNL     1       1.450  -2.573  -7.279  0.00  0.00    +0.052 A 
ATOM     37  C   UNL     1       0.437  -2.754  -9.529  0.00  0.00    +0.044 C 
ATOM     38  C   UNL     1      -0.396   1.628  -5.115  0.00  0.00    +0.046 C 
ENDBRANCH  23  24
ENDBRANCH   1  23
TORSDOF 9
