REMARK  Name = ZINC08480542
REMARK  5 active torsions:
REMARK  status: ('A' for Active; 'I' for Inactive)
REMARK    1  A    between atoms: C_1  and  C_2
REMARK    2  A    between atoms: C_2  and  C_3
REMARK    3  A    between atoms: C_3  and  C_5
REMARK    4  A    between atoms: C_3  and  N_15
REMARK    5  A    between atoms: C_16  and  C_18
REMARK                            x       y       z     vdW  Elec       q    Type
REMARK                         _______ _______ _______ _____ _____    ______ ____
ROOT
ATOM      1  N   UNL     1      -1.035  -2.222  -0.001  0.00  0.00    -0.307 N 
ATOM      2  C   UNL     1      -1.187  -0.883   0.008  0.00  0.00    +0.266 C 
ATOM      3  O   UNL     1      -2.301  -0.398   0.021  0.00  0.00    -0.268 OA
ATOM      4  H   UNL     1      -0.145  -2.609  -0.011  0.00  0.00    +0.149 HD
ENDROOT
BRANCH   2   5
ATOM      5  C   UNL     1       0.002  -0.004   0.002  0.00  0.00    +0.168 A 
ATOM      6  C   UNL     1      -0.017   1.395   0.010  0.00  0.00    +0.117 A 
ATOM      7  C   UNL     1       1.299   1.832  -0.001  0.00  0.00    +0.175 A 
ATOM      8  N   UNL     1       1.845   3.057   0.001  0.00  0.00    -0.235 NA
ATOM      9  C   UNL     1       3.146   3.214  -0.011  0.00  0.00    +0.114 A 
ATOM     10  C   UNL     1       3.994   2.095  -0.025  0.00  0.00    +0.039 A 
ATOM     11  C   UNL     1       3.457   0.852  -0.027  0.00  0.00    +0.116 A 
ATOM     12  N   UNL     1       2.097   0.714  -0.014  0.00  0.00    -0.220 N 
ATOM     13  N   UNL     1       1.263  -0.410  -0.012  0.00  0.00    -0.159 NA
ATOM     14 CL   UNL     1      -1.431   2.402   0.022  0.00  0.00    -0.077 Cl
ENDBRANCH   2   5
BRANCH   1  15
ATOM     15  C   UNL     1      -2.213  -3.093   0.005  0.00  0.00    +0.079 C 
BRANCH  15  16
ATOM     16  C   UNL     1      -1.840  -4.450   0.604  0.00  0.00    -0.010 C 
ATOM     17  C   UNL     1      -0.735  -5.093  -0.236  0.00  0.00    +0.012 C 
ATOM     18  C   UNL     1      -0.363  -6.451   0.362  0.00  0.00    -0.010 C 
ATOM     19  C   UNL     1       0.135  -6.256   1.796  0.00  0.00    +0.007 C 
ATOM     20  C   UNL     1      -0.970  -5.614   2.637  0.00  0.00    -0.010 C 
ATOM     21  C   UNL     1      -1.343  -4.256   2.038  0.00  0.00    +0.012 C 
ATOM     22  C   UNL     1      -2.200  -6.523   2.643  0.00  0.00    +0.007 C 
ATOM     23  C   UNL     1      -2.698  -6.718   1.209  0.00  0.00    -0.010 C 
ATOM     24  C   UNL     1      -1.593  -7.360   0.369  0.00  0.00    +0.007 C 
ATOM     25  C   UNL     1      -3.071  -5.360   0.610  0.00  0.00    +0.012 C 
ENDBRANCH  15  16
BRANCH  15  27
ATOM     26  C   UNL     1      -3.199  -1.948  -1.984  0.00  0.00    +0.006 C 
ATOM     27  C   UNL     1      -2.710  -3.287  -1.429  0.00  0.00    +0.019 C 
ENDBRANCH  15  27
ENDBRANCH   1  15
TORSDOF 4
