REMARK  Name = ZINC24494836
REMARK  8 active torsions:
REMARK  status: ('A' for Active; 'I' for Inactive)
REMARK    1  A    between atoms: C_1  and  C_2
REMARK    2  A    between atoms: C_2  and  O_3
REMARK    3  A    between atoms: O_3  and  C_4
REMARK    4  A    between atoms: C_14  and  C_16
REMARK    5  A    between atoms: C_20  and  S_22
REMARK    6  A    between atoms: S_22  and  N_25
REMARK    7  A    between atoms: N_25  and  C_26
REMARK    8  A    between atoms: C_26  and  C_27
REMARK                            x       y       z     vdW  Elec       q    Type
REMARK                         _______ _______ _______ _____ _____    ______ ____
ROOT
ATOM      1  C   UNL     1       2.494  -0.620  10.257  0.00  0.00    +0.039 A 
ATOM      2  C   UNL     1       1.694  -0.069  11.261  0.00  0.00    +0.014 A 
ATOM      3  C   UNL     1       2.010  -0.284  12.585  0.00  0.00    +0.023 A 
ATOM      4  C   UNL     1       3.118  -1.045  12.922  0.00  0.00    +0.067 A 
ATOM      5  C   UNL     1       3.915  -1.594  11.931  0.00  0.00    +0.124 A 
ATOM      6  C   UNL     1       3.606  -1.390  10.602  0.00  0.00    +0.043 A 
ATOM      7 CL   UNL     1       3.509  -1.311  14.592  0.00  0.00    -0.082 Cl
ENDROOT
BRANCH   1  18
ATOM      8  C   UNL     1      -0.148   1.182   2.380  0.00  0.00    +0.122 A 
ATOM      9  C   UNL     1       0.998   0.394   2.430  0.00  0.00    +0.048 A 
ATOM     10  C   UNL     1       1.553   0.014   3.623  0.00  0.00    +0.032 A 
ATOM     11  C   UNL     1       0.975   0.413   4.850  0.00  0.00    +0.081 A 
ATOM     12  C   UNL     1      -0.188   1.212   4.764  0.00  0.00    +0.044 A 
ATOM     13  C   UNL     1      -0.738   1.595   3.566  0.00  0.00    +0.063 A 
ATOM     14  S   UNL     1      -0.585   1.488   6.474  0.00  0.00    -0.052 S 
ATOM     15  C   UNL     1       0.772   0.558   7.173  0.00  0.00    +0.166 A 
ATOM     16  N   UNL     1       1.396   0.127   6.103  0.00  0.00    -0.225 NA
ATOM     17  N   UNL     1       1.084   0.346   8.505  0.00  0.00    -0.261 N 
ATOM     18  C   UNL     1       2.161  -0.394   8.835  0.00  0.00    +0.250 C 
ATOM     19  O   UNL     1       2.859  -0.874   7.964  0.00  0.00    -0.270 OA
ATOM     20  H   UNL     1       0.453   0.781   9.294  0.00  0.00    +0.157 HD
BRANCH   8  21
ATOM     21  O   UNL     1      -0.682   1.547   1.184  0.00  0.00    -0.492 OA
BRANCH  21  23
ATOM     22  C   UNL     1      -0.753   1.593  -1.232  0.00  0.00    +0.048 C 
ATOM     23  C   UNL     1      -0.013   1.086   0.008  0.00  0.00    +0.225 C 
ENDBRANCH  21  23
ENDBRANCH   8  21
ENDBRANCH   1  18
BRANCH   5  24
ATOM     24  S   UNL     1       5.322  -2.560  12.369  0.00  0.00    +0.060 S 
ATOM     25  O   UNL     1       4.883  -3.501  13.339  0.00  0.00    -0.153 OA
ATOM     26  O   UNL     1       5.939  -2.954  11.151  0.00  0.00    -0.153 OA
BRANCH  24  27
ATOM     27  N   UNL     1       6.388  -1.552  13.136  0.00  0.00    -0.187 NA
ATOM     28  H   UNL     1       7.287  -1.212  12.600  0.00  0.00    +0.148 HD
BRANCH  27  29
ATOM     29  C   UNL     1       6.031  -0.950  14.423  0.00  0.00    +0.137 C 
BRANCH  29  30
ATOM     30  C   UNL     1       7.288  -0.384  15.088  0.00  0.00    +0.134 C 
ATOM     31  C   UNL     1       6.957   0.144  16.501  0.00  0.00    +0.035 C 
ATOM     32  C   UNL     1       7.834   1.408  16.644  0.00  0.00    +0.031 C 
ATOM     33  C   UNL     1       8.591   1.494  15.300  0.00  0.00    +0.160 C 
ATOM     34  O   UNL     1       7.763   0.771  14.363  0.00  0.00    -0.375 OA
ENDBRANCH  29  30
ENDBRANCH  27  29
ENDBRANCH  24  27
ENDBRANCH   5  24
TORSDOF 7
