REMARK  Name = ZINC48625778
REMARK  5 active torsions:
REMARK  status: ('A' for Active; 'I' for Inactive)
REMARK    1  A    between atoms: C_1  and  C_2
REMARK    2  A    between atoms: C_7  and  C_11
REMARK    3  A    between atoms: C_11  and  N_12
REMARK    4  A    between atoms: N_12  and  C_13
REMARK    5  A    between atoms: C_14  and  C_19
REMARK                            x       y       z     vdW  Elec       q    Type
REMARK                         _______ _______ _______ _____ _____    ______ ____
ROOT
ATOM      1  C   UNL     1      -0.018   1.503   0.010  0.00  0.00    +0.045 C 
ATOM      2  C   UNL     1       0.002  -0.004   0.002  0.00  0.00    -0.034 A 
ATOM      3  C   UNL     1       0.006  -0.697  -1.220  0.00  0.00    +0.008 A 
ATOM      4  C   UNL     1       0.025  -2.057  -1.224  0.00  0.00    +0.045 A 
ATOM      5  C   UNL     1       0.040  -2.750   0.003  0.00  0.00    +0.115 A 
ATOM      6  N   UNL     1       0.059  -4.043   0.297  0.00  0.00    -0.342 N 
ATOM      7  C   UNL     1       0.067  -4.189   1.625  0.00  0.00    +0.051 A 
ATOM      8  C   UNL     1       0.053  -2.964   2.194  0.00  0.00    +0.115 A 
ATOM      9  N   UNL     1       0.036  -2.047   1.179  0.00  0.00    -0.308 N 
ATOM     10  C   UNL     1       0.022  -0.682   1.169  0.00  0.00    +0.096 A 
ATOM     11  H   UNL     1       0.066  -4.766  -0.348  0.00  0.00    +0.167 HD
ENDROOT
BRANCH   7  12
ATOM     12  C   UNL     1       0.088  -5.503   2.364  0.00  0.00    +0.157 C 
BRANCH  12  13
ATOM     13  N   UNL     1       1.471  -5.968   2.492  0.00  0.00    -0.331 N 
ATOM     14  H   UNL     1       2.197  -5.441   2.124  0.00  0.00    +0.147 HD
BRANCH  13  15
ATOM     15  C   UNL     1       1.742  -7.160   3.138  0.00  0.00    +0.105 A 
ATOM     16  C   UNL     1       2.979  -7.765   3.366  0.00  0.00    +0.118 A 
ATOM     17  C   UNL     1       2.908  -8.977   4.055  0.00  0.00    +0.157 A 
ATOM     18  N   UNL     1       1.724  -9.401   4.402  0.00  0.00    -0.196 NA
ATOM     19  S   UNL     1       0.665  -8.232   3.849  0.00  0.00    +0.029 S 
ATOM     20 CL   UNL     1       4.338  -9.884   4.436  0.00  0.00    -0.060 Cl
BRANCH  16  21
ATOM     21  C   UNL     1       4.217  -7.191   2.930  0.00  0.00    +0.105 C 
ATOM     22  N   UNL     1       5.198  -6.736   2.584  0.00  0.00    -0.191 NA
ENDBRANCH  16  21
ENDBRANCH  13  15
ENDBRANCH  12  13
ENDBRANCH   7  12
TORSDOF 4
