REMARK  Name = ZINC09320067
REMARK  4 active torsions:
REMARK  status: ('A' for Active; 'I' for Inactive)
REMARK    1  A    between atoms: C_1  and  C_2
REMARK    2  A    between atoms: C_7  and  N_8
REMARK    3  A    between atoms: C_9  and  C_11
REMARK    4  A    between atoms: N_19  and  C_20
REMARK                            x       y       z     vdW  Elec       q    Type
REMARK                         _______ _______ _______ _____ _____    ______ ____
ROOT
ATOM      1  C   UNL     1       4.916   8.010   0.556  0.00  0.00    +0.135 A 
ATOM      2  C   UNL     1       5.974   7.140   0.567  0.00  0.00    +0.081 A 
ATOM      3  S   UNL     1       5.170   5.609   0.406  0.00  0.00    -0.060 S 
ATOM      4  C   UNL     1       3.494   6.222   0.337  0.00  0.00    +0.166 A 
ATOM      5  N   UNL     1       3.679   7.522   0.435  0.00  0.00    -0.220 NA
ATOM      6  N   UNL     1       2.307   5.513   0.208  0.00  0.00    -0.248 N 
ATOM      7  C   UNL     1       2.332   4.168   0.116  0.00  0.00    +0.310 C 
ATOM      8  O   UNL     1       3.394   3.576   0.146  0.00  0.00    -0.252 OA
ATOM      9  N   UNL     1       1.180   3.480  -0.009  0.00  0.00    -0.269 N 
ATOM     10  H   UNL     1       1.460   5.985   0.184  0.00  0.00    +0.158 HD
ATOM     11  H   UNL     1       0.340   3.955  -0.108  0.00  0.00    +0.156 HD
ENDROOT
BRANCH   9  12
ATOM     12  C   UNL     1       1.196   2.080   0.004  0.00  0.00    +0.035 A 
ATOM     13  C   UNL     1       2.122   1.402   0.785  0.00  0.00    +0.026 A 
ATOM     14  C   UNL     1       2.136   0.021   0.796  0.00  0.00    +0.040 A 
ATOM     15  C   UNL     1       1.227  -0.688   0.029  0.00  0.00    +0.124 A 
ATOM     16  C   UNL     1       0.303  -0.014  -0.751  0.00  0.00    +0.040 A 
ATOM     17  C   UNL     1       0.286   1.367  -0.765  0.00  0.00    +0.026 A 
ATOM     18  F   UNL     1       1.243  -2.039   0.041  0.00  0.00    -0.205 F 
ENDBRANCH   9  12
BRANCH   1  20
ATOM     19  N   UNL     1       4.090  10.306   0.662  0.00  0.00    -0.280 N 
ATOM     20  C   UNL     1       5.139   9.460   0.673  0.00  0.00    +0.267 C 
ATOM     21  O   UNL     1       6.271   9.894   0.779  0.00  0.00    -0.268 OA
ATOM     22  H   UNL     1       3.186   9.957   0.644  0.00  0.00    +0.155 HD
BRANCH  19  29
ATOM     23  C   UNL     1       2.231  11.971  -0.704  0.00  0.00    +0.045 C 
ATOM     24  C   UNL     1       3.424  12.537   0.022  0.00  0.00    -0.029 A 
ATOM     25  C   UNL     1       3.641  13.901   0.037  0.00  0.00    +0.005 A 
ATOM     26  C   UNL     1       4.735  14.421   0.704  0.00  0.00    +0.000 A 
ATOM     27  C   UNL     1       5.616  13.578   1.357  0.00  0.00    +0.002 A 
ATOM     28  C   UNL     1       5.402  12.214   1.349  0.00  0.00    +0.023 A 
ATOM     29  C   UNL     1       4.307  11.688   0.676  0.00  0.00    +0.037 A 
ENDBRANCH  19  29
ENDBRANCH   1  20
TORSDOF 3
