REMARK  Name = ZINC13640622
REMARK  12 active torsions:
REMARK  status: ('A' for Active; 'I' for Inactive)
REMARK    1  A    between atoms: C_1  and  C_2
REMARK    2  A    between atoms: C_2  and  N_3
REMARK    3  A    between atoms: N_3  and  C_4
REMARK    4  A    between atoms: N_3  and  S_10
REMARK    5  A    between atoms: S_10  and  C_13
REMARK    6  A    between atoms: C_26  and  C_29
REMARK    7  A    between atoms: C_31  and  O_39
REMARK    8  A    between atoms: C_32  and  O_37
REMARK    9  A    between atoms: C_33  and  O_35
REMARK   10  A    between atoms: O_35  and  C_36
REMARK   11  A    between atoms: O_37  and  C_38
REMARK   12  A    between atoms: O_39  and  C_40
REMARK                            x       y       z     vdW  Elec       q    Type
REMARK                         _______ _______ _______ _____ _____    ______ ____
ROOT
ATOM      1  C   UNL     1       1.089   1.906  -3.393  0.00  0.00    +0.109 A 
ATOM      2  C   UNL     1      -0.039   2.591  -3.809  0.00  0.00    +0.030 A 
ATOM      3  C   UNL     1      -0.448   3.717  -3.123  0.00  0.00    +0.025 A 
ATOM      4  C   UNL     1       0.272   4.158  -2.020  0.00  0.00    +0.031 A 
ATOM      5  C   UNL     1       1.403   3.477  -1.600  0.00  0.00    -0.018 A 
ATOM      6  C   UNL     1       1.804   2.345  -2.297  0.00  0.00    +0.034 A 
ATOM      7  C   UNL     1       2.212   3.917  -0.421  0.00  0.00    +0.049 C 
ATOM      8  C   UNL     1       1.972   3.027   0.776  0.00  0.00    -0.023 C 
ATOM      9  C   UNL     1       1.993   3.736   1.878  0.00  0.00    -0.030 C 
ATOM     10  C   UNL     1       2.254   5.197   1.567  0.00  0.00    +0.033 C 
ATOM     11  C   UNL     1       1.835   5.328   0.073  0.00  0.00    +0.029 C 
ATOM     12  C   UNL     1       0.315   5.504   0.040  0.00  0.00    +0.105 C 
ATOM     13  N   UNL     1      -0.157   5.300  -1.334  0.00  0.00    -0.336 N 
ATOM     14  H   UNL     1      -0.751   5.940  -1.756  0.00  0.00    +0.147 HD
ENDROOT
BRANCH  12  15
ATOM     15  C   UNL     1      -0.331   4.491   0.951  0.00  0.00    -0.020 A 
ATOM     16  C   UNL     1      -0.663   3.241   0.466  0.00  0.00    +0.055 A 
ATOM     17  C   UNL     1      -1.257   2.306   1.300  0.00  0.00    +0.165 A 
ATOM     18  C   UNL     1      -1.518   2.629   2.627  0.00  0.00    +0.204 A 
ATOM     19  C   UNL     1      -1.182   3.888   3.111  0.00  0.00    +0.165 A 
ATOM     20  C   UNL     1      -0.593   4.818   2.268  0.00  0.00    +0.055 A 
BRANCH  19  21
ATOM     21  O   UNL     1      -1.436   4.208   4.408  0.00  0.00    -0.491 OA
ATOM     22  C   UNL     1      -1.176   5.556   4.806  0.00  0.00    +0.277 C 
ENDBRANCH  19  21
BRANCH  18  23
ATOM     23  O   UNL     1      -2.101   1.715   3.449  0.00  0.00    -0.488 OA
ATOM     24  C   UNL     1      -3.529   1.714   3.509  0.00  0.00    +0.277 C 
ENDBRANCH  18  23
BRANCH  17  25
ATOM     25  O   UNL     1      -1.584   1.076   0.822  0.00  0.00    -0.491 OA
ATOM     26  C   UNL     1      -1.287   0.814  -0.551  0.00  0.00    +0.277 C 
ENDBRANCH  17  25
ENDBRANCH  12  15
BRANCH   1  27
ATOM     27  S   UNL     1       1.614   0.468  -4.264  0.00  0.00    +0.075 S 
ATOM     28  O   UNL     1       2.501  -0.229  -3.401  0.00  0.00    -0.150 OA
ATOM     29  O   UNL     1       0.442  -0.133  -4.800  0.00  0.00    -0.150 OA
BRANCH  27  30
ATOM     30  N   UNL     1       2.515   0.980  -5.556  0.00  0.00    -0.203 N 
BRANCH  30  31
ATOM     31  C   UNL     1       3.902   1.097  -5.437  0.00  0.00    +0.051 A 
ATOM     32  C   UNL     1       4.477   1.328  -4.193  0.00  0.00    +0.025 A 
ATOM     33  C   UNL     1       5.848   1.439  -4.078  0.00  0.00    +0.002 A 
ATOM     34  C   UNL     1       6.649   1.331  -5.201  0.00  0.00    +0.000 A 
ATOM     35  C   UNL     1       6.080   1.107  -6.441  0.00  0.00    +0.002 A 
ATOM     36  C   UNL     1       4.709   0.990  -6.562  0.00  0.00    +0.025 A 
ENDBRANCH  30  31
BRANCH  30  38
ATOM     37  C   UNL     1       1.676   2.825  -6.924  0.00  0.00    +0.026 C 
ATOM     38  C   UNL     1       1.858   1.310  -6.823  0.00  0.00    +0.128 C 
ENDBRANCH  30  38
ENDBRANCH  27  30
ENDBRANCH   1  27
TORSDOF 8
