REMARK  Name = ZINC09008687
REMARK  6 active torsions:
REMARK  status: ('A' for Active; 'I' for Inactive)
REMARK    1  A    between atoms: C_1  and  C_2
REMARK    2  A    between atoms: C_5  and  C_7
REMARK    3  A    between atoms: C_9  and  C_13
REMARK    4  A    between atoms: N_15  and  N_16
REMARK    5  A    between atoms: C_17  and  C_18
REMARK    6  A    between atoms: C_22  and  N_24
REMARK                            x       y       z     vdW  Elec       q    Type
REMARK                         _______ _______ _______ _____ _____    ______ ____
ROOT
ATOM      1  C   UNL     1       3.575  -6.671  -0.048  0.00  0.00    +0.281 C 
ATOM      2  O   UNL     1       4.693  -6.192  -0.045  0.00  0.00    -0.267 OA
ATOM      3  N   UNL     1       3.415  -8.009  -0.058  0.00  0.00    -0.202 N 
ATOM      4  H   UNL     1       2.523  -8.391  -0.060  0.00  0.00    +0.178 HD
ENDROOT
BRANCH   1   7
ATOM      5  C   UNL     1       1.040  -4.035  -0.027  0.00  0.00    +0.100 A 
ATOM      6  C   UNL     1       2.398  -4.408  -0.030  0.00  0.00    +0.063 A 
ATOM      7  C   UNL     1       2.397  -5.789  -0.040  0.00  0.00    +0.122 A 
ATOM      8  N   UNL     1       1.086  -6.176  -0.043  0.00  0.00    -0.272 N 
ATOM      9  H   UNL     1       0.776  -7.096  -0.050  0.00  0.00    +0.189 HD
ATOM     10  N   UNL     1       0.324  -5.142  -0.029  0.00  0.00    -0.173 NA
BRANCH   5  15
ATOM     11  C   UNL     1      -0.018   1.503   0.010  0.00  0.00    +0.051 C 
ATOM     12  C   UNL     1       0.002  -0.004   0.002  0.00  0.00    -0.013 A 
ATOM     13  C   UNL     1      -1.042  -0.872   0.002  0.00  0.00    +0.011 A 
ATOM     14  C   UNL     1      -0.789  -2.227  -0.007  0.00  0.00    +0.018 A 
ATOM     15  C   UNL     1       0.512  -2.653  -0.016  0.00  0.00    +0.040 A 
ATOM     16  S   UNL     1       1.405  -1.107  -0.018  0.00  0.00    -0.092 S 
ENDBRANCH   5  15
ENDBRANCH   1   7
BRANCH   3  17
ATOM     17  N   UNL     1       4.537  -8.848  -0.065  0.00  0.00    -0.187 NA
ATOM     18  C   UNL     1       4.383 -10.137  -0.075  0.00  0.00    +0.138 C 
BRANCH  18  19
ATOM     19  C   UNL     1       5.564 -11.021  -0.083  0.00  0.00    -0.003 A 
ATOM     20  C   UNL     1       6.849 -10.474  -0.073  0.00  0.00    +0.009 A 
ATOM     21  C   UNL     1       7.949 -11.306  -0.080  0.00  0.00    +0.003 A 
ATOM     22  C   UNL     1       7.781 -12.680  -0.096  0.00  0.00    +0.033 A 
ATOM     23  C   UNL     1       6.511 -13.228  -0.106  0.00  0.00    +0.127 A 
ATOM     24  C   UNL     1       5.402 -12.408  -0.093  0.00  0.00    +0.042 A 
BRANCH  23  25
ATOM     25  N   UNL     1       6.342 -14.699  -0.124  0.00  0.00    +0.056 N 
ATOM     26  O   UNL     1       7.313 -15.419  -0.131  0.00  0.00    -0.126 OA
ATOM     27  O   UNL     1       5.232 -15.179  -0.133  0.00  0.00    -0.126 OA
ENDBRANCH  23  25
ENDBRANCH  18  19
ENDBRANCH   3  17
TORSDOF 5
