REMARK  Name = ZINC32579247
REMARK  9 active torsions:
REMARK  status: ('A' for Active; 'I' for Inactive)
REMARK    1  A    between atoms: C_1  and  C_2
REMARK    2  A    between atoms: C_4  and  O_5
REMARK    3  A    between atoms: N_13  and  C_14
REMARK    4  A    between atoms: C_14  and  N_16
REMARK    5  A    between atoms: N_16  and  N_17
REMARK    6  A    between atoms: C_18  and  C_20
REMARK    7  A    between atoms: C_20  and  C_22
REMARK    8  A    between atoms: C_20  and  O_23
REMARK    9  A    between atoms: O_23  and  C_24
REMARK                            x       y       z     vdW  Elec       q    Type
REMARK                         _______ _______ _______ _____ _____    ______ ____
ROOT
ATOM      1  N   UNL     1      -6.957   1.197   1.581  0.00  0.00    -0.246 N 
ATOM      2  H   UNL     1      -6.847   0.108   1.686  0.00  0.00    +0.172 HD
ENDROOT
BRANCH   1   3
ATOM      3  N   UNL     1      -5.863   1.976   1.181  0.00  0.00    -0.232 N 
ATOM      4  C   UNL     1      -4.676   1.391   0.925  0.00  0.00    +0.270 C 
ATOM      5  O   UNL     1      -4.555   0.190   1.040  0.00  0.00    -0.270 OA
ATOM      6  H   UNL     1      -5.973   3.066   1.077  0.00  0.00    +0.173 HD
BRANCH   4   7
ATOM      7  C   UNL     1      -3.500   2.229   0.495  0.00  0.00    +0.257 C 
ATOM      8  C   UNL     1      -3.842   2.957  -0.807  0.00  0.00    +0.062 C 
BRANCH   7   9
ATOM      9  O   UNL     1      -2.366   1.385   0.285  0.00  0.00    -0.479 OA
BRANCH   9  10
ATOM     10  C   UNL     1      -1.140   1.953   0.429  0.00  0.00    +0.129 A 
ATOM     11  C   UNL     1      -1.024   3.303   0.605  0.00  0.00    +0.046 A 
ATOM     12  C   UNL     1       0.225   3.901   0.748  0.00  0.00    +0.004 A 
ATOM     13  C   UNL     1       1.366   3.158   0.722  0.00  0.00    +0.009 A 
ATOM     14  C   UNL     1       1.289   1.766   0.548  0.00  0.00    -0.014 A 
ATOM     15  C   UNL     1       0.020   1.153   0.402  0.00  0.00    +0.024 A 
ATOM     16  C   UNL     1      -0.057  -0.238   0.226  0.00  0.00    +0.012 A 
ATOM     17  C   UNL     1       1.085  -0.978   0.199  0.00  0.00    +0.001 A 
ATOM     18  C   UNL     1       2.334  -0.376   0.343  0.00  0.00    +0.001 A 
ATOM     19  C   UNL     1       2.447   0.970   0.514  0.00  0.00    +0.008 A 
ENDBRANCH   9  10
ENDBRANCH   7   9
ENDBRANCH   4   7
ENDBRANCH   1   3
BRANCH   1  20
ATOM     20  C   UNL     1      -8.143   1.782   1.838  0.00  0.00    +0.151 C 
ATOM     21  S   UNL     1      -9.479   0.830   2.326  0.00  0.00    -0.017 S 
BRANCH  20  33
ATOM     22  C   UNL     1     -14.465   5.025   2.629  0.00  0.00    +0.045 C 
ATOM     23  C   UNL     1     -13.141   5.593   3.073  0.00  0.00    -0.033 A 
ATOM     24  C   UNL     1     -13.084   6.726   3.820  0.00  0.00    +0.091 A 
ATOM     25  C   UNL     1     -11.833   7.238   4.223  0.00  0.00    +0.285 A 
ATOM     26  O   UNL     1     -10.682   6.633   3.888  0.00  0.00    -0.425 OA
ATOM     27  C   UNL     1     -10.669   5.504   3.147  0.00  0.00    +0.141 A 
ATOM     28  C   UNL     1     -11.883   4.939   2.710  0.00  0.00    +0.021 A 
ATOM     29  C   UNL     1     -11.874   3.768   1.943  0.00  0.00    +0.013 A 
ATOM     30  C   UNL     1     -10.688   3.180   1.615  0.00  0.00    +0.024 A 
ATOM     31  C   UNL     1      -9.482   3.732   2.049  0.00  0.00    +0.036 A 
ATOM     32  C   UNL     1      -9.473   4.892   2.810  0.00  0.00    +0.070 A 
ATOM     33  N   UNL     1      -8.278   3.117   1.709  0.00  0.00    -0.296 N 
ATOM     34  H   UNL     1      -7.437   3.721   1.337  0.00  0.00    +0.154 HD
BRANCH  25  35
ATOM     35  O   UNL     1     -11.796   8.254   4.893  0.00  0.00    -0.480 OA
ATOM     36  H   UNL     1     -10.828   8.665   5.216  0.00  0.00    +0.295 HD
ENDBRANCH  25  35
ENDBRANCH  20  33
ENDBRANCH   1  20
TORSDOF 7
