REMARK  Name = ZINC15859308
REMARK  8 active torsions:
REMARK  status: ('A' for Active; 'I' for Inactive)
REMARK    1  A    between atoms: C_1  and  C_2
REMARK    2  A    between atoms: C_7  and  C_9
REMARK    3  A    between atoms: C_7  and  C_17
REMARK    4  A    between atoms: C_7  and  N_61
REMARK    5  A    between atoms: C_12  and  O_15
REMARK    6  A    between atoms: O_15  and  C_16
REMARK    7  A    between atoms: C_18  and  N_26
REMARK    8  A    between atoms: C_27  and  C_29
REMARK                            x       y       z     vdW  Elec       q    Type
REMARK                         _______ _______ _______ _____ _____    ______ ____
ROOT
ATOM      1  C   UNL     1      -1.531   4.566   1.072  0.00  0.00    +0.118 A 
ATOM      2  C   UNL     1      -2.291   4.146   0.045  0.00  0.00    +0.082 A 
ATOM      3  C   UNL     1      -1.377   3.978  -1.096  0.00  0.00    +0.042 A 
ATOM      4  C   UNL     1      -1.538   3.581  -2.421  0.00  0.00    +0.013 A 
ATOM      5  C   UNL     1      -0.451   3.524  -3.249  0.00  0.00    +0.001 A 
ATOM      6  C   UNL     1       0.808   3.870  -2.780  0.00  0.00    +0.004 A 
ATOM      7  C   UNL     1       0.986   4.271  -1.473  0.00  0.00    +0.047 A 
ATOM      8  C   UNL     1      -0.105   4.330  -0.614  0.00  0.00    +0.137 A 
ATOM      9  O   UNL     1      -0.246   4.673   0.682  0.00  0.00    -0.459 OA
ENDROOT
BRANCH   2  10
ATOM     10  N   UNL     1      -3.676   3.916   0.058  0.00  0.00    -0.276 N 
ATOM     11  C   UNL     1      -4.150   2.671   0.258  0.00  0.00    +0.284 C 
ATOM     12  O   UNL     1      -3.383   1.762   0.519  0.00  0.00    -0.266 OA
ATOM     13  H   UNL     1      -4.292   4.654  -0.077  0.00  0.00    +0.155 HD
BRANCH  11  14
ATOM     14  C   UNL     1      -5.590   2.410   0.161  0.00  0.00    +0.189 A 
ATOM     15  C   UNL     1      -6.200   1.202   0.340  0.00  0.00    +0.054 A 
ATOM     16  C   UNL     1      -7.576   1.413   0.155  0.00  0.00    +0.042 A 
ATOM     17  C   UNL     1      -7.743   2.724  -0.124  0.00  0.00    +0.196 A 
ATOM     18  O   UNL     1      -6.544   3.323  -0.114  0.00  0.00    -0.458 OA
ENDBRANCH  11  14
ENDBRANCH   2  10
BRANCH   1  19
ATOM     19  C   UNL     1      -2.042   4.871   2.457  0.00  0.00    +0.032 C 
BRANCH  19  26
ATOM     20  C   UNL     1       0.698   2.036   6.595  0.00  0.00    +0.007 C 
ATOM     21  C   UNL     1      -0.379   2.539   5.630  0.00  0.00    -0.018 C 
ATOM     22  C   UNL     1      -0.577   4.044   5.825  0.00  0.00    -0.015 C 
ATOM     23  C   UNL     1      -1.610   4.553   4.817  0.00  0.00    -0.077 C 
ATOM     24  C   UNL     1      -0.990   2.832   3.227  0.00  0.00    -0.077 C 
ATOM     25  C   UNL     1       0.062   2.272   4.188  0.00  0.00    -0.015 C 
ATOM     26  N   UNL     1      -1.116   4.288   3.449  0.00  0.00    +0.389 N 
ATOM     27  H   UNL     1      -0.192   4.723   3.339  0.00  0.00    -0.080 HD
ENDBRANCH  19  26
BRANCH  19  28
ATOM     28  C   UNL     1      -2.093   6.364   2.655  0.00  0.00    -0.053 A 
ATOM     29  C   UNL     1      -0.939   7.058   2.971  0.00  0.00    +0.006 A 
ATOM     30  C   UNL     1      -0.982   8.428   3.148  0.00  0.00    +0.046 A 
ATOM     31  C   UNL     1      -2.186   9.105   3.021  0.00  0.00    +0.120 A 
ATOM     32  C   UNL     1      -3.343   8.406   2.710  0.00  0.00    +0.046 A 
ATOM     33  C   UNL     1      -3.294   7.037   2.528  0.00  0.00    +0.006 A 
BRANCH  31  34
ATOM     34  O   UNL     1      -2.232  10.451   3.201  0.00  0.00    -0.495 OA
ATOM     35  C   UNL     1      -1.002  11.105   3.520  0.00  0.00    +0.277 C 
ENDBRANCH  31  34
ENDBRANCH  19  28
ENDBRANCH   1  19
TORSDOF 6
