REMARK  Name = ZINC44862198
REMARK  6 active torsions:
REMARK  status: ('A' for Active; 'I' for Inactive)
REMARK    1  A    between atoms: C_1  and  C_2
REMARK    2  A    between atoms: C_2  and  C_3
REMARK    3  A    between atoms: C_2  and  C_4
REMARK    4  A    between atoms: C_4  and  C_6
REMARK    5  A    between atoms: C_4  and  C_10
REMARK    6  A    between atoms: N_7  and  O_8
REMARK                            x       y       z     vdW  Elec       q    Type
REMARK                         _______ _______ _______ _____ _____    ______ ____
ROOT
ATOM      1  C   UNL     1      -1.349  -0.552  -0.025  0.00  0.00    +0.144 C 
ENDROOT
BRANCH   1   2
ATOM      2  C   UNL     1      -1.139  -2.043  -0.088  0.00  0.00    +0.226 C 
ATOM      3  O   UNL     1      -1.519  -2.669  -1.055  0.00  0.00    -0.275 OA
ATOM      4  N   UNL     1      -0.530  -2.681   0.931  0.00  0.00    -0.296 N 
ATOM      5  C   UNL     1      -0.412  -4.147   0.928  0.00  0.00    +0.113 C 
ATOM      6  C   UNL     1       1.078  -4.511   0.842  0.00  0.00    +0.061 C 
ATOM      7  C   UNL     1       1.843  -3.618   1.764  0.00  0.00    -0.004 A 
ATOM      8  C   UNL     1       1.432  -2.452   2.332  0.00  0.00    -0.020 A 
ATOM      9  C   UNL     1       2.348  -1.800   3.155  0.00  0.00    +0.013 A 
ATOM     10  C   UNL     1       3.574  -2.333   3.360  0.00  0.00    +0.046 A 
ATOM     11  S   UNL     1       3.496  -3.822   2.375  0.00  0.00    -0.101 S 
ATOM     12  C   UNL     1       0.031  -1.922   2.057  0.00  0.00    +0.143 C 
ENDBRANCH   1   2
BRANCH   1  13
ATOM     13  C   UNL     1      -2.652  -0.257   0.672  0.00  0.00    +0.144 C 
ATOM     14  N   UNL     1      -3.727  -0.068  -0.020  0.00  0.00    -0.076 NA
ATOM     15  N   UNL     1      -2.697  -0.188   2.047  0.00  0.00    -0.343 N 
ATOM     16  H   UNL     1      -1.890  -0.330   2.566  0.00  0.00    +0.144 HD
ATOM     17  H   UNL     1      -3.536   0.002   2.496  0.00  0.00    +0.144 HD
BRANCH  14  18
ATOM     18  O   UNL     1      -4.951   0.209   0.635  0.00  0.00    -0.408 OA
ATOM     19  H   UNL     1      -5.699   0.335   0.035  0.00  0.00    +0.328 HD
ENDBRANCH  14  18
ENDBRANCH   1  13
BRANCH   1  21
ATOM     20  C   UNL     1      -1.585   1.534  -1.381  0.00  0.00    +0.008 C 
ATOM     21  C   UNL     1      -1.390   0.017  -1.445  0.00  0.00    +0.002 C 
ATOM     22  C   UNL     1      -0.074  -0.298  -2.159  0.00  0.00    +0.008 C 
ENDBRANCH   1  21
TORSDOF 4
