REMARK  Name = ZINC14655034
REMARK  13 active torsions:
REMARK  status: ('A' for Active; 'I' for Inactive)
REMARK    1  A    between atoms: C_1  and  C_2
REMARK    2  A    between atoms: C_2  and  C_3
REMARK    3  A    between atoms: C_3  and  C_4
REMARK    4  A    between atoms: C_4  and  N_5
REMARK    5  A    between atoms: C_6  and  N_30
REMARK    6  A    between atoms: C_7  and  N_14
REMARK    7  A    between atoms: N_14  and  C_15
REMARK    8  A    between atoms: C_16  and  C_18
REMARK    9  A    between atoms: C_20  and  O_28
REMARK   10  A    between atoms: C_21  and  O_25
REMARK   11  A    between atoms: O_25  and  C_26
REMARK   12  A    between atoms: C_26  and  C_27
REMARK   13  A    between atoms: O_28  and  C_29
REMARK                            x       y       z     vdW  Elec       q    Type
REMARK                         _______ _______ _______ _____ _____    ______ ____
ROOT
ATOM      1  N   UNL     1       0.557   1.364  -0.943  0.00  0.00    -0.280 N 
ATOM      2  C   UNL     1       0.541   0.086  -0.433  0.00  0.00    +0.127 A 
ATOM      3  C   UNL     1       1.352  -0.876  -0.999  0.00  0.00    +0.140 A 
ATOM      4  C   UNL     1       2.173  -0.519  -2.085  0.00  0.00    +0.277 A 
ATOM      5  O   UNL     1       2.900  -1.349  -2.604  0.00  0.00    -0.266 OA
ATOM      6  N   UNL     1       2.151   0.747  -2.547  0.00  0.00    -0.273 N 
ATOM      7  H   UNL     1       2.735   1.001  -3.318  0.00  0.00    +0.173 HD
ATOM      8  C   UNL     1       1.355   1.671  -1.983  0.00  0.00    +0.331 A 
ATOM      9  O   UNL     1       1.355   2.806  -2.420  0.00  0.00    -0.246 OA
ENDROOT
BRANCH   3  10
ATOM     10  N   UNL     1       1.358  -2.194  -0.498  0.00  0.00    -0.263 N 
ATOM     11  C   UNL     1       0.147  -3.014  -0.578  0.00  0.00    +0.139 C 
ATOM     12  C   UNL     1       2.478  -2.700   0.055  0.00  0.00    +0.251 C 
ATOM     13  O   UNL     1       2.462  -3.807   0.558  0.00  0.00    -0.270 OA
BRANCH  12  14
ATOM     14  C   UNL     1       3.725  -1.910   0.050  0.00  0.00    +0.042 A 
ATOM     15  C   UNL     1       4.964  -2.557   0.021  0.00  0.00    +0.062 A 
ATOM     16  C   UNL     1       6.128  -1.813   0.016  0.00  0.00    +0.163 A 
ATOM     17  C   UNL     1       6.066  -0.421   0.040  0.00  0.00    +0.176 A 
ATOM     18  C   UNL     1       4.836   0.222   0.068  0.00  0.00    +0.064 A 
ATOM     19  C   UNL     1       3.670  -0.514   0.068  0.00  0.00    +0.032 A 
ATOM     20 BR   UNL     1       4.759   2.111   0.102  0.00  0.00    -0.046 Br
BRANCH  16  21
ATOM     21  O   UNL     1       7.335  -2.440  -0.013  0.00  0.00    -0.491 OA
ATOM     22  C   UNL     1       7.324  -3.869  -0.037  0.00  0.00    +0.277 C 
ENDBRANCH  16  21
BRANCH  17  23
ATOM     23  O   UNL     1       7.212   0.308   0.035  0.00  0.00    -0.487 OA
BRANCH  23  24
ATOM     24  C   UNL     1       7.741   0.678  -1.240  0.00  0.00    +0.226 C 
ATOM     25  C   UNL     1       9.024   1.489  -1.044  0.00  0.00    +0.048 C 
ENDBRANCH  23  24
ENDBRANCH  17  23
ENDBRANCH  12  14
ENDBRANCH   3  10
BRANCH   2  26
ATOM     26  N   UNL     1      -0.274  -0.228   0.629  0.00  0.00    -0.343 N 
ATOM     27  H   UNL     1      -0.784   0.469   1.071  0.00  0.00    +0.144 HD
ATOM     28  H   UNL     1      -0.339  -1.145   0.935  0.00  0.00    +0.144 HD
ENDBRANCH   2  26
BRANCH   1  29
ATOM     29  C   UNL     1      -0.303   2.394  -0.356  0.00  0.00    +0.128 C 
BRANCH  29  30
ATOM     30  C   UNL     1       0.450   3.107   0.769  0.00  0.00    +0.021 C 
BRANCH  30  32
ATOM     31  C   UNL     1       0.305   4.896   2.507  0.00  0.00    +0.004 C 
ATOM     32  C   UNL     1      -0.448   4.183   1.382  0.00  0.00    -0.002 C 
ENDBRANCH  30  32
ENDBRANCH  29  30
ENDBRANCH   1  29
TORSDOF 9
