REMARK  Name = ZINC01582814
REMARK  2 active torsions:
REMARK  status: ('A' for Active; 'I' for Inactive)
REMARK    1  A    between atoms: C_1  and  C_2
REMARK    2  A    between atoms: C_3  and  C_14
REMARK                            x       y       z     vdW  Elec       q    Type
REMARK                         _______ _______ _______ _____ _____    ______ ____
ROOT
ATOM      1  C   UNL     1       0.369   5.313  -2.419  0.00  0.00    +0.040 C 
ATOM      2  C   UNL     1      -0.323   4.463  -1.384  0.00  0.00    -0.058 C 
ATOM      3  C   UNL     1      -1.486   3.796  -1.362  0.00  0.00    -0.052 C 
ATOM      4  C   UNL     1      -1.298   3.284   0.053  0.00  0.00    +0.116 C 
ATOM      5  C   UNL     1       0.051   4.046   0.025  0.00  0.00    +0.125 C 
ATOM      6  C   UNL     1       1.295   3.182   0.008  0.00  0.00    +0.230 C 
ATOM      7  O   UNL     1       2.396   3.689   0.000  0.00  0.00    -0.275 OA
ATOM      8  N   UNL     1       1.160   1.844   0.001  0.00  0.00    -0.240 N 
ATOM      9  C   UNL     1      -0.014   1.211   0.009  0.00  0.00    +0.306 C 
ATOM     10  O   UNL     1       0.002  -0.004   0.002  0.00  0.00    -0.252 OA
ATOM     11  N   UNL     1      -1.212   1.815   0.018  0.00  0.00    -0.292 N 
ATOM     12  C   UNL     1      -2.588   3.625  -2.376  0.00  0.00    +0.041 C 
ATOM     13  H   UNL     1       1.967   1.306  -0.011  0.00  0.00    +0.159 HD
ATOM     14  H   UNL     1      -2.022   1.282   0.019  0.00  0.00    +0.151 HD
ENDROOT
TORSDOF 0
