REMARK  Name = ZINC06077583
REMARK  14 active torsions:
REMARK  status: ('A' for Active; 'I' for Inactive)
REMARK    1  A    between atoms: C_1  and  C_2
REMARK    2  A    between atoms: C_2  and  C_3
REMARK    3  A    between atoms: C_3  and  C_4
REMARK    4  A    between atoms: C_3  and  C_5
REMARK    5  A    between atoms: C_3  and  N_6
REMARK    6  A    between atoms: C_7  and  C_11
REMARK    7  A    between atoms: C_11  and  C_13
REMARK    8  A    between atoms: C_11  and  N_76
REMARK    9  A    between atoms: C_17  and  O_25
REMARK   10  A    between atoms: O_25  and  C_26
REMARK   11  A    between atoms: C_26  and  C_27
REMARK   12  A    between atoms: N_30  and  C_33
REMARK   13  A    between atoms: C_38  and  O_39
REMARK   14  A    between atoms: O_39  and  C_40
REMARK                            x       y       z     vdW  Elec       q    Type
REMARK                         _______ _______ _______ _____ _____    ______ ____
ROOT
ATOM      1  C   UNL     1       2.310   1.138  -0.117  0.00  0.00    +0.039 C 
ENDROOT
BRANCH   1   2
ATOM      2  C   UNL     1       0.937   1.758  -0.138  0.00  0.00    +0.011 A 
ATOM      3  C   UNL     1      -0.159   0.977   0.027  0.00  0.00    +0.017 A 
ATOM      4  C   UNL     1      -1.480   1.608  -0.004  0.00  0.00    +0.002 A 
ATOM      5  C   UNL     1      -2.646   0.852   0.155  0.00  0.00    +0.055 A 
ATOM      6  C   UNL     1      -3.875   1.479   0.120  0.00  0.00    +0.121 A 
ATOM      7  C   UNL     1      -3.956   2.857  -0.072  0.00  0.00    +0.047 A 
ATOM      8  C   UNL     1      -2.815   3.613  -0.219  0.00  0.00    +0.030 A 
ATOM      9  C   UNL     1      -1.567   3.000  -0.192  0.00  0.00    +0.049 A 
ATOM     10  N   UNL     1      -0.412   3.739  -0.354  0.00  0.00    -0.322 N 
ATOM     11  H   UNL     1      -0.475   4.728  -0.491  0.00  0.00    +0.169 HD
ATOM     12  C   UNL     1       0.796   3.149  -0.329  0.00  0.00    +0.251 A 
ATOM     13  O   UNL     1       1.794   3.833  -0.476  0.00  0.00    -0.268 OA
BRANCH   6  14
ATOM     14  O   UNL     1      -5.012   0.749   0.274  0.00  0.00    -0.492 OA
BRANCH  14  15
ATOM     15  C   UNL     1      -6.250   1.460   0.227  0.00  0.00    +0.225 C 
ATOM     16  C   UNL     1      -7.409   0.479   0.417  0.00  0.00    +0.048 C 
ENDBRANCH  14  15
ENDBRANCH   6  14
ENDBRANCH   1   2
BRANCH   1  22
ATOM     17  C   UNL     1       2.314   1.055  -2.537  0.00  0.00    -0.058 C 
ATOM     18  C   UNL     1       3.057   1.530  -3.788  0.00  0.00    +0.086 C 
ATOM     19  N   UNL     1       4.429   1.003  -3.769  0.00  0.00    -0.331 N 
ATOM     20  C   UNL     1       5.149   1.458  -2.572  0.00  0.00    +0.086 C 
ATOM     21  C   UNL     1       4.405   0.983  -1.321  0.00  0.00    -0.058 C 
ATOM     22  N   UNL     1       3.036   1.538  -1.341  0.00  0.00    +0.391 N 
ATOM     23  H   UNL     1       3.092   2.563  -1.376  0.00  0.00    -0.080 HD
BRANCH  19  24
ATOM     24  C   UNL     1       5.119   1.357  -4.934  0.00  0.00    +0.072 A 
ATOM     25  C   UNL     1       4.567   2.274  -5.817  0.00  0.00    +0.027 A 
ATOM     26  C   UNL     1       5.252   2.627  -6.965  0.00  0.00    +0.002 A 
ATOM     27  C   UNL     1       6.483   2.059  -7.241  0.00  0.00    +0.004 A 
ATOM     28  C   UNL     1       7.036   1.141  -6.368  0.00  0.00    +0.047 A 
ATOM     29  C   UNL     1       6.358   0.786  -5.214  0.00  0.00    +0.141 A 
BRANCH  29  30
ATOM     30  O   UNL     1       6.901  -0.118  -4.355  0.00  0.00    -0.493 OA
ATOM     31  C   UNL     1       8.175  -0.662  -4.705  0.00  0.00    +0.277 C 
ENDBRANCH  29  30
ENDBRANCH  19  24
ENDBRANCH   1  22
BRANCH   1  33
ATOM     32  N   UNL     1       3.418   0.919   2.170  0.00  0.00    -0.225 N 
ATOM     33  C   UNL     1       3.068   1.637   1.087  0.00  0.00    +0.143 A 
ATOM     34  N   UNL     1       3.518   2.853   1.279  0.00  0.00    -0.115 NA
ATOM     35  N   UNL     1       4.108   2.881   2.425  0.00  0.00    -0.023 NA
ATOM     36  N   UNL     1       4.052   1.714   2.964  0.00  0.00    -0.043 NA
BRANCH  32  37
ATOM     37  C   UNL     1       3.135  -0.500   2.402  0.00  0.00    +0.061 C 
ATOM     38  C   UNL     1       1.624  -0.735   2.338  0.00  0.00    +0.036 C 
ATOM     39  C   UNL     1       3.828  -1.341   1.329  0.00  0.00    +0.036 C 
BRANCH  37  41
ATOM     40  C   UNL     1       3.359  -2.385   4.026  0.00  0.00    +0.006 C 
ATOM     41  C   UNL     1       3.655  -0.904   3.783  0.00  0.00    +0.026 C 
ENDBRANCH  37  41
ENDBRANCH  32  37
ENDBRANCH   1  33
TORSDOF 9
