REMARK  Name = ZINC53370061
REMARK  10 active torsions:
REMARK  status: ('A' for Active; 'I' for Inactive)
REMARK    1  A    between atoms: C_1  and  C_2
REMARK    2  A    between atoms: C_5  and  N_9
REMARK    3  A    between atoms: C_7  and  C_8
REMARK    4  A    between atoms: N_9  and  C_10
REMARK    5  A    between atoms: C_10  and  N_12
REMARK    6  A    between atoms: N_12  and  N_13
REMARK    7  A    between atoms: C_14  and  C_16
REMARK    8  A    between atoms: C_18  and  S_25
REMARK    9  A    between atoms: C_21  and  N_22
REMARK   10  A    between atoms: S_25  and  C_26
REMARK                            x       y       z     vdW  Elec       q    Type
REMARK                         _______ _______ _______ _____ _____    ______ ____
ROOT
ATOM      1  N   UNL     1      -0.017  -6.968  -0.061  0.00  0.00    -0.231 N 
ATOM      2  C   UNL     1      -0.139  -8.310  -0.020  0.00  0.00    +0.262 C 
ATOM      3  O   UNL     1      -0.240  -8.943  -1.052  0.00  0.00    -0.269 OA
ATOM      4  H   UNL     1       0.065  -6.463   0.763  0.00  0.00    +0.173 HD
ENDROOT
BRANCH   2   5
ATOM      5  C   UNL     1      -0.148  -9.012   1.282  0.00  0.00    +0.069 A 
ATOM      6  C   UNL     1       0.899  -8.826   2.184  0.00  0.00    +0.030 A 
ATOM      7  C   UNL     1       0.883  -9.488   3.403  0.00  0.00    +0.008 A 
ATOM      8  C   UNL     1      -0.175 -10.333   3.722  0.00  0.00    +0.017 A 
ATOM      9  C   UNL     1      -1.212 -10.516   2.827  0.00  0.00    +0.034 A 
ATOM     10  C   UNL     1      -1.208  -9.857   1.614  0.00  0.00    +0.138 A 
BRANCH  10  11
ATOM     11  N   UNL     1      -2.325 -10.053   0.662  0.00  0.00    +0.057 N 
ATOM     12  O   UNL     1      -3.174 -10.883   0.888  0.00  0.00    -0.126 OA
ATOM     13  O   UNL     1      -2.388  -9.382  -0.342  0.00  0.00    -0.126 OA
ENDBRANCH  10  11
BRANCH   7  14
ATOM     14  S   UNL     1       2.203  -9.259   4.548  0.00  0.00    -0.129 S 
ATOM     15  C   UNL     1       1.746 -10.304   5.959  0.00  0.00    +0.090 C 
ENDBRANCH   7  14
ENDBRANCH   2   5
BRANCH   1  16
ATOM     16  N   UNL     1      -0.008  -6.304  -1.294  0.00  0.00    -0.245 N 
ATOM     17  H   UNL     1      -0.089  -6.809  -2.118  0.00  0.00    +0.172 HD
BRANCH  16  18
ATOM     18  C   UNL     1       0.114  -4.962  -1.336  0.00  0.00    +0.151 C 
ATOM     19  S   UNL     1       0.125  -4.150  -2.842  0.00  0.00    -0.017 S 
BRANCH  18  20
ATOM     20  N   UNL     1       0.227  -4.260  -0.191  0.00  0.00    -0.296 N 
ATOM     21  H   UNL     1       0.303  -4.724   0.657  0.00  0.00    +0.154 HD
BRANCH  20  26
ATOM     22  C   UNL     1       0.258   1.411  -0.332  0.00  0.00    +0.044 C 
ATOM     23  C   UNL     1       0.249  -0.096  -0.294  0.00  0.00    -0.047 A 
ATOM     24  C   UNL     1      -0.620  -0.801  -1.106  0.00  0.00    +0.005 A 
ATOM     25  C   UNL     1      -0.630  -2.182  -1.074  0.00  0.00    +0.023 A 
ATOM     26  C   UNL     1       0.235  -2.861  -0.226  0.00  0.00    +0.033 A 
ATOM     27  C   UNL     1       1.107  -2.150   0.588  0.00  0.00    +0.027 A 
ATOM     28  C   UNL     1       1.115  -0.769   0.548  0.00  0.00    -0.046 A 
ATOM     29  C   UNL     1       2.065   0.004   1.426  0.00  0.00    +0.044 C 
ENDBRANCH  20  26
ENDBRANCH  18  20
ENDBRANCH  16  18
ENDBRANCH   1  16
TORSDOF 7
