REMARK  Name = ZINC15984348
REMARK  5 active torsions:
REMARK  status: ('A' for Active; 'I' for Inactive)
REMARK    1  A    between atoms: C_1  and  C_2
REMARK    2  A    between atoms: C_5  and  O_8
REMARK    3  A    between atoms: O_8  and  C_9
REMARK    4  A    between atoms: C_14  and  N_15
REMARK    5  A    between atoms: C_16  and  C_18
REMARK                            x       y       z     vdW  Elec       q    Type
REMARK                         _______ _______ _______ _____ _____    ______ ____
ROOT
ATOM      1  N   UNL     1       4.845   5.327  -0.028  0.00  0.00    -0.278 N 
ATOM      2  C   UNL     1       4.763   4.115  -0.613  0.00  0.00    +0.255 C 
ATOM      3  O   UNL     1       5.743   3.629  -1.145  0.00  0.00    -0.270 OA
ATOM      4  H   UNL     1       4.046   5.751   0.322  0.00  0.00    +0.155 HD
ENDROOT
BRANCH   2   5
ATOM      5  C   UNL     1       3.488   3.379  -0.607  0.00  0.00    +0.122 A 
ATOM      6  C   UNL     1       2.365   3.921  -0.005  0.00  0.00    +0.031 A 
ATOM      7  C   UNL     1       1.157   3.178  -0.024  0.00  0.00    +0.018 A 
ATOM      8  C   UNL     1       0.000   3.697   0.577  0.00  0.00    +0.011 A 
ATOM      9  C   UNL     1      -1.159   2.977   0.554  0.00  0.00    +0.001 A 
ATOM     10  C   UNL     1      -1.204   1.734  -0.063  0.00  0.00    +0.004 A 
ATOM     11  C   UNL     1      -0.078   1.202  -0.654  0.00  0.00    +0.047 A 
ATOM     12  C   UNL     1       1.115   1.917  -0.645  0.00  0.00    +0.139 A 
ATOM     13  O   UNL     1       2.216   1.396  -1.230  0.00  0.00    -0.422 OA
ATOM     14  C   UNL     1       3.384   2.059  -1.240  0.00  0.00    +0.350 A 
ATOM     15  O   UNL     1       4.358   1.564  -1.775  0.00  0.00    -0.244 OA
ENDBRANCH   2   5
BRANCH   1  21
ATOM     16  C   UNL     1       6.139   7.361   0.184  0.00  0.00    +0.150 A 
ATOM     17  C   UNL     1       7.367   7.995   0.284  0.00  0.00    +0.048 A 
ATOM     18  C   UNL     1       8.532   7.252   0.272  0.00  0.00    +0.004 A 
ATOM     19  C   UNL     1       8.477   5.874   0.161  0.00  0.00    +0.002 A 
ATOM     20  C   UNL     1       7.256   5.234   0.067  0.00  0.00    +0.027 A 
ATOM     21  C   UNL     1       6.083   5.973   0.073  0.00  0.00    +0.076 A 
BRANCH  16  22
ATOM     22  O   UNL     1       4.992   8.091   0.196  0.00  0.00    -0.454 OA
BRANCH  22  27
ATOM     23  C   UNL     1       5.429  13.706   0.197  0.00  0.00    +0.044 C 
ATOM     24  C   UNL     1       5.312  12.204   0.197  0.00  0.00    -0.050 A 
ATOM     25  C   UNL     1       5.743  11.478  -0.898  0.00  0.00    +0.007 A 
ATOM     26  C   UNL     1       5.637  10.101  -0.901  0.00  0.00    +0.046 A 
ATOM     27  C   UNL     1       5.098   9.445   0.197  0.00  0.00    +0.129 A 
ATOM     28  C   UNL     1       4.662  10.176   1.293  0.00  0.00    +0.046 A 
ATOM     29  C   UNL     1       4.775  11.553   1.293  0.00  0.00    +0.007 A 
ENDBRANCH  22  27
ENDBRANCH  16  22
ENDBRANCH   1  21
TORSDOF 4
