REMARK  Name = ZINC39547253
REMARK  18 active torsions:
REMARK  status: ('A' for Active; 'I' for Inactive)
REMARK    1  A    between atoms: C_1  and  C_2
REMARK    2  A    between atoms: C_3  and  C_34
REMARK    3  A    between atoms: C_5  and  N_11
REMARK    4  A    between atoms: C_6  and  C_7
REMARK    5  A    between atoms: C_7  and  O_9
REMARK    6  A    between atoms: O_9  and  C_10
REMARK    7  A    between atoms: C_12  and  C_14
REMARK    8  A    between atoms: C_14  and  O_15
REMARK    9  A    between atoms: O_15  and  C_16
REMARK   10  A    between atoms: C_16  and  C_18
REMARK   11  A    between atoms: C_19  and  C_30
REMARK   12  A    between atoms: C_20  and  C_29
REMARK   13  A    between atoms: C_22  and  C_28
REMARK   14  A    between atoms: C_23  and  C_24
REMARK   15  A    between atoms: C_24  and  O_26
REMARK   16  A    between atoms: O_26  and  C_27
REMARK   17  A    between atoms: C_30  and  O_32
REMARK   18  A    between atoms: O_32  and  C_33
REMARK                            x       y       z     vdW  Elec       q    Type
REMARK                         _______ _______ _______ _____ _____    ______ ____
ROOT
ATOM      1  C   UNL     1      -0.033  -7.961   3.369  0.00  0.00    +0.320 C 
ATOM      2  O   UNL     1       0.009  -7.904   4.575  0.00  0.00    -0.250 OA
ENDROOT
BRANCH   1   3
ATOM      3  C   UNL     1       0.073  -9.294   2.674  0.00  0.00    +0.174 C 
ATOM      4  C   UNL     1       1.254  -9.274   1.745  0.00  0.00    +0.072 C 
ATOM      5  C   UNL     1       2.400  -9.905   2.054  0.00  0.00    +0.016 C 
ATOM      6  N   UNL     1       2.524 -10.596   3.229  0.00  0.00    -0.321 N 
ATOM      7  C   UNL     1       1.411 -10.965   3.933  0.00  0.00    +0.016 C 
ATOM      8  C   UNL     1       0.224 -10.378   3.703  0.00  0.00    +0.072 C 
ATOM      9  C   UNL     1       1.517 -12.043   4.981  0.00  0.00    +0.061 C 
ATOM     10  C   UNL     1       3.562  -9.851   1.096  0.00  0.00    +0.061 C 
ATOM     11  H   UNL     1       3.405 -10.826   3.563  0.00  0.00    +0.152 HD
BRANCH   8  12
ATOM     12  C   UNL     1      -0.907 -10.790   4.444  0.00  0.00    +0.337 C 
ATOM     13  O   UNL     1      -0.800 -11.668   5.280  0.00  0.00    -0.245 OA
BRANCH  12  14
ATOM     14  O   UNL     1      -2.106 -10.211   4.224  0.00  0.00    -0.465 OA
ATOM     15  C   UNL     1      -3.206 -10.676   5.009  0.00  0.00    +0.280 C 
ENDBRANCH  12  14
ENDBRANCH   8  12
BRANCH   4  16
ATOM     16  C   UNL     1       1.158  -8.576   0.519  0.00  0.00    +0.337 C 
ATOM     17  O   UNL     1       0.507  -9.043  -0.397  0.00  0.00    -0.245 OA
BRANCH  16  18
ATOM     18  O   UNL     1       1.789  -7.393   0.364  0.00  0.00    -0.465 OA
ATOM     19  C   UNL     1       1.649  -6.744  -0.901  0.00  0.00    +0.280 C 
ENDBRANCH  16  18
ENDBRANCH   4  16
ENDBRANCH   1   3
BRANCH   1  20
ATOM     20  O   UNL     1      -0.175  -6.838   2.649  0.00  0.00    -0.455 OA
BRANCH  20  21
ATOM     21  C   UNL     1      -0.270  -5.610   3.374  0.00  0.00    +0.328 C 
BRANCH  21  23
ATOM     22  N   UNL     1      -0.533  -3.203   2.866  0.00  0.00    -0.277 N 
ATOM     23  C   UNL     1      -0.424  -4.465   2.406  0.00  0.00    +0.255 C 
ATOM     24  O   UNL     1      -0.451  -4.680   1.212  0.00  0.00    -0.272 OA
ATOM     25  H   UNL     1      -0.513  -3.032   3.820  0.00  0.00    +0.155 HD
BRANCH  22  30
ATOM     26  C   UNL     1      -1.078   1.584   1.306  0.00  0.00    +0.045 C 
ATOM     27  C   UNL     1      -0.935   0.093   1.135  0.00  0.00    -0.025 A 
ATOM     28  C   UNL     1      -0.925  -0.489  -0.077  0.00  0.00    -0.008 A 
ATOM     29  S   UNL     1      -0.736  -2.218   0.300  0.00  0.00    -0.078 S 
ATOM     30  C   UNL     1      -0.675  -2.151   1.975  0.00  0.00    +0.086 A 
ATOM     31  C   UNL     1      -0.794  -0.798   2.264  0.00  0.00    +0.091 A 
ATOM     32  C   UNL     1      -1.046   0.165  -1.430  0.00  0.00    +0.052 C 
BRANCH  31  33
ATOM     33  C   UNL     1      -0.782  -0.301   3.642  0.00  0.00    +0.342 C 
ATOM     34  O   UNL     1      -1.824  -0.200   4.261  0.00  0.00    -0.245 OA
BRANCH  33  35
ATOM     35  O   UNL     1       0.384   0.045   4.224  0.00  0.00    -0.464 OA
ATOM     36  C   UNL     1       0.322   0.522   5.569  0.00  0.00    +0.280 C 
ENDBRANCH  33  35
ENDBRANCH  31  33
ENDBRANCH  22  30
ENDBRANCH  21  23
ENDBRANCH  20  21
ENDBRANCH   1  20
TORSDOF 11
