REMARK  Name = ZINC38613980
REMARK  2 active torsions:
REMARK  status: ('A' for Active; 'I' for Inactive)
REMARK    1  A    between atoms: C_7  and  C_10
REMARK    2  A    between atoms: N_16  and  C_17
REMARK                            x       y       z     vdW  Elec       q    Type
REMARK                         _______ _______ _______ _____ _____    ______ ____
ROOT
ATOM      1  C   UNL     1       0.692  -3.122   0.083  0.00  0.00    +0.026 C 
ATOM      2  C   UNL     1       1.186  -4.413   0.100  0.00  0.00    +0.078 C 
ATOM      3  C   UNL     1       0.481  -5.688   0.379  0.00  0.00    +0.256 C 
ATOM      4  O   UNL     1      -0.706  -5.716   0.642  0.00  0.00    -0.269 OA
ATOM      5  N   UNL     1       1.206  -6.793   0.326  0.00  0.00    -0.260 N 
ATOM      6  C   UNL     1       2.550  -6.739   0.025  0.00  0.00    +0.166 C 
ATOM      7  N   UNL     1       3.404  -7.732  -0.067  0.00  0.00    -0.225 NA
ATOM      8  S   UNL     1       2.846  -4.996  -0.217  0.00  0.00    -0.049 S 
ATOM      9  H   UNL     1       0.787  -7.650   0.502  0.00  0.00    +0.157 HD
ENDROOT
BRANCH   1  16
ATOM     10  C   UNL     1      -0.044   1.342  -0.192  0.00  0.00    +0.001 A 
ATOM     11  C   UNL     1       1.098   2.077  -0.522  0.00  0.00    +0.002 A 
ATOM     12  C   UNL     1       2.296   1.480  -0.733  0.00  0.00    +0.026 A 
ATOM     13  C   UNL     1       2.411   0.068  -0.619  0.00  0.00    +0.043 A 
ATOM     14  N   UNL     1       3.440  -0.737  -0.772  0.00  0.00    -0.380 N 
ATOM     15  C   UNL     1       3.014  -2.120  -0.539  0.00  0.00    +0.149 C 
ATOM     16  C   UNL     1       1.538  -2.055  -0.213  0.00  0.00    -0.018 C 
ATOM     17  C   UNL     1       1.202  -0.701  -0.271  0.00  0.00    +0.003 A 
ATOM     18  C   UNL     1      -0.010  -0.009  -0.066  0.00  0.00    +0.010 A 
ATOM     19  H   UNL     1       4.340  -0.459  -1.003  0.00  0.00    +0.160 HD
ENDBRANCH   1  16
BRANCH   7  20
ATOM     20  C   UNL     1       2.965  -9.023   0.029  0.00  0.00    +0.080 A 
ATOM     21  C   UNL     1       1.873  -9.451  -0.730  0.00  0.00    +0.029 A 
ATOM     22  C   UNL     1       1.436 -10.756  -0.628  0.00  0.00    +0.002 A 
ATOM     23  C   UNL     1       2.076 -11.639   0.223  0.00  0.00    +0.001 A 
ATOM     24  C   UNL     1       3.159 -11.223   0.978  0.00  0.00    +0.017 A 
ATOM     25  C   UNL     1       3.611  -9.923   0.882  0.00  0.00    +0.043 A 
ATOM     26 BR   UNL     1       5.096  -9.357   1.908  0.00  0.00    -0.048 Br
ENDBRANCH   7  20
TORSDOF 2
