REMARK  Name = ZINC39568620
REMARK  16 active torsions:
REMARK  status: ('A' for Active; 'I' for Inactive)
REMARK    1  A    between atoms: C_1  and  C_2
REMARK    2  A    between atoms: C_4  and  C_40
REMARK    3  A    between atoms: C_6  and  C_8
REMARK    4  A    between atoms: C_8  and  C_32
REMARK    5  A    between atoms: N_9  and  N_10
REMARK    6  A    between atoms: N_10  and  C_11
REMARK    7  A    between atoms: C_11  and  N_13
REMARK    8  A    between atoms: N_13  and  N_14
REMARK    9  A    between atoms: C_15  and  C_16
REMARK   10  A    between atoms: C_15  and  C_24
REMARK   11  A    between atoms: C_18  and  C_23
REMARK   12  A    between atoms: C_20  and  C_22
REMARK   13  A    between atoms: C_26  and  C_31
REMARK   14  A    between atoms: C_28  and  C_30
REMARK   15  A    between atoms: C_34  and  C_39
REMARK   16  A    between atoms: C_36  and  C_38
REMARK                            x       y       z     vdW  Elec       q    Type
REMARK                         _______ _______ _______ _____ _____    ______ ____
ROOT
ATOM      1  C   UNL     1      -1.853   1.951  -0.324  0.00  0.00    +0.170 C 
ATOM      2  S   UNL     1      -1.975   2.433  -1.962  0.00  0.00    -0.016 S 
ENDROOT
BRANCH   1   3
ATOM      3  N   UNL     1      -0.823   1.179   0.076  0.00  0.00    -0.217 N 
ATOM      4  H   UNL     1      -0.119   0.947  -0.550  0.00  0.00    +0.176 HD
BRANCH   3   6
ATOM      5  C   UNL     1       0.257   0.064   1.803  0.00  0.00    +0.094 C 
ATOM      6  N   UNL     1      -0.768   0.713   1.396  0.00  0.00    -0.185 NA
BRANCH   5  12
ATOM      7  C   UNL     1       0.143  -1.872  -0.784  0.00  0.00    +0.041 C 
ATOM      8  C   UNL     1       1.262  -1.480   0.146  0.00  0.00    -0.041 C 
ATOM      9  C   UNL     1       2.314  -2.220   0.491  0.00  0.00    +0.024 C 
ATOM     10  C   UNL     1       3.160  -1.464   1.415  0.00  0.00    +0.034 C 
ATOM     11  N   UNL     1       2.665  -0.294   1.647  0.00  0.00    -0.275 NA
ATOM     12  C   UNL     1       1.422  -0.165   0.875  0.00  0.00    +0.179 C 
ATOM     13  C   UNL     1       4.440  -1.983   2.018  0.00  0.00    +0.065 C 
ENDBRANCH   5  12
BRANCH   5  14
ATOM     14  C   UNL     1       0.298  -0.473   3.211  0.00  0.00    +0.179 C 
ATOM     15  C   UNL     1      -0.947  -0.062   3.965  0.00  0.00    -0.041 C 
ATOM     16  C   UNL     1      -0.527   0.674   4.992  0.00  0.00    +0.024 C 
ATOM     17  C   UNL     1       0.933   0.772   4.957  0.00  0.00    +0.034 C 
ATOM     18  N   UNL     1       1.419   0.123   3.950  0.00  0.00    -0.275 NA
ATOM     19  C   UNL     1       1.762   1.528   5.964  0.00  0.00    +0.065 C 
ATOM     20  C   UNL     1      -2.372  -0.414   3.624  0.00  0.00    +0.041 C 
ENDBRANCH   5  14
ENDBRANCH   3   6
ENDBRANCH   1   3
BRANCH   1  21
ATOM     21  N   UNL     1      -2.786   2.343   0.565  0.00  0.00    -0.217 N 
ATOM     22  H   UNL     1      -2.679   2.132   1.506  0.00  0.00    +0.176 HD
BRANCH  21  23
ATOM     23  N   UNL     1      -3.912   3.055   0.131  0.00  0.00    -0.185 NA
ATOM     24  C   UNL     1      -4.783   3.455   0.980  0.00  0.00    +0.094 C 
BRANCH  24  25
ATOM     25  C   UNL     1      -4.641   3.089   2.435  0.00  0.00    +0.179 C 
ATOM     26  C   UNL     1      -5.455   1.852   2.746  0.00  0.00    -0.041 C 
ATOM     27  C   UNL     1      -6.348   2.223   3.662  0.00  0.00    +0.024 C 
ATOM     28  C   UNL     1      -6.168   3.642   3.972  0.00  0.00    +0.034 C 
ATOM     29  N   UNL     1      -5.199   4.150   3.283  0.00  0.00    -0.275 NA
ATOM     30  C   UNL     1      -7.002   4.410   4.965  0.00  0.00    +0.065 C 
ATOM     31  C   UNL     1      -5.288   0.481   2.144  0.00  0.00    +0.041 C 
ENDBRANCH  24  25
BRANCH  24  32
ATOM     32  C   UNL     1      -5.951   4.291   0.524  0.00  0.00    +0.179 C 
ATOM     33  C   UNL     1      -5.940   4.430  -0.982  0.00  0.00    -0.041 C 
ATOM     34  C   UNL     1      -5.824   5.734  -1.228  0.00  0.00    +0.024 C 
ATOM     35  C   UNL     1      -5.759   6.466   0.037  0.00  0.00    +0.034 C 
ATOM     36  N   UNL     1      -5.831   5.659   1.046  0.00  0.00    -0.275 NA
ATOM     37  C   UNL     1      -5.626   7.962   0.151  0.00  0.00    +0.065 C 
ATOM     38  C   UNL     1      -6.038   3.320  -1.996  0.00  0.00    +0.041 C 
ENDBRANCH  24  32
ENDBRANCH  21  23
ENDBRANCH   1  21
TORSDOF 8
