REMARK  Name = ZINC20713781
REMARK  6 active torsions:
REMARK  status: ('A' for Active; 'I' for Inactive)
REMARK    1  A    between atoms: C_1  and  C_2
REMARK    2  A    between atoms: C_2  and  N_3
REMARK    3  A    between atoms: N_3  and  C_4
REMARK    4  A    between atoms: C_10  and  C_12
REMARK    5  A    between atoms: C_25  and  C_28
REMARK    6  A    between atoms: C_33  and  N_34
REMARK                            x       y       z     vdW  Elec       q    Type
REMARK                         _______ _______ _______ _____ _____    ______ ____
ROOT
ATOM      1  C   UNL     1       5.086  -3.904   0.504  0.00  0.00    +0.038 A 
ATOM      2  C   UNL     1       3.701  -3.745   0.614  0.00  0.00    +0.015 A 
ATOM      3  C   UNL     1       3.180  -2.565   1.089  0.00  0.00    +0.024 A 
ATOM      4  C   UNL     1       4.021  -1.519   1.463  0.00  0.00    +0.031 A 
ATOM      5  C   UNL     1       5.410  -1.684   1.363  0.00  0.00    -0.019 A 
ATOM      6  C   UNL     1       5.934  -2.860   0.885  0.00  0.00    +0.019 A 
ATOM      7  C   UNL     1       6.264  -0.554   1.791  0.00  0.00    +0.049 C 
ATOM      8  C   UNL     1       7.622  -0.356   1.223  0.00  0.00    -0.023 C 
ATOM      9  C   UNL     1       7.883   0.946   1.191  0.00  0.00    -0.030 C 
ATOM     10  C   UNL     1       6.681   1.733   1.715  0.00  0.00    +0.033 C 
ATOM     11  C   UNL     1       5.526   0.767   1.418  0.00  0.00    +0.029 C 
ATOM     12  C   UNL     1       4.317   0.827   2.333  0.00  0.00    +0.107 C 
ATOM     13  N   UNL     1       3.461  -0.313   1.938  0.00  0.00    -0.336 N 
ATOM     14  H   UNL     1       2.367  -0.231   2.012  0.00  0.00    +0.147 HD
ENDROOT
BRANCH  12  15
ATOM     15  C   UNL     1       3.578   2.126   2.134  0.00  0.00    +0.003 A 
ATOM     16  C   UNL     1       3.722   2.830   0.953  0.00  0.00    +0.008 A 
ATOM     17  C   UNL     1       3.049   4.023   0.773  0.00  0.00    +0.000 A 
ATOM     18  C   UNL     1       2.222   4.508   1.770  0.00  0.00    +0.002 A 
ATOM     19  C   UNL     1       2.077   3.803   2.950  0.00  0.00    +0.033 A 
ATOM     20  C   UNL     1       2.755   2.612   3.132  0.00  0.00    +0.131 A 
BRANCH  20  21
ATOM     21  N   UNL     1       2.599   1.857   4.396  0.00  0.00    +0.057 N 
ATOM     22  O   UNL     1       1.784   2.220   5.226  0.00  0.00    -0.126 OA
ATOM     23  O   UNL     1       3.286   0.874   4.607  0.00  0.00    -0.126 OA
ENDBRANCH  20  21
ENDBRANCH  12  15
BRANCH   1  25
ATOM     24  N   UNL     1       4.967  -6.318   0.136  0.00  0.00    -0.268 N 
ATOM     25  C   UNL     1       5.649  -5.165  -0.012  0.00  0.00    +0.251 C 
ATOM     26  O   UNL     1       6.730  -5.166  -0.570  0.00  0.00    -0.270 OA
BRANCH  24  27
ATOM     27  C   UNL     1       5.455  -7.498  -0.435  0.00  0.00    +0.037 A 
ATOM     28  C   UNL     1       4.828  -8.709  -0.173  0.00  0.00    +0.023 A 
ATOM     29  C   UNL     1       5.308  -9.871  -0.744  0.00  0.00    +0.002 A 
ATOM     30  C   UNL     1       6.419  -9.831  -1.566  0.00  0.00    +0.000 A 
ATOM     31  C   UNL     1       7.049  -8.628  -1.825  0.00  0.00    +0.002 A 
ATOM     32  C   UNL     1       6.570  -7.461  -1.262  0.00  0.00    +0.023 A 
ENDBRANCH  24  27
BRANCH  24  34
ATOM     33  C   UNL     1       2.538  -6.514  -0.067  0.00  0.00    +0.025 C 
ATOM     34  C   UNL     1       3.714  -6.335   0.895  0.00  0.00    +0.110 C 
ENDBRANCH  24  34
ENDBRANCH   1  25
TORSDOF 5
