REMARK  Name = ZINC39677714
REMARK  10 active torsions:
REMARK  status: ('A' for Active; 'I' for Inactive)
REMARK    1  A    between atoms: C_1  and  C_2
REMARK    2  A    between atoms: C_2  and  C_3
REMARK    3  A    between atoms: C_3  and  C_4
REMARK    4  A    between atoms: C_4  and  C_5
REMARK    5  A    between atoms: C_5  and  C_7
REMARK    6  A    between atoms: C_5  and  C_8
REMARK    7  A    between atoms: C_12  and  C_21
REMARK    8  A    between atoms: N_23  and  C_24
REMARK    9  A    between atoms: C_24  and  C_25
REMARK   10  A    between atoms: C_28  and  C_30
REMARK                            x       y       z     vdW  Elec       q    Type
REMARK                         _______ _______ _______ _____ _____    ______ ____
ROOT
ATOM      1  C   UNL     1       1.301  -4.262  -2.827  0.00  0.00    +0.218 C 
ATOM      2  O   UNL     1       0.628  -4.949  -2.088  0.00  0.00    -0.275 OA
ATOM      3  N   UNL     1       2.061  -4.839  -3.779  0.00  0.00    -0.300 N 
ATOM      4  C   UNL     1       3.024  -4.183  -4.694  0.00  0.00    +0.121 C 
ATOM      5  C   UNL     1       4.212  -5.167  -4.782  0.00  0.00    +0.100 C 
ATOM      6  C   UNL     1       3.614  -6.538  -4.423  0.00  0.00    -0.004 C 
ATOM      7  C   UNL     1       2.127  -6.275  -4.141  0.00  0.00    +0.115 C 
ATOM      8  C   UNL     1       4.290  -7.098  -3.175  0.00  0.00    -0.010 C 
ATOM      9  C   UNL     1       3.718  -8.486  -2.871  0.00  0.00    -0.082 C 
ATOM     10  N   UNL     1       3.948  -9.374  -4.017  0.00  0.00    +0.379 N 
ATOM     11  C   UNL     1       3.219  -8.877  -5.190  0.00  0.00    -0.082 C 
ATOM     12  C   UNL     1       3.769  -7.505  -5.592  0.00  0.00    -0.010 C 
ATOM     13  H   UNL     1       4.935  -9.404  -4.224  0.00  0.00    -0.086 HD
ATOM     14  H   UNL     1       3.626 -10.303  -3.791  0.00  0.00    -0.086 HD
ENDROOT
BRANCH   5  15
ATOM     15  C   UNL     1       4.775  -5.188  -6.179  0.00  0.00    +0.218 C 
ATOM     16  O   UNL     1       4.054  -4.955  -7.127  0.00  0.00    -0.275 OA
ATOM     17  N   UNL     1       6.079  -5.465  -6.377  0.00  0.00    -0.310 N 
ATOM     18  H   UNL     1       6.655  -5.651  -5.620  0.00  0.00    +0.149 HD
BRANCH  17  19
ATOM     19  C   UNL     1       6.626  -5.484  -7.736  0.00  0.00    +0.146 C 
BRANCH  19  20
ATOM     20  C   UNL     1       8.095  -5.817  -7.681  0.00  0.00    +0.007 A 
ATOM     21  C   UNL     1       8.697  -7.034  -7.734  0.00  0.00    +0.013 A 
ATOM     22  C   UNL     1      10.070  -7.105  -7.666  0.00  0.00    +0.018 A 
ATOM     23  C   UNL     1      10.786  -5.943  -7.548  0.00  0.00    +0.038 A 
ATOM     24  S   UNL     1       9.491  -4.714  -7.540  0.00  0.00    -0.090 S 
BRANCH  23  25
ATOM     25  C   UNL     1      12.248  -5.755  -7.458  0.00  0.00    +0.078 A 
ATOM     26  C   UNL     1      12.775  -4.468  -7.335  0.00  0.00    +0.029 A 
ATOM     27  C   UNL     1      14.146  -4.309  -7.252  0.00  0.00    +0.004 A 
ATOM     28  C   UNL     1      14.949  -5.441  -7.293  0.00  0.00    +0.020 A 
ATOM     29  C   UNL     1      14.361  -6.686  -7.415  0.00  0.00    +0.111 A 
ATOM     30  N   UNL     1      13.052  -6.813  -7.488  0.00  0.00    -0.254 NA
ENDBRANCH  23  25
ENDBRANCH  19  20
ENDBRANCH  17  19
ENDBRANCH   5  15
BRANCH   1  31
ATOM     31  C   UNL     1       1.287  -2.762  -2.682  0.00  0.00    +0.072 C 
ATOM     32  C   UNL     1       2.370  -2.336  -1.689  0.00  0.00    +0.017 C 
BRANCH  31  33
ATOM     33  C   UNL     1      -0.082  -2.313  -2.167  0.00  0.00    +0.012 C 
BRANCH  33  34
ATOM     34  C   UNL     1      -0.140  -0.784  -2.138  0.00  0.00    +0.000 C 
BRANCH  34  36
ATOM     35  C   UNL     1      -1.566   1.194  -1.593  0.00  0.00    +0.004 C 
ATOM     36  C   UNL     1      -1.508  -0.335  -1.623  0.00  0.00    -0.003 C 
ENDBRANCH  34  36
ENDBRANCH  33  34
ENDBRANCH  31  33
ENDBRANCH   1  31
TORSDOF 8
