REMARK  Name = ZINC63256706
REMARK  7 active torsions:
REMARK  status: ('A' for Active; 'I' for Inactive)
REMARK    1  A    between atoms: C_4  and  N_7
REMARK    2  A    between atoms: C_9  and  C_22
REMARK    3  A    between atoms: C_10  and  C_12
REMARK    4  A    between atoms: C_23  and  C_24
REMARK    5  A    between atoms: N_26  and  C_27
REMARK    6  A    between atoms: C_27  and  C_28
REMARK    7  A    between atoms: C_28  and  C_29
REMARK                            x       y       z     vdW  Elec       q    Type
REMARK                         _______ _______ _______ _____ _____    ______ ____
ROOT
ATOM      1  N   UNL     1       3.623  -0.651  -0.037  0.00  0.00    -0.239 N 
ATOM      2  C   UNL     1       3.764  -1.989  -0.051  0.00  0.00    +0.123 A 
ATOM      3  C   UNL     1       5.117  -2.272  -0.066  0.00  0.00    +0.021 A 
ATOM      4  C   UNL     1       5.809  -0.977  -0.059  0.00  0.00    +0.100 A 
ATOM      5  N   UNL     1       4.882  -0.046  -0.048  0.00  0.00    -0.166 NA
ENDROOT
BRANCH   4   6
ATOM      6  C   UNL     1       7.275  -0.762  -0.069  0.00  0.00    +0.006 A 
ATOM      7  C   UNL     1       8.116  -1.648   0.603  0.00  0.00    +0.014 A 
ATOM      8  C   UNL     1       9.480  -1.445   0.593  0.00  0.00    +0.050 A 
ATOM      9  C   UNL     1      10.021  -0.360  -0.084  0.00  0.00    +0.162 A 
ATOM     10  C   UNL     1       9.187   0.525  -0.758  0.00  0.00    +0.163 A 
ATOM     11  C   UNL     1       7.817   0.324  -0.755  0.00  0.00    +0.059 A 
ATOM     12  O   UNL     1       9.701   1.589  -1.434  0.00  0.00    -0.485 OA
ATOM     13  C   UNL     1      11.044   1.968  -1.112  0.00  0.00    +0.270 C 
ATOM     14  C   UNL     1      11.906   0.699  -1.075  0.00  0.00    +0.270 C 
ATOM     15  O   UNL     1      11.370  -0.177  -0.077  0.00  0.00    -0.485 OA
ENDBRANCH   4   6
BRANCH   1  19
ATOM     16  C   UNL     1      -0.017   1.379   0.010  0.00  0.00    +0.000 A 
ATOM     17  C   UNL     1       1.170   2.089   0.002  0.00  0.00    +0.002 A 
ATOM     18  C   UNL     1       2.377   1.419  -0.013  0.00  0.00    +0.028 A 
ATOM     19  C   UNL     1       2.400   0.031  -0.021  0.00  0.00    +0.065 A 
ATOM     20  C   UNL     1       1.206  -0.680  -0.013  0.00  0.00    +0.028 A 
ATOM     21  C   UNL     1       0.002  -0.004   0.002  0.00  0.00    +0.002 A 
ENDBRANCH   1  19
BRANCH   3  22
ATOM     22  C   UNL     1       5.738  -3.601  -0.083  0.00  0.00    +0.016 C 
ATOM     23  C   UNL     1       4.963  -4.709  -0.088  0.00  0.00    +0.068 C 
BRANCH  23  24
ATOM     24  C   UNL     1       5.563  -5.993  -0.105  0.00  0.00    +0.237 C 
ATOM     25  O   UNL     1       6.776  -6.099  -0.116  0.00  0.00    -0.271 OA
ATOM     26  N   UNL     1       4.790  -7.098  -0.110  0.00  0.00    -0.312 N 
ATOM     27  H   UNL     1       3.824  -7.014  -0.102  0.00  0.00    +0.149 HD
BRANCH  26  28
ATOM     28  C   UNL     1       5.410  -8.425  -0.128  0.00  0.00    +0.109 C 
BRANCH  28  29
ATOM     29  C   UNL     1       4.319  -9.498  -0.130  0.00  0.00    +0.052 C 
BRANCH  29  30
ATOM     30  C   UNL     1       4.957 -10.863  -0.148  0.00  0.00    -0.040 C 
ATOM     31  C   UNL     1       5.219 -11.652   0.918  0.00  0.00    -0.001 A 
ATOM     32  C   UNL     1       4.999 -11.482   2.359  0.00  0.00    +0.010 A 
ATOM     33  C   UNL     1       5.377 -12.470   3.202  0.00  0.00    +0.001 A 
ATOM     34  C   UNL     1       5.972 -13.650   2.734  0.00  0.00    +0.002 A 
ATOM     35  C   UNL     1       6.207 -13.879   1.425  0.00  0.00    +0.026 A 
ATOM     36  C   UNL     1       5.849 -12.907   0.450  0.00  0.00    +0.043 A 
ATOM     37  N   UNL     1       5.972 -12.894  -0.855  0.00  0.00    -0.380 N 
ATOM     38  C   UNL     1       5.427 -11.630  -1.364  0.00  0.00    +0.144 C 
ATOM     39  H   UNL     1       6.355 -13.603  -1.395  0.00  0.00    +0.160 HD
ENDBRANCH  29  30
ENDBRANCH  28  29
ENDBRANCH  26  28
ENDBRANCH  23  24
ENDBRANCH   3  22
TORSDOF 7
