REMARK  Name = ZINC20182164
REMARK  7 active torsions:
REMARK  status: ('A' for Active; 'I' for Inactive)
REMARK    1  A    between atoms: C_1  and  C_2
REMARK    2  A    between atoms: C_10  and  O_13
REMARK    3  A    between atoms: O_13  and  C_14
REMARK    4  A    between atoms: N_18  and  C_19
REMARK    5  A    between atoms: C_23  and  C_25
REMARK    6  A    between atoms: N_27  and  C_28
REMARK    7  A    between atoms: C_28  and  C_29
REMARK                            x       y       z     vdW  Elec       q    Type
REMARK                         _______ _______ _______ _____ _____    ______ ____
ROOT
ATOM      1  C   UNL     1      -1.275  -1.338   0.053  0.00  0.00    +0.079 C 
ATOM      2  C   UNL     1      -0.033  -0.452  -0.055  0.00  0.00    +0.185 C 
ATOM      3  C   UNL     1       1.051  -0.986   0.892  0.00  0.00    +0.096 C 
ATOM      4  C   UNL     1       2.312  -0.142   0.648  0.00  0.00    +0.114 C 
ATOM      5  C   UNL     1       1.944   1.316   0.806  0.00  0.00    +0.018 A 
ATOM      6  C   UNL     1       2.938   2.227   1.122  0.00  0.00    +0.009 A 
ATOM      7  C   UNL     1       2.633   3.567   1.266  0.00  0.00    +0.004 A 
ATOM      8  C   UNL     1       1.332   4.002   1.095  0.00  0.00    +0.049 A 
ATOM      9  C   UNL     1       0.335   3.096   0.782  0.00  0.00    +0.162 A 
ATOM     10  C   UNL     1       0.640   1.741   0.637  0.00  0.00    +0.170 A 
ATOM     11  O   UNL     1      -0.365   0.878   0.336  0.00  0.00    -0.464 OA
ATOM     12  N   UNL     1       2.717  -0.344  -0.753  0.00  0.00    -0.292 N 
ATOM     13  C   UNL     1       1.779  -0.466  -1.707  0.00  0.00    +0.310 C 
ATOM     14  O   UNL     1       2.132  -0.568  -2.866  0.00  0.00    -0.252 OA
ATOM     15  N   UNL     1       0.467  -0.482  -1.427  0.00  0.00    -0.216 N 
ATOM     16  H   UNL     1       3.784  -0.393  -1.015  0.00  0.00    +0.151 HD
ENDROOT
BRANCH  15  17
ATOM     17  C   UNL     1      -0.452  -0.528  -2.482  0.00  0.00    +0.042 A 
ATOM     18  C   UNL     1      -0.794  -1.748  -3.052  0.00  0.00    +0.024 A 
ATOM     19  C   UNL     1      -1.705  -1.799  -4.091  0.00  0.00    +0.003 A 
ATOM     20  C   UNL     1      -2.271  -0.638  -4.576  0.00  0.00    +0.013 A 
ATOM     21  C   UNL     1      -1.929   0.593  -4.014  0.00  0.00    +0.038 A 
ATOM     22  C   UNL     1      -1.015   0.644  -2.962  0.00  0.00    +0.036 A 
BRANCH  21  23
ATOM     23  C   UNL     1      -2.534   1.839  -4.532  0.00  0.00    +0.244 C 
ATOM     24  O   UNL     1      -2.235   2.910  -4.042  0.00  0.00    -0.270 OA
ATOM     25  N   UNL     1      -3.418   1.787  -5.549  0.00  0.00    -0.307 N 
ATOM     26  H   UNL     1      -3.689   0.817  -5.993  0.00  0.00    +0.149 HD
BRANCH  25  27
ATOM     27  C   UNL     1      -4.017   3.021  -6.062  0.00  0.00    +0.147 C 
BRANCH  27  28
ATOM     28  C   UNL     1      -4.962   2.690  -7.188  0.00  0.00    +0.007 A 
ATOM     29  C   UNL     1      -6.286   2.401  -7.135  0.00  0.00    +0.013 A 
ATOM     30  C   UNL     1      -6.960   2.129  -8.310  0.00  0.00    +0.008 A 
ATOM     31  C   UNL     1      -6.277   2.148  -9.480  0.00  0.00    +0.045 A 
ATOM     32  S   UNL     1      -4.628   2.568  -8.938  0.00  0.00    -0.100 S 
ENDBRANCH  27  28
ENDBRANCH  25  27
ENDBRANCH  21  23
ENDBRANCH  15  17
BRANCH   9  33
ATOM     33  O   UNL     1      -0.945   3.525   0.614  0.00  0.00    -0.491 OA
ATOM     34  C   UNL     1      -1.186   4.924   0.775  0.00  0.00    +0.277 C 
ENDBRANCH   9  33
TORSDOF 5
