REMARK  Name = ZINC28721964
REMARK  12 active torsions:
REMARK  status: ('A' for Active; 'I' for Inactive)
REMARK    1  A    between atoms: C_1  and  C_2
REMARK    2  A    between atoms: C_5  and  N_9
REMARK    3  A    between atoms: C_6  and  C_8
REMARK    4  A    between atoms: N_11  and  C_31
REMARK    5  A    between atoms: C_14  and  C_17
REMARK    6  A    between atoms: C_17  and  C_18
REMARK    7  A    between atoms: N_20  and  C_21
REMARK    8  A    between atoms: C_24  and  O_29
REMARK    9  A    between atoms: C_25  and  O_27
REMARK   10  A    between atoms: O_27  and  C_28
REMARK   11  A    between atoms: O_29  and  C_30
REMARK   12  A    between atoms: C_31  and  C_32
REMARK                            x       y       z     vdW  Elec       q    Type
REMARK                         _______ _______ _______ _____ _____    ______ ____
ROOT
ATOM      1  N   UNL     1      -2.477   1.463   0.160  0.00  0.00    -0.226 NA
ATOM      2  C   UNL     1      -1.296   2.033   0.212  0.00  0.00    +0.164 C 
ATOM      3  N   UNL     1      -0.066   1.468  -0.052  0.00  0.00    -0.247 N 
ATOM      4  C   UNL     1       1.061   2.156   0.031  0.00  0.00    +0.235 C 
ATOM      5  O   UNL     1       2.140   1.656  -0.206  0.00  0.00    -0.274 OA
ATOM      6  C   UNL     1       0.918   3.613   0.442  0.00  0.00    +0.149 C 
ATOM      7  S   UNL     1      -0.904   3.722   0.643  0.00  0.00    -0.077 S 
ENDROOT
BRANCH   1  12
ATOM      8  C   UNL     1      -7.141   4.556   0.907  0.00  0.00    +0.044 C 
ATOM      9  C   UNL     1      -5.896   3.731   0.708  0.00  0.00    -0.050 A 
ATOM     10  C   UNL     1      -4.931   4.146  -0.193  0.00  0.00    +0.005 A 
ATOM     11  C   UNL     1      -3.789   3.395  -0.381  0.00  0.00    +0.028 A 
ATOM     12  C   UNL     1      -3.608   2.214   0.341  0.00  0.00    +0.069 A 
ATOM     13  C   UNL     1      -4.588   1.798   1.245  0.00  0.00    -0.025 A 
ATOM     14  C   UNL     1      -5.723   2.561   1.426  0.00  0.00    +0.008 A 
ATOM     15  C   UNL     1      -4.404   0.521   2.024  0.00  0.00    +0.046 C 
ENDBRANCH   1  12
BRANCH   6  16
ATOM     16  C   UNL     1       1.412   4.551  -0.661  0.00  0.00    +0.120 C 
BRANCH  16  17
ATOM     17  C   UNL     1       1.368   5.974  -0.167  0.00  0.00    +0.219 C 
ATOM     18  O   UNL     1       0.980   6.214   0.957  0.00  0.00    -0.275 OA
ATOM     19  N   UNL     1       1.760   6.980  -0.973  0.00  0.00    -0.285 N 
ATOM     20  H   UNL     1       2.040   6.771  -2.016  0.00  0.00    +0.155 HD
BRANCH  19  21
ATOM     21  C   UNL     1       1.810   8.292  -0.484  0.00  0.00    +0.037 A 
ATOM     22  C   UNL     1       0.862   8.728   0.432  0.00  0.00    +0.027 A 
ATOM     23  C   UNL     1       0.913  10.019   0.920  0.00  0.00    +0.051 A 
ATOM     24  C   UNL     1       1.905  10.886   0.489  0.00  0.00    +0.162 A 
ATOM     25  C   UNL     1       2.854  10.453  -0.433  0.00  0.00    +0.163 A 
ATOM     26  C   UNL     1       2.805   9.157  -0.918  0.00  0.00    +0.072 A 
BRANCH  25  27
ATOM     27  O   UNL     1       3.828  11.302  -0.857  0.00  0.00    -0.491 OA
ATOM     28  C   UNL     1       4.768  10.791  -1.803  0.00  0.00    +0.277 C 
ENDBRANCH  25  27
BRANCH  24  29
ATOM     29  O   UNL     1       1.951  12.159   0.966  0.00  0.00    -0.491 OA
ATOM     30  C   UNL     1       0.946  12.535   1.909  0.00  0.00    +0.277 C 
ENDBRANCH  24  29
ENDBRANCH  19  21
ENDBRANCH  16  17
ENDBRANCH   6  16
BRANCH   3  31
ATOM     31  C   UNL     1      -0.005   0.058  -0.443  0.00  0.00    +0.147 C 
BRANCH  31  32
ATOM     32  C   UNL     1       0.146  -0.812   0.806  0.00  0.00    +0.136 C 
ATOM     33  C   UNL     1       0.218  -2.298   0.405  0.00  0.00    +0.035 C 
ATOM     34  C   UNL     1       1.579  -2.777   0.967  0.00  0.00    +0.031 C 
ATOM     35  C   UNL     1       1.870  -1.717   2.059  0.00  0.00    +0.160 C 
ATOM     36  O   UNL     1       1.373  -0.488   1.482  0.00  0.00    -0.375 OA
ENDBRANCH  31  32
ENDBRANCH   3  31
TORSDOF 8
