REMARK  Name = ZINC15827299
REMARK  7 active torsions:
REMARK  status: ('A' for Active; 'I' for Inactive)
REMARK    1  A    between atoms: C_1  and  C_2
REMARK    2  A    between atoms: C_2  and  C_3
REMARK    3  A    between atoms: C_6  and  N_9
REMARK    4  A    between atoms: N_12  and  C_22
REMARK    5  A    between atoms: C_22  and  C_23
REMARK    6  A    between atoms: N_25  and  C_26
REMARK    7  A    between atoms: C_26  and  C_27
REMARK                            x       y       z     vdW  Elec       q    Type
REMARK                         _______ _______ _______ _____ _____    ______ ____
ROOT
ATOM      1  N   UNL     1       1.595   6.162   0.031  0.00  0.00    -0.123 N 
ATOM      2  C   UNL     1       2.549   5.202   0.015  0.00  0.00    +0.333 C 
ATOM      3  O   UNL     1       3.705   5.578   0.014  0.00  0.00    -0.250 OA
ATOM      4  N   UNL     1       2.348   3.893   0.001  0.00  0.00    -0.243 N 
ATOM      5  C   UNL     1       1.169   3.163  -0.001  0.00  0.00    +0.065 A 
ATOM      6  C   UNL     1       1.179   1.773  -0.016  0.00  0.00    +0.025 A 
ATOM      7  C   UNL     1      -0.013   1.076  -0.017  0.00  0.00    +0.002 A 
ATOM      8  C   UNL     1      -1.225   1.742  -0.009  0.00  0.00    +0.002 A 
ATOM      9  C   UNL     1      -1.248   3.129   0.012  0.00  0.00    +0.031 A 
ATOM     10  C   UNL     1      -0.067   3.814   0.013  0.00  0.00    +0.131 A 
ATOM     11  S   UNL     1       0.016   5.587   0.033  0.00  0.00    +0.084 S 
ATOM     12  O   UNL     1      -0.538   5.984   1.280  0.00  0.00    -0.149 OA
ATOM     13  O   UNL     1      -0.550   6.010  -1.200  0.00  0.00    -0.149 OA
ENDROOT
BRANCH   1  17
ATOM     14  C   UNL     1       2.502  10.227   0.075  0.00  0.00    -0.048 A 
ATOM     15  C   UNL     1       3.409   9.324  -0.447  0.00  0.00    +0.005 A 
ATOM     16  C   UNL     1       3.111   7.975  -0.463  0.00  0.00    +0.025 A 
ATOM     17  C   UNL     1       1.899   7.527   0.046  0.00  0.00    +0.061 A 
ATOM     18  C   UNL     1       0.988   8.438   0.564  0.00  0.00    +0.025 A 
ATOM     19  C   UNL     1       1.294   9.785   0.582  0.00  0.00    +0.005 A 
BRANCH  14  21
ATOM     20  C   UNL     1       2.341  12.345  -1.206  0.00  0.00    +0.009 C 
ATOM     21  C   UNL     1       2.831  11.698   0.091  0.00  0.00    +0.032 C 
ENDBRANCH  14  21
ENDBRANCH   1  17
BRANCH   4  22
ATOM     22  C   UNL     1       3.570   3.085  -0.014  0.00  0.00    +0.211 C 
BRANCH  22  23
ATOM     23  C   UNL     1       3.908   2.713  -1.435  0.00  0.00    +0.231 C 
ATOM     24  O   UNL     1       3.198   3.085  -2.345  0.00  0.00    -0.274 OA
ATOM     25  N   UNL     1       4.999   1.965  -1.694  0.00  0.00    -0.310 N 
ATOM     26  H   UNL     1       5.567   1.667  -0.966  0.00  0.00    +0.149 HD
BRANCH  25  27
ATOM     27  C   UNL     1       5.328   1.603  -3.074  0.00  0.00    +0.139 C 
BRANCH  27  28
ATOM     28  C   UNL     1       6.585   0.772  -3.090  0.00  0.00    -0.030 A 
ATOM     29  C   UNL     1       7.818   1.386  -3.207  0.00  0.00    +0.006 A 
ATOM     30  C   UNL     1       8.972   0.625  -3.216  0.00  0.00    +0.020 A 
ATOM     31  C   UNL     1       8.891  -0.753  -3.118  0.00  0.00    +0.041 A 
ATOM     32  C   UNL     1       7.657  -1.368  -3.006  0.00  0.00    +0.020 A 
ATOM     33  C   UNL     1       6.504  -0.605  -2.992  0.00  0.00    +0.006 A 
ATOM     34 CL   UNL     1      10.339  -1.711  -3.136  0.00  0.00    -0.084 Cl
ENDBRANCH  27  28
ENDBRANCH  25  27
ENDBRANCH  22  23
ENDBRANCH   4  22
TORSDOF 6
