REMARK  Name = ZINC01410841
REMARK  7 active torsions:
REMARK  status: ('A' for Active; 'I' for Inactive)
REMARK    1  A    between atoms: C_1  and  C_2
REMARK    2  A    between atoms: C_5  and  C_22
REMARK    3  A    between atoms: C_6  and  N_8
REMARK    4  A    between atoms: N_8  and  C_9
REMARK    5  A    between atoms: C_9  and  N_11
REMARK    6  A    between atoms: N_11  and  N_12
REMARK    7  A    between atoms: C_13  and  C_15
REMARK                            x       y       z     vdW  Elec       q    Type
REMARK                         _______ _______ _______ _____ _____    ______ ____
ROOT
ATOM      1  N   UNL     1       3.492   5.918  -0.205  0.00  0.00    -0.245 N 
ATOM      2  H   UNL     1       3.478   6.885  -0.273  0.00  0.00    +0.172 HD
ENDROOT
BRANCH   1   3
ATOM      3  N   UNL     1       4.713   5.232  -0.220  0.00  0.00    -0.231 N 
ATOM      4  C   UNL     1       5.869   5.917  -0.329  0.00  0.00    +0.261 C 
ATOM      5  O   UNL     1       5.851   7.129  -0.415  0.00  0.00    -0.269 OA
ATOM      6  H   UNL     1       4.727   4.264  -0.151  0.00  0.00    +0.173 HD
BRANCH   4   7
ATOM      7  C   UNL     1       7.158   5.193  -0.345  0.00  0.00    +0.052 A 
ATOM      8  C   UNL     1       7.182   3.801  -0.241  0.00  0.00    +0.014 A 
ATOM      9  C   UNL     1       8.388   3.132  -0.262  0.00  0.00    +0.001 A 
ATOM     10  C   UNL     1       9.573   3.838  -0.375  0.00  0.00    +0.001 A 
ATOM     11  C   UNL     1       9.558   5.217  -0.472  0.00  0.00    +0.016 A 
ATOM     12  C   UNL     1       8.357   5.900  -0.458  0.00  0.00    +0.030 A 
ATOM     13 BR   UNL     1       8.338   7.786  -0.591  0.00  0.00    -0.050 Br
ENDBRANCH   4   7
ENDBRANCH   1   3
BRANCH   1  14
ATOM     14  C   UNL     1       2.336   5.233  -0.095  0.00  0.00    +0.151 C 
ATOM     15  S   UNL     1       0.843   6.071  -0.077  0.00  0.00    -0.017 S 
BRANCH  14  16
ATOM     16  N   UNL     1       2.355   3.889  -0.001  0.00  0.00    -0.296 N 
ATOM     17  H   UNL     1       3.201   3.420   0.069  0.00  0.00    +0.154 HD
BRANCH  16  23
ATOM     18  C   UNL     1      -2.114   3.120  -1.899  0.00  0.00    +0.044 C 
ATOM     19  C   UNL     1      -1.028   2.776  -0.912  0.00  0.00    -0.049 A 
ATOM     20  C   UNL     1      -1.216   1.744  -0.011  0.00  0.00    +0.004 A 
ATOM     21  C   UNL     1      -0.225   1.428   0.900  0.00  0.00    +0.005 A 
ATOM     22  C   UNL     1       0.962   2.136   0.905  0.00  0.00    -0.029 A 
ATOM     23  C   UNL     1       1.155   3.170  -0.003  0.00  0.00    +0.036 A 
ATOM     24  C   UNL     1       0.155   3.488  -0.912  0.00  0.00    +0.027 A 
ATOM     25  C   UNL     1       2.044   1.788   1.893  0.00  0.00    +0.045 C 
ENDBRANCH  16  23
ENDBRANCH  14  16
ENDBRANCH   1  14
TORSDOF 5
