REMARK  Name = ZINC39029519
REMARK  6 active torsions:
REMARK  status: ('A' for Active; 'I' for Inactive)
REMARK    1  A    between atoms: C_1  and  C_2
REMARK    2  A    between atoms: C_2  and  C_3
REMARK    3  A    between atoms: C_3  and  C_4
REMARK    4  A    between atoms: C_6  and  C_18
REMARK    5  A    between atoms: C_8  and  C_16
REMARK    6  A    between atoms: C_9  and  N_15
REMARK                            x       y       z     vdW  Elec       q    Type
REMARK                         _______ _______ _______ _____ _____    ______ ____
ROOT
ATOM      1  C   UNL     1       0.853  -1.796  -1.767  0.00  0.00    +0.069 C 
ATOM      2  C   UNL     1      -0.099  -2.552  -2.260  0.00  0.00    +0.030 C 
ATOM      3  C   UNL     1      -1.463  -2.264  -2.826  0.00  0.00    +0.099 C 
ATOM      4  C   UNL     1      -2.375  -3.332  -2.252  0.00  0.00    +0.097 C 
ATOM      5  C   UNL     1      -1.889  -4.384  -1.561  0.00  0.00    +0.195 C 
ATOM      6  O   UNL     1      -0.599  -4.624  -1.265  0.00  0.00    -0.448 OA
ATOM      7  C   UNL     1       0.394  -3.987  -2.074  0.00  0.00    +0.343 C 
ATOM      8  N   UNL     1       1.653  -3.785  -1.349  0.00  0.00    -0.138 NA
ATOM      9  N   UNL     1       1.844  -2.566  -1.249  0.00  0.00    -0.155 NA
ENDROOT
BRANCH   3  10
ATOM     10  C   UNL     1      -1.926  -0.895  -2.399  0.00  0.00    -0.021 A 
ATOM     11  C   UNL     1      -2.187  -0.638  -1.066  0.00  0.00    +0.005 A 
ATOM     12  C   UNL     1      -2.611   0.617  -0.673  0.00  0.00    +0.000 A 
ATOM     13  C   UNL     1      -2.774   1.617  -1.614  0.00  0.00    +0.001 A 
ATOM     14  C   UNL     1      -2.513   1.362  -2.947  0.00  0.00    +0.015 A 
ATOM     15  C   UNL     1      -2.083   0.107  -3.339  0.00  0.00    +0.022 A 
ATOM     16 BR   UNL     1      -1.719  -0.241  -5.162  0.00  0.00    -0.050 Br
ENDBRANCH   3  10
BRANCH   5  17
ATOM     17  N   UNL     1      -2.804  -5.304  -1.115  0.00  0.00    -0.329 N 
ATOM     18  H   UNL     1      -3.748  -5.179  -1.302  0.00  0.00    +0.145 HD
ATOM     19  H   UNL     1      -2.507  -6.079  -0.613  0.00  0.00    +0.145 HD
ENDBRANCH   5  17
BRANCH   4  20
ATOM     20  C   UNL     1      -3.789  -3.221  -2.449  0.00  0.00    +0.101 C 
ATOM     21  N   UNL     1      -4.911  -3.132  -2.605  0.00  0.00    -0.191 NA
ENDBRANCH   4  20
BRANCH   1  22
ATOM     22  C   UNL     1       0.850  -0.289  -1.781  0.00  0.00    +0.057 C 
BRANCH  22  24
ATOM     23  C   UNL     1       1.441   1.736  -3.118  0.00  0.00    +0.004 C 
ATOM     24  C   UNL     1       1.539   0.211  -3.052  0.00  0.00    +0.003 C 
ENDBRANCH  22  24
ENDBRANCH   1  22
TORSDOF 5
