REMARK  Name = ZINC36500494
REMARK  12 active torsions:
REMARK  status: ('A' for Active; 'I' for Inactive)
REMARK    1  A    between atoms: C_1  and  C_2
REMARK    2  A    between atoms: C_2  and  C_3
REMARK    3  A    between atoms: C_2  and  C_4
REMARK    4  A    between atoms: C_2  and  N_5
REMARK    5  A    between atoms: C_6  and  C_8
REMARK    6  A    between atoms: C_8  and  C_10
REMARK    7  A    between atoms: C_8  and  N_24
REMARK    8  A    between atoms: N_24  and  C_25
REMARK    9  A    between atoms: C_25  and  C_26
REMARK   10  A    between atoms: C_31  and  C_33
REMARK   11  A    between atoms: C_34  and  O_40
REMARK   12  A    between atoms: C_38  and  O_39
REMARK                            x       y       z     vdW  Elec       q    Type
REMARK                         _______ _______ _______ _____ _____    ______ ____
ROOT
ATOM      1  C   UNL     1       2.769  -0.468  -2.595  0.00  0.00    +0.194 C 
ENDROOT
BRANCH   1   2
ATOM      2  C   UNL     1       2.235   0.148  -3.862  0.00  0.00    -0.010 A 
ATOM      3  C   UNL     1       1.681   1.377  -3.816  0.00  0.00    +0.015 A 
ATOM      4  C   UNL     1       1.166   1.998  -4.977  0.00  0.00    -0.017 A 
ATOM      5  C   UNL     1       0.593   3.276  -4.918  0.00  0.00    +0.008 A 
ATOM      6  C   UNL     1       0.104   3.852  -6.054  0.00  0.00    +0.001 A 
ATOM      7  C   UNL     1       0.164   3.188  -7.274  0.00  0.00    +0.001 A 
ATOM      8  C   UNL     1       0.716   1.942  -7.364  0.00  0.00    +0.009 A 
ATOM      9  C   UNL     1       1.226   1.327  -6.219  0.00  0.00    -0.010 A 
ATOM     10  C   UNL     1       1.826  -0.009  -6.269  0.00  0.00    -0.010 A 
ATOM     11  C   UNL     1       2.329  -0.573  -5.075  0.00  0.00    -0.012 A 
ATOM     12  C   UNL     1       2.911  -1.848  -5.114  0.00  0.00    +0.009 A 
ATOM     13  C   UNL     1       2.989  -2.521  -6.298  0.00  0.00    +0.001 A 
ATOM     14  C   UNL     1       2.499  -1.960  -7.471  0.00  0.00    +0.001 A 
ATOM     15  C   UNL     1       1.915  -0.725  -7.465  0.00  0.00    +0.009 A 
ENDBRANCH   1   2
BRANCH   1  17
ATOM     16  N   UNL     1       0.985   0.007  -0.949  0.00  0.00    -0.309 N 
ATOM     17  C   UNL     1       2.224   0.278  -1.405  0.00  0.00    +0.239 C 
ATOM     18  O   UNL     1       2.900   1.123  -0.857  0.00  0.00    -0.273 OA
ATOM     19  H   UNL     1       0.419  -0.619  -1.426  0.00  0.00    +0.149 HD
BRANCH  16  21
ATOM     20  C   UNL     1       0.491   2.175   0.070  0.00  0.00    +0.031 C 
ATOM     21  C   UNL     1       0.494   0.658   0.268  0.00  0.00    +0.026 C 
ATOM     22  C   UNL     1       1.407   0.299   1.443  0.00  0.00    +0.031 C 
ATOM     23  C   UNL     1      -0.929   0.179   0.564  0.00  0.00    +0.031 C 
ENDBRANCH  16  21
ENDBRANCH   1  17
BRANCH   1  24
ATOM     24  N   UNL     1       4.232  -0.390  -2.593  0.00  0.00    -0.274 N 
ATOM     25  C   UNL     1       4.939  -1.005  -1.624  0.00  0.00    +0.255 C 
ATOM     26  O   UNL     1       4.362  -1.625  -0.751  0.00  0.00    -0.270 OA
BRANCH  25  27
ATOM     27  C   UNL     1       6.409  -0.926  -1.622  0.00  0.00    +0.119 A 
ATOM     28  C   UNL     1       7.059   0.112  -0.939  0.00  0.00    +0.133 A 
ATOM     29  C   UNL     1       8.443   0.177  -0.943  0.00  0.00    +0.046 A 
ATOM     30  C   UNL     1       9.183  -0.777  -1.617  0.00  0.00    +0.007 A 
ATOM     31  C   UNL     1       8.552  -1.804  -2.294  0.00  0.00    +0.046 A 
ATOM     32  C   UNL     1       7.169  -1.891  -2.298  0.00  0.00    +0.133 A 
BRANCH  32  33
ATOM     33  O   UNL     1       6.552  -2.904  -2.958  0.00  0.00    -0.506 OA
ATOM     34  H   UNL     1       6.348  -2.704  -3.882  0.00  0.00    +0.292 HD
ENDBRANCH  32  33
BRANCH  28  35
ATOM     35  O   UNL     1       6.336   1.050  -0.277  0.00  0.00    -0.506 OA
ATOM     36  H   UNL     1       6.151   0.826   0.645  0.00  0.00    +0.292 HD
ENDBRANCH  28  35
ENDBRANCH  25  27
BRANCH  24  37
ATOM     37  C   UNL     1       4.927   0.358  -3.644  0.00  0.00    +0.183 C 
BRANCH  37  38
ATOM     38  C   UNL     1       5.001   1.813  -3.261  0.00  0.00    +0.122 A 
ATOM     39  C   UNL     1       6.045   2.418  -2.667  0.00  0.00    +0.046 A 
ATOM     40  C   UNL     1       5.687   3.775  -2.492  0.00  0.00    +0.041 A 
ATOM     41  C   UNL     1       4.446   3.918  -2.990  0.00  0.00    +0.195 A 
ATOM     42  O   UNL     1       4.037   2.728  -3.459  0.00  0.00    -0.466 OA
ENDBRANCH  37  38
ENDBRANCH  24  37
ENDBRANCH   1  24
TORSDOF 9
