REMARK  Name = ZINC63571362
REMARK  3 active torsions:
REMARK  status: ('A' for Active; 'I' for Inactive)
REMARK    1  A    between atoms: C_5  and  C_7
REMARK    2  A    between atoms: N_24  and  C_25
REMARK    3  A    between atoms: C_25  and  C_26
REMARK                            x       y       z     vdW  Elec       q    Type
REMARK                         _______ _______ _______ _____ _____    ______ ____
ROOT
ATOM      1  C   UNL     1       1.226  -2.181  -0.025  0.00  0.00    +0.137 C 
ATOM      2  C   UNL     1       1.493  -2.710   1.389  0.00  0.00    +0.131 C 
ATOM      3  C   UNL     1       0.232  -2.439   2.199  0.00  0.00    -0.035 C 
ATOM      4  C   UNL     1       0.609  -1.723   3.252  0.00  0.00    -0.001 A 
ATOM      5  C   UNL     1      -0.141  -1.222   4.415  0.00  0.00    +0.010 A 
ATOM      6  C   UNL     1       0.569  -0.497   5.320  0.00  0.00    +0.001 A 
ATOM      7  C   UNL     1       1.934  -0.223   5.184  0.00  0.00    +0.002 A 
ATOM      8  C   UNL     1       2.702  -0.647   4.149  0.00  0.00    +0.026 A 
ATOM      9  C   UNL     1       2.068  -1.424   3.136  0.00  0.00    +0.043 A 
ATOM     10  N   UNL     1       2.575  -1.978   2.049  0.00  0.00    -0.375 N 
ATOM     11  C   UNL     1      -1.136  -2.883   1.742  0.00  0.00    +0.052 C 
ATOM     12  C   UNL     1      -1.297  -2.397   0.290  0.00  0.00    +0.114 C 
ATOM     13  N   UNL     1      -0.076  -2.704  -0.465  0.00  0.00    -0.276 N 
ATOM     14  C   UNL     1      -0.149  -3.471  -1.570  0.00  0.00    +0.303 C 
ATOM     15  O   UNL     1       0.869  -3.812  -2.142  0.00  0.00    -0.253 OA
ATOM     16  N   UNL     1      -1.349  -3.861  -2.043  0.00  0.00    -0.292 N 
ATOM     17  H   UNL     1      -2.163  -3.527  -1.634  0.00  0.00    +0.151 HD
ATOM     18  H   UNL     1       3.491  -1.913   1.734  0.00  0.00    +0.160 HD
ENDROOT
BRANCH   1  23
ATOM     19  C   UNL     1       0.200   1.369   0.747  0.00  0.00    +0.000 A 
ATOM     20  C   UNL     1       1.130   2.091   0.021  0.00  0.00    +0.003 A 
ATOM     21  C   UNL     1       2.092   1.431  -0.719  0.00  0.00    +0.039 A 
ATOM     22  C   UNL     1       2.124   0.047  -0.735  0.00  0.00    +0.128 A 
ATOM     23  C   UNL     1       1.193  -0.675  -0.008  0.00  0.00    +0.010 A 
ATOM     24  C   UNL     1       0.231  -0.013   0.732  0.00  0.00    +0.008 A 
ATOM     25  F   UNL     1       3.064  -0.599  -1.459  0.00  0.00    -0.205 F 
ENDBRANCH   1  23
BRANCH  16  26
ATOM     26  C   UNL     1      -1.425  -4.789  -3.174  0.00  0.00    +0.180 C 
BRANCH  26  27
ATOM     27  C   UNL     1      -2.870  -5.062  -3.504  0.00  0.00    +0.122 A 
ATOM     28  C   UNL     1      -3.625  -4.364  -4.371  0.00  0.00    +0.046 A 
ATOM     29  C   UNL     1      -4.907  -4.960  -4.371  0.00  0.00    +0.041 A 
ATOM     30  C   UNL     1      -4.859  -5.987  -3.503  0.00  0.00    +0.195 A 
ATOM     31  O   UNL     1      -3.621  -6.047  -2.985  0.00  0.00    -0.466 OA
ENDBRANCH  26  27
ENDBRANCH  16  26
TORSDOF 3
