REMARK  Name = ZINC08920378
REMARK  11 active torsions:
REMARK  status: ('A' for Active; 'I' for Inactive)
REMARK    1  A    between atoms: C_1  and  C_2
REMARK    2  A    between atoms: C_2  and  N_60
REMARK    3  A    between atoms: C_3  and  C_4
REMARK    4  A    between atoms: C_3  and  N_60
REMARK    5  A    between atoms: C_5  and  C_6
REMARK    6  A    between atoms: C_5  and  N_60
REMARK    7  A    between atoms: C_6  and  C_7
REMARK    8  A    between atoms: C_7  and  N_8
REMARK    9  A    between atoms: C_9  and  C_27
REMARK   10  A    between atoms: C_12  and  C_13
REMARK   11  A    between atoms: C_12  and  O_22
REMARK                            x       y       z     vdW  Elec       q    Type
REMARK                         _______ _______ _______ _____ _____    ______ ____
ROOT
ATOM      1  N   UNL     1       5.078  -3.245  -0.469  0.00  0.00    -0.284 N 
ATOM      2  C   UNL     1       3.625  -3.422  -0.533  0.00  0.00    +0.145 C 
ATOM      3  C   UNL     1       3.014  -2.055  -0.330  0.00  0.00    +0.074 C 
ATOM      4  C   UNL     1       1.665  -1.740  -0.313  0.00  0.00    +0.168 C 
ATOM      5  C   UNL     1       4.087  -1.169  -0.168  0.00  0.00    +0.249 C 
ATOM      6  O   UNL     1       3.999   0.033   0.015  0.00  0.00    -0.282 OA
ATOM      7  C   UNL     1       5.350  -1.947  -0.255  0.00  0.00    +0.288 C 
ATOM      8  O   UNL     1       6.465  -1.478  -0.152  0.00  0.00    -0.266 OA
ENDROOT
BRANCH   4   9
ATOM      9  C   UNL     1       1.241  -0.343  -0.233  0.00  0.00    +0.171 A 
ATOM     10  C   UNL     1       0.303   0.242  -1.031  0.00  0.00    +0.061 A 
ATOM     11  C   UNL     1       0.199   1.594  -0.618  0.00  0.00    +0.021 A 
ATOM     12  C   UNL     1      -0.580   2.677  -1.040  0.00  0.00    +0.011 A 
ATOM     13  C   UNL     1      -0.444   3.890  -0.427  0.00  0.00    +0.001 A 
ATOM     14  C   UNL     1       0.454   4.053   0.619  0.00  0.00    +0.004 A 
ATOM     15  C   UNL     1       1.228   2.998   1.054  0.00  0.00    +0.047 A 
ATOM     16  C   UNL     1       1.111   1.756   0.442  0.00  0.00    +0.136 A 
ATOM     17  O   UNL     1       1.717   0.569   0.643  0.00  0.00    -0.452 OA
ENDBRANCH   4   9
BRANCH   2  18
ATOM     18  C   UNL     1       3.230  -3.969  -1.881  0.00  0.00    -0.022 A 
ATOM     19  C   UNL     1       3.870  -3.522  -3.022  0.00  0.00    +0.008 A 
ATOM     20  C   UNL     1       3.513  -4.026  -4.258  0.00  0.00    +0.038 A 
ATOM     21  C   UNL     1       2.505  -4.971  -4.354  0.00  0.00    +0.123 A 
ATOM     22  C   UNL     1       1.861  -5.413  -3.212  0.00  0.00    +0.038 A 
ATOM     23  C   UNL     1       2.224  -4.912  -1.976  0.00  0.00    +0.008 A 
ATOM     24  F   UNL     1       2.152  -5.460  -5.563  0.00  0.00    -0.205 F 
ENDBRANCH   2  18
BRANCH   4  25
ATOM     25  O   UNL     1       0.741  -2.725  -0.370  0.00  0.00    -0.503 OA
ATOM     26  H   UNL     1      -0.175  -2.324  -0.348  0.00  0.00    +0.292 HD
ENDBRANCH   4  25
BRANCH   1  27
ATOM     27  C   UNL     1       6.073  -4.311  -0.614  0.00  0.00    +0.107 C 
BRANCH  27  28
ATOM     28  C   UNL     1       6.455  -4.456  -2.088  0.00  0.00    +0.000 C 
BRANCH  28  29
ATOM     29  C   UNL     1       7.494  -5.569  -2.239  0.00  0.00    -0.077 C 
BRANCH  29  30
ATOM     30  N   UNL     1       7.867  -5.681  -3.665  0.00  0.00    +0.379 N 
ATOM     31  H   UNL     1       8.130  -4.753  -4.015  0.00  0.00    -0.082 HD
BRANCH  30  33
ATOM     32  C   UNL     1      10.292  -5.849  -3.409  0.00  0.00    -0.017 C 
ATOM     33  C   UNL     1       9.020  -6.595  -3.814  0.00  0.00    -0.082 C 
ENDBRANCH  30  33
BRANCH  30  34
ATOM     34  C   UNL     1       6.720  -6.183  -4.450  0.00  0.00    -0.082 C 
ATOM     35  C   UNL     1       7.000  -5.948  -5.936  0.00  0.00    -0.017 C 
ENDBRANCH  30  34
ENDBRANCH  29  30
ENDBRANCH  28  29
ENDBRANCH  27  28
ENDBRANCH   1  27
TORSDOF 9
