REMARK  Name = ZINC39483360
REMARK  7 active torsions:
REMARK  status: ('A' for Active; 'I' for Inactive)
REMARK    1  A    between atoms: C_1  and  C_2
REMARK    2  A    between atoms: C_2  and  C_3
REMARK    3  A    between atoms: C_3  and  C_4
REMARK    4  A    between atoms: C_19  and  C_20
REMARK    5  A    between atoms: C_22  and  S_27
REMARK    6  A    between atoms: S_27  and  O_30
REMARK    7  A    between atoms: O_30  and  C_31
REMARK                            x       y       z     vdW  Elec       q    Type
REMARK                         _______ _______ _______ _____ _____    ______ ____
ROOT
ATOM      1  C   UNL     1       0.243  -1.743  -0.451  0.00  0.00    -0.021 A 
ATOM      2  C   UNL     1       1.236  -2.359   0.278  0.00  0.00    +0.006 A 
ATOM      3  C   UNL     1       1.304  -3.744   0.358  0.00  0.00    +0.001 A 
ATOM      4  C   UNL     1       0.375  -4.531  -0.287  0.00  0.00    +0.015 A 
ATOM      5  C   UNL     1      -0.642  -3.929  -1.025  0.00  0.00    +0.065 A 
ATOM      6  C   UNL     1      -0.711  -2.519  -1.116  0.00  0.00    +0.082 A 
ATOM      7  N   UNL     1      -1.683  -1.961  -1.857  0.00  0.00    -0.229 NA
ATOM      8  C   UNL     1      -2.601  -2.679  -2.471  0.00  0.00    +0.140 A 
ATOM      9  N   UNL     1      -2.656  -4.047  -2.369  0.00  0.00    -0.293 N 
ATOM     10  C   UNL     1      -1.667  -4.717  -1.721  0.00  0.00    +0.262 A 
ATOM     11  O   UNL     1      -1.638  -5.934  -1.707  0.00  0.00    -0.267 OA
ATOM     12  C   UNL     1      -3.767  -4.821  -2.907  0.00  0.00    +0.127 C 
ATOM     13  C   UNL     1      -4.463  -4.165  -4.077  0.00  0.00    +0.026 C 
ATOM     14  C   UNL     1      -4.791  -2.703  -3.821  0.00  0.00    +0.040 C 
ATOM     15  C   UNL     1      -3.583  -1.975  -3.306  0.00  0.00    -0.004 C 
ATOM     16  C   UNL     1      -3.401  -0.675  -3.610  0.00  0.00    +0.015 C 
ENDROOT
BRANCH  16  17
ATOM     17  C   UNL     1      -4.459   0.074  -4.308  0.00  0.00    -0.021 A 
ATOM     18  C   UNL     1      -4.123   1.085  -5.214  0.00  0.00    +0.038 A 
ATOM     19  C   UNL     1      -5.119   1.782  -5.864  0.00  0.00    +0.130 A 
ATOM     20  C   UNL     1      -6.449   1.484  -5.622  0.00  0.00    +0.050 A 
ATOM     21  C   UNL     1      -6.790   0.485  -4.726  0.00  0.00    +0.043 A 
ATOM     22  C   UNL     1      -5.803  -0.225  -4.072  0.00  0.00    +0.028 A 
ATOM     23 CL   UNL     1      -8.461   0.121  -4.429  0.00  0.00    -0.083 Cl
BRANCH  19  24
ATOM     24  S   UNL     1      -4.698   3.056  -7.006  0.00  0.00    +0.151 S 
ATOM     25  O   UNL     1      -5.819   3.927  -7.074  0.00  0.00    -0.131 OA
ATOM     26  O   UNL     1      -3.401   3.510  -6.648  0.00  0.00    -0.131 OA
BRANCH  24  27
ATOM     27  O   UNL     1      -4.568   2.407  -8.377  0.00  0.00    -0.342 OA
BRANCH  27  28
ATOM     28  C   UNL     1      -5.757   2.086  -8.952  0.00  0.00    +0.157 A 
ATOM     29  C   UNL     1      -6.326   0.841  -8.724  0.00  0.00    +0.048 A 
ATOM     30  C   UNL     1      -7.535   0.518  -9.309  0.00  0.00    +0.004 A 
ATOM     31  C   UNL     1      -8.178   1.433 -10.121  0.00  0.00    +0.000 A 
ATOM     32  C   UNL     1      -7.613   2.675 -10.350  0.00  0.00    +0.004 A 
ATOM     33  C   UNL     1      -6.407   3.005  -9.762  0.00  0.00    +0.048 A 
ENDBRANCH  27  28
ENDBRANCH  24  27
ENDBRANCH  19  24
ENDBRANCH  16  17
BRANCH   1  34
ATOM     34  C   UNL     1       0.183  -0.239  -0.527  0.00  0.00    +0.037 C 
BRANCH  34  36
ATOM     35  C   UNL     1      -0.837   1.814   0.467  0.00  0.00    +0.004 C 
ATOM     36  C   UNL     1      -0.775   0.287   0.544  0.00  0.00    +0.001 C 
ENDBRANCH  34  36
ENDBRANCH   1  34
TORSDOF 6
