REMARK  Name = ZINC01637582
REMARK  6 active torsions:
REMARK  status: ('A' for Active; 'I' for Inactive)
REMARK    1  A    between atoms: C_3  and  S_21
REMARK    2  A    between atoms: C_6  and  N_7
REMARK    3  A    between atoms: N_7  and  C_8
REMARK    4  A    between atoms: C_8  and  N_10
REMARK    5  A    between atoms: N_10  and  C_11
REMARK    6  A    between atoms: S_21  and  N_24
REMARK                            x       y       z     vdW  Elec       q    Type
REMARK                         _______ _______ _______ _____ _____    ______ ____
ROOT
ATOM      1  N   UNL     1      -2.723   8.003   0.211  0.00  0.00    -0.297 N 
ATOM      2  H   UNL     1      -2.066   7.565   0.774  0.00  0.00    +0.154 HD
ENDROOT
BRANCH   1   8
ATOM      3  C   UNL     1      -1.843  10.236   0.476  0.00  0.00    +0.025 A 
ATOM      4  C   UNL     1      -2.049  11.598   0.576  0.00  0.00    +0.030 A 
ATOM      5  C   UNL     1      -3.332  12.111   0.529  0.00  0.00    +0.109 A 
ATOM      6  C   UNL     1      -4.413  11.263   0.377  0.00  0.00    +0.030 A 
ATOM      7  C   UNL     1      -4.215   9.900   0.271  0.00  0.00    +0.025 A 
ATOM      8  C   UNL     1      -2.927   9.382   0.318  0.00  0.00    +0.033 A 
BRANCH   5   9
ATOM      9  S   UNL     1      -3.590  13.849   0.664  0.00  0.00    +0.074 S 
ATOM     10  O   UNL     1      -2.381  14.472   0.250  0.00  0.00    -0.150 OA
ATOM     11  O   UNL     1      -4.839  14.123   0.045  0.00  0.00    -0.150 OA
BRANCH   9  12
ATOM     12  N   UNL     1      -3.773  14.193   2.273  0.00  0.00    -0.194 N 
ATOM     13  C   UNL     1      -2.716  13.998   3.148  0.00  0.00    +0.177 A 
ATOM     14  N   UNL     1      -1.503  13.547   2.895  0.00  0.00    -0.232 NA
ATOM     15  C   UNL     1      -0.605  13.425   3.856  0.00  0.00    +0.120 A 
ATOM     16  C   UNL     1      -0.960  13.765   5.118  0.00  0.00    +0.068 A 
ATOM     17  S   UNL     1      -2.652  14.279   4.861  0.00  0.00    -0.059 S 
ATOM     18  H   UNL     1      -4.620  14.531   2.603  0.00  0.00    +0.176 HD
ENDBRANCH   9  12
ENDBRANCH   5   9
ENDBRANCH   1   8
BRANCH   1  19
ATOM     19  C   UNL     1      -3.439   7.282  -0.674  0.00  0.00    +0.138 C 
ATOM     20  S   UNL     1      -4.492   8.071  -1.769  0.00  0.00    -0.018 S 
BRANCH  19  21
ATOM     21  N   UNL     1      -3.325   5.939  -0.698  0.00  0.00    -0.302 N 
ATOM     22  H   UNL     1      -2.728   5.491  -0.079  0.00  0.00    +0.153 HD
BRANCH  21  23
ATOM     23  C   UNL     1      -4.048   5.211  -1.592  0.00  0.00    +0.092 C 
ATOM     24  C   UNL     1      -4.013   3.833  -1.547  0.00  0.00    +0.113 C 
ATOM     25  C   UNL     1      -4.889   3.012  -2.405  0.00  0.00    +0.258 C 
ATOM     26  O   UNL     1      -5.669   3.532  -3.180  0.00  0.00    -0.270 OA
ATOM     27  N   UNL     1      -4.801   1.670  -2.307  0.00  0.00    -0.236 N 
ATOM     28  C   UNL     1      -3.945   1.084  -1.458  0.00  0.00    +0.313 C 
ATOM     29  O   UNL     1      -3.915  -0.130  -1.418  0.00  0.00    -0.252 OA
ATOM     30  N   UNL     1      -3.125   1.766  -0.646  0.00  0.00    -0.236 N 
ATOM     31  C   UNL     1      -3.100   3.114  -0.639  0.00  0.00    +0.258 C 
ATOM     32  O   UNL     1      -2.348   3.721   0.100  0.00  0.00    -0.270 OA
ATOM     33  H   UNL     1      -5.370   1.116  -2.864  0.00  0.00    +0.159 HD
ATOM     34  H   UNL     1      -2.533   1.278  -0.052  0.00  0.00    +0.159 HD
ENDBRANCH  21  23
ENDBRANCH  19  21
ENDBRANCH   1  19
TORSDOF 6
