REMARK  Name = ZINC36306512
REMARK  15 active torsions:
REMARK  status: ('A' for Active; 'I' for Inactive)
REMARK    1  A    between atoms: C_1  and  C_2
REMARK    2  A    between atoms: C_6  and  O_8
REMARK    3  A    between atoms: O_8  and  C_9
REMARK    4  A    between atoms: C_10  and  C_21
REMARK    5  A    between atoms: C_11  and  C_15
REMARK    6  A    between atoms: N_13  and  C_14
REMARK    7  A    between atoms: C_21  and  N_22
REMARK    8  A    between atoms: N_22  and  C_23
REMARK    9  A    between atoms: N_22  and  C_30
REMARK   10  A    between atoms: C_23  and  C_24
REMARK   11  A    between atoms: C_30  and  C_31
REMARK   12  A    between atoms: C_31  and  C_33
REMARK   13  A    between atoms: C_31  and  O_36
REMARK   14  A    between atoms: C_33  and  C_34
REMARK   15  A    between atoms: C_33  and  C_35
REMARK                            x       y       z     vdW  Elec       q    Type
REMARK                         _______ _______ _______ _____ _____    ______ ____
ROOT
ATOM      1  C   UNL     1      -1.463  -4.051   1.415  0.00  0.00    +0.221 A 
ATOM      2  C   UNL     1      -0.892  -4.792   2.399  0.00  0.00    +0.025 A 
ATOM      3  C   UNL     1      -0.366  -5.957   1.810  0.00  0.00    +0.098 A 
ATOM      4  N   UNL     1      -0.615  -5.912   0.519  0.00  0.00    -0.168 NA
ATOM      5  N   UNL     1      -1.309  -4.726   0.246  0.00  0.00    -0.235 N 
ATOM      6  C   UNL     1      -1.783  -4.289  -1.069  0.00  0.00    +0.176 C 
ENDROOT
BRANCH   3   7
ATOM      7  C   UNL     1       0.347  -7.047   2.522  0.00  0.00    +0.002 A 
ATOM      8  C   UNL     1       0.063  -8.378   2.225  0.00  0.00    +0.010 A 
ATOM      9  C   UNL     1       0.729  -9.388   2.890  0.00  0.00    +0.001 A 
ATOM     10  C   UNL     1       1.676  -9.080   3.850  0.00  0.00    +0.000 A 
ATOM     11  C   UNL     1       1.962  -7.760   4.149  0.00  0.00    +0.001 A 
ATOM     12  C   UNL     1       1.306  -6.742   3.485  0.00  0.00    +0.010 A 
ENDBRANCH   3   7
BRANCH   1  13
ATOM     13  O   UNL     1      -2.083  -2.854   1.571  0.00  0.00    -0.438 OA
BRANCH  13  19
ATOM     14  C   UNL     1      -1.889   2.012   1.244  0.00  0.00    +0.044 C 
ATOM     15  C   UNL     1      -1.222   0.662   1.200  0.00  0.00    -0.047 A 
ATOM     16  C   UNL     1       0.135   0.569   0.952  0.00  0.00    +0.003 A 
ATOM     17  C   UNL     1       0.750  -0.668   0.911  0.00  0.00    +0.004 A 
ATOM     18  C   UNL     1       0.010  -1.816   1.118  0.00  0.00    +0.046 A 
ATOM     19  C   UNL     1      -1.352  -1.726   1.368  0.00  0.00    +0.131 A 
ATOM     20  C   UNL     1      -1.966  -0.482   1.413  0.00  0.00    +0.049 A 
ENDBRANCH  13  19
ENDBRANCH   1  13
BRANCH   2  21
ATOM     21  C   UNL     1      -0.833  -4.431   3.861  0.00  0.00    -0.035 C 
BRANCH  21  22
ATOM     22  N   UNL     1      -2.108  -4.778   4.503  0.00  0.00    +0.386 N 
ATOM     23  H   UNL     1      -2.866  -4.331   4.009  0.00  0.00    -0.081 HD
BRANCH  22  24
ATOM     24  C   UNL     1      -2.095  -4.318   5.898  0.00  0.00    -0.046 C 
BRANCH  24  25
ATOM     25  C   UNL     1      -1.950  -2.795   5.932  0.00  0.00    +0.102 C 
ATOM     26  C   UNL     1      -2.027  -2.294   7.390  0.00  0.00    +0.032 C 
ATOM     27  C   UNL     1      -2.853  -0.987   7.246  0.00  0.00    +0.030 C 
ATOM     28  C   UNL     1      -3.812  -1.371   6.090  0.00  0.00    +0.160 C 
ATOM     29  O   UNL     1      -3.026  -2.188   5.206  0.00  0.00    -0.378 OA
ENDBRANCH  24  25
ENDBRANCH  22  24
BRANCH  22  30
ATOM     30  C   UNL     1      -2.293  -6.235   4.469  0.00  0.00    -0.046 C 
BRANCH  30  31
ATOM     31  C   UNL     1      -3.698  -6.582   4.964  0.00  0.00    +0.101 C 
BRANCH  31  32
ATOM     32  C   UNL     1      -3.967  -8.071   4.733  0.00  0.00    +0.010 C 
ATOM     33  C   UNL     1      -5.372  -8.418   5.228  0.00  0.00    +0.010 C 
ATOM     34  C   UNL     1      -3.861  -8.382   3.239  0.00  0.00    +0.010 C 
ENDBRANCH  31  32
BRANCH  31  35
ATOM     35  O   UNL     1      -3.797  -6.291   6.360  0.00  0.00    -0.393 OA
ATOM     36  H   UNL     1      -3.142  -6.748   6.904  0.00  0.00    +0.210 HD
ENDBRANCH  31  35
ENDBRANCH  30  31
ENDBRANCH  22  30
ENDBRANCH  21  22
ENDBRANCH   2  21
TORSDOF 11
