REMARK  Name = ZINC20532221
REMARK  12 active torsions:
REMARK  status: ('A' for Active; 'I' for Inactive)
REMARK    1  A    between atoms: C_1  and  C_2
REMARK    2  A    between atoms: C_2  and  C_3
REMARK    3  A    between atoms: C_3  and  C_5
REMARK    4  A    between atoms: C_3  and  N_21
REMARK    5  A    between atoms: C_9  and  N_10
REMARK    6  A    between atoms: N_16  and  C_19
REMARK    7  A    between atoms: C_19  and  C_20
REMARK    8  A    between atoms: N_24  and  C_25
REMARK    9  A    between atoms: C_27  and  O_33
REMARK   10  A    between atoms: C_29  and  O_31
REMARK   11  A    between atoms: O_31  and  C_32
REMARK   12  A    between atoms: O_33  and  C_34
REMARK                            x       y       z     vdW  Elec       q    Type
REMARK                         _______ _______ _______ _____ _____    ______ ____
ROOT
ATOM      1  C   UNL     1       4.720   5.460  -0.055  0.00  0.00    +0.107 C 
ENDROOT
BRANCH   1   2
ATOM      2  C   UNL     1       6.067   6.097   0.169  0.00  0.00    +0.007 A 
ATOM      3  C   UNL     1       7.224   5.458  -0.269  0.00  0.00    -0.034 A 
ATOM      4  C   UNL     1       8.403   6.095  -0.029  0.00  0.00    -0.021 A 
ATOM      5  S   UNL     1       7.920   7.584   0.800  0.00  0.00    -0.077 S 
ATOM      6  C   UNL     1       6.156   7.302   0.793  0.00  0.00    +0.090 A 
ATOM      7  C   UNL     1       9.771   5.617  -0.393  0.00  0.00    -0.035 C 
ATOM      8  N   UNL     1       9.680   4.186  -0.743  0.00  0.00    +0.383 N 
ATOM      9  C   UNL     1       8.582   3.954  -1.692  0.00  0.00    -0.074 C 
ATOM     10  C   UNL     1       7.232   4.111  -0.988  0.00  0.00    +0.018 C 
ATOM     11  H   UNL     1       9.465   3.618   0.174  0.00  0.00    -0.081 HD
BRANCH   6  12
ATOM     12  N   UNL     1       5.132   8.110   1.301  0.00  0.00    -0.317 N 
ATOM     13  C   UNL     1       3.983   8.446   0.643  0.00  0.00    +0.092 A 
ATOM     14  C   UNL     1       3.247   9.231   1.457  0.00  0.00    +0.019 A 
ATOM     15  C   UNL     1       3.969   9.394   2.655  0.00  0.00    +0.019 A 
ATOM     16  C   UNL     1       5.118   8.698   2.533  0.00  0.00    +0.092 A 
ENDBRANCH   6  12
BRANCH   8  17
ATOM     17  C   UNL     1      10.955   3.695  -1.282  0.00  0.00    -0.082 C 
ATOM     18  C   UNL     1      11.241   4.379  -2.620  0.00  0.00    -0.017 C 
ENDBRANCH   8  17
ENDBRANCH   1   2
BRANCH   1  19
ATOM     19  N   UNL     1       4.779   4.046   0.325  0.00  0.00    -0.292 N 
ATOM     20  C   UNL     1       3.714   3.459   0.905  0.00  0.00    +0.304 C 
ATOM     21  O   UNL     1       2.703   4.102   1.112  0.00  0.00    -0.252 OA
ATOM     22  N   UNL     1       3.769   2.158   1.255  0.00  0.00    -0.269 N 
ATOM     23  H   UNL     1       5.694   3.464   0.138  0.00  0.00    +0.151 HD
ATOM     24  H   UNL     1       4.708   1.597   1.139  0.00  0.00    +0.156 HD
BRANCH  22  25
ATOM     25  C   UNL     1       2.631   1.522   1.765  0.00  0.00    +0.042 A 
ATOM     26  C   UNL     1       1.753   2.221   2.581  0.00  0.00    +0.069 A 
ATOM     27  C   UNL     1       0.626   1.591   3.087  0.00  0.00    +0.125 A 
ATOM     28  C   UNL     1       0.377   0.262   2.777  0.00  0.00    +0.091 A 
ATOM     29  C   UNL     1       1.255  -0.437   1.962  0.00  0.00    +0.125 A 
ATOM     30  C   UNL     1       2.382   0.192   1.456  0.00  0.00    +0.069 A 
BRANCH  29  31
ATOM     31  O   UNL     1       1.011  -1.739   1.660  0.00  0.00    -0.495 OA
ATOM     32  C   UNL     1      -0.168  -2.325   2.216  0.00  0.00    +0.277 C 
ENDBRANCH  29  31
BRANCH  27  33
ATOM     33  O   UNL     1      -0.237   2.276   3.881  0.00  0.00    -0.495 OA
ATOM     34  C   UNL     1      -1.380   1.566   4.362  0.00  0.00    +0.277 C 
ENDBRANCH  27  33
ENDBRANCH  22  25
ENDBRANCH   1  19
BRANCH   1  36
ATOM     35  C   UNL     1       2.922   5.040  -1.738  0.00  0.00    +0.006 C 
ATOM     36  C   UNL     1       4.340   5.574  -1.533  0.00  0.00    +0.024 C 
ENDBRANCH   1  36
TORSDOF 8
