REMARK  Name = ZINC39665112
REMARK  9 active torsions:
REMARK  status: ('A' for Active; 'I' for Inactive)
REMARK    1  A    between atoms: C_1  and  C_2
REMARK    2  A    between atoms: C_2  and  C_4
REMARK    3  A    between atoms: C_2  and  O_32
REMARK    4  A    between atoms: C_4  and  N_5
REMARK    5  A    between atoms: C_6  and  C_8
REMARK    6  A    between atoms: C_19  and  C_21
REMARK    7  A    between atoms: C_24  and  O_27
REMARK    8  A    between atoms: O_27  and  C_28
REMARK    9  A    between atoms: O_32  and  C_33
REMARK                            x       y       z     vdW  Elec       q    Type
REMARK                         _______ _______ _______ _____ _____    ______ ____
ROOT
ATOM      1  C   UNL     1       0.911  -3.882  -2.326  0.00  0.00    +0.100 C 
ATOM      2  C   UNL     1       1.526  -4.504  -1.052  0.00  0.00    +0.121 C 
ATOM      3  N   UNL     1       2.187  -5.744  -1.522  0.00  0.00    -0.296 N 
ATOM      4  C   UNL     1       2.793  -5.368  -2.822  0.00  0.00    +0.115 C 
ATOM      5  C   UNL     1       1.746  -4.450  -3.485  0.00  0.00    -0.004 C 
ATOM      6  C   UNL     1       2.440  -3.321  -4.241  0.00  0.00    -0.010 C 
ATOM      7  C   UNL     1       3.216  -3.906  -5.424  0.00  0.00    -0.082 C 
ATOM      8  N   UNL     1       2.292  -4.622  -6.313  0.00  0.00    +0.379 N 
ATOM      9  C   UNL     1       1.700  -5.763  -5.605  0.00  0.00    -0.082 C 
ATOM     10  C   UNL     1       0.860  -5.257  -4.429  0.00  0.00    -0.010 C 
ATOM     11  C   UNL     1       2.228  -6.943  -0.908  0.00  0.00    +0.247 C 
ATOM     12  O   UNL     1       1.587  -7.127   0.109  0.00  0.00    -0.270 OA
ATOM     13  H   UNL     1       1.560  -3.995  -6.609  0.00  0.00    -0.086 HD
ATOM     14  H   UNL     1       2.796  -4.954  -7.122  0.00  0.00    -0.086 HD
ENDROOT
BRANCH  11  15
ATOM     15  C   UNL     1       3.050  -8.032  -1.469  0.00  0.00    +0.037 A 
ATOM     16  C   UNL     1       4.151  -7.734  -2.276  0.00  0.00    +0.016 A 
ATOM     17  C   UNL     1       4.916  -8.754  -2.798  0.00  0.00    +0.047 A 
ATOM     18  C   UNL     1       4.595 -10.077  -2.522  0.00  0.00    +0.130 A 
ATOM     19  C   UNL     1       3.501 -10.378  -1.719  0.00  0.00    +0.047 A 
ATOM     20  C   UNL     1       2.734  -9.364  -1.189  0.00  0.00    +0.016 A 
BRANCH  18  21
ATOM     21  O   UNL     1       5.351 -11.079  -3.038  0.00  0.00    -0.406 OA
BRANCH  21  22
ATOM     22  C   UNL     1       4.964 -12.416  -2.715  0.00  0.00    +0.575 C 
ATOM     23  F   UNL     1       3.664 -12.650  -3.176  0.00  0.00    -0.133 F 
ATOM     24  F   UNL     1       5.845 -13.316  -3.324  0.00  0.00    -0.133 F 
ATOM     25  F   UNL     1       5.006 -12.591  -1.327  0.00  0.00    -0.133 F 
ENDBRANCH  21  22
ENDBRANCH  18  21
ENDBRANCH  11  15
BRANCH   1  27
ATOM     26  N   UNL     1       0.098  -1.615  -2.892  0.00  0.00    -0.312 N 
ATOM     27  C   UNL     1       1.027  -2.380  -2.284  0.00  0.00    +0.218 C 
ATOM     28  O   UNL     1       1.955  -1.859  -1.703  0.00  0.00    -0.275 OA
ATOM     29  H   UNL     1      -0.645  -2.032  -3.356  0.00  0.00    +0.149 HD
BRANCH  26  30
ATOM     30  C   UNL     1       0.210  -0.155  -2.851  0.00  0.00    +0.148 C 
BRANCH  30  32
ATOM     31  C   UNL     1      -0.780   1.986  -3.675  0.00  0.00    +0.053 C 
ATOM     32  C   UNL     1      -0.963   0.468  -3.611  0.00  0.00    +0.187 C 
BRANCH  32  33
ATOM     33  O   UNL     1      -2.184   0.163  -2.935  0.00  0.00    -0.488 OA
BRANCH  33  34
ATOM     34  C   UNL     1      -3.320   0.167  -3.681  0.00  0.00    +0.121 A 
ATOM     35  C   UNL     1      -3.249   0.353  -5.054  0.00  0.00    +0.045 A 
ATOM     36  C   UNL     1      -4.405   0.356  -5.810  0.00  0.00    +0.004 A 
ATOM     37  C   UNL     1      -5.632   0.175  -5.200  0.00  0.00    +0.000 A 
ATOM     38  C   UNL     1      -5.706  -0.011  -3.831  0.00  0.00    +0.004 A 
ATOM     39  C   UNL     1      -4.552  -0.021  -3.071  0.00  0.00    +0.045 A 
ENDBRANCH  33  34
ENDBRANCH  32  33
ENDBRANCH  30  32
ENDBRANCH  26  30
ENDBRANCH   1  27
TORSDOF 8
