REMARK  Name = ZINC08427807
REMARK  14 active torsions:
REMARK  status: ('A' for Active; 'I' for Inactive)
REMARK    1  A    between atoms: C_1  and  C_2
REMARK    2  A    between atoms: C_2  and  C_3
REMARK    3  A    between atoms: C_3  and  C_5
REMARK    4  A    between atoms: C_3  and  N_28
REMARK    5  A    between atoms: C_8  and  S_18
REMARK    6  A    between atoms: N_9  and  C_10
REMARK    7  A    between atoms: C_13  and  O_16
REMARK    8  A    between atoms: O_16  and  C_17
REMARK    9  A    between atoms: S_18  and  C_19
REMARK   10  A    between atoms: C_19  and  C_21
REMARK   11  A    between atoms: C_19  and  C_22
REMARK   12  A    between atoms: N_24  and  C_25
REMARK   13  A    between atoms: N_28  and  C_29
REMARK   14  A    between atoms: N_28  and  C_30
REMARK                            x       y       z     vdW  Elec       q    Type
REMARK                         _______ _______ _______ _____ _____    ______ ____
ROOT
ATOM      1  C   UNL     1      -1.965  -1.852   0.278  0.00  0.00    +0.125 A 
ATOM      2  N   UNL     1      -1.591  -2.831  -0.497  0.00  0.00    -0.135 NA
ATOM      3  N   UNL     1      -1.959  -3.956   0.004  0.00  0.00    -0.122 NA
ATOM      4  C   UNL     1      -2.595  -3.756   1.135  0.00  0.00    +0.197 A 
ATOM      5  N   UNL     1      -2.613  -2.405   1.349  0.00  0.00    -0.275 N 
ENDROOT
BRANCH   5   6
ATOM      6  C   UNL     1      -3.182  -1.727   2.439  0.00  0.00    +0.050 A 
ATOM      7  C   UNL     1      -2.372  -1.012   3.311  0.00  0.00    +0.030 A 
ATOM      8  C   UNL     1      -2.932  -0.345   4.383  0.00  0.00    +0.047 A 
ATOM      9  C   UNL     1      -4.303  -0.389   4.588  0.00  0.00    +0.120 A 
ATOM     10  C   UNL     1      -5.113  -1.103   3.717  0.00  0.00    +0.047 A 
ATOM     11  C   UNL     1      -4.554  -1.766   2.642  0.00  0.00    +0.030 A 
BRANCH   9  12
ATOM     12  O   UNL     1      -4.854   0.268   5.643  0.00  0.00    -0.495 OA
ATOM     13  C   UNL     1      -6.272   0.179   5.794  0.00  0.00    +0.277 C 
ENDBRANCH   9  12
ENDBRANCH   5   6
BRANCH   1  14
ATOM     14  C   UNL     1      -1.723  -0.383   0.041  0.00  0.00    +0.000 C 
BRANCH  14  15
ATOM     15  N   UNL     1      -2.034  -0.055  -1.357  0.00  0.00    +0.383 N 
ATOM     16  C   UNL     1      -3.432  -0.406  -1.643  0.00  0.00    -0.096 C 
ATOM     17  C   UNL     1      -1.836   1.383  -1.578  0.00  0.00    -0.096 C 
ATOM     18  H   UNL     1      -1.425  -0.577  -1.969  0.00  0.00    -0.082 HD
ENDBRANCH  14  15
BRANCH  14  20
ATOM     19  C   UNL     1       0.641  -0.884  -0.594  0.00  0.00    +0.002 C 
ATOM     20  C   UNL     1      -0.256  -0.055   0.327  0.00  0.00    -0.011 C 
ENDBRANCH  14  20
ENDBRANCH   1  14
BRANCH   4  21
ATOM     21  S   UNL     1      -3.285  -4.993   2.183  0.00  0.00    -0.073 S 
BRANCH  21  22
ATOM     22  C   UNL     1      -2.908  -6.549   1.332  0.00  0.00    +0.137 C 
ATOM     23  C   UNL     1      -3.655  -6.595  -0.003  0.00  0.00    +0.029 C 
BRANCH  22  24
ATOM     24  C   UNL     1      -3.341  -7.709   2.191  0.00  0.00    +0.226 C 
ATOM     25  O   UNL     1      -4.223  -7.561   3.010  0.00  0.00    -0.275 OA
ATOM     26  N   UNL     1      -2.749  -8.912   2.048  0.00  0.00    -0.312 N 
ATOM     27  H   UNL     1      -2.044  -9.030   1.393  0.00  0.00    +0.149 HD
BRANCH  26  28
ATOM     28  C   UNL     1      -3.170 -10.039   2.883  0.00  0.00    +0.073 C 
ATOM     29  C   UNL     1      -2.074 -10.921   3.485  0.00  0.00    +0.024 C 
ATOM     30  C   UNL     1      -2.936 -11.449   2.336  0.00  0.00    +0.024 C 
ENDBRANCH  26  28
ENDBRANCH  22  24
ENDBRANCH  21  22
ENDBRANCH   4  21
TORSDOF 9
