REMARK  Name = ZINC16552213
REMARK  6 active torsions:
REMARK  status: ('A' for Active; 'I' for Inactive)
REMARK    1  A    between atoms: C_1  and  C_2
REMARK    2  A    between atoms: C_2  and  S_3
REMARK    3  A    between atoms: S_3  and  N_6
REMARK    4  A    between atoms: N_9  and  C_14
REMARK    5  A    between atoms: C_10  and  C_13
REMARK    6  A    between atoms: C_17  and  C_20
REMARK                            x       y       z     vdW  Elec       q    Type
REMARK                         _______ _______ _______ _____ _____    ______ ____
ROOT
ATOM      1  N   UNL     1      -2.214   1.261  -1.127  0.00  0.00    -0.178 NA
ATOM      2  C   UNL     1      -0.845   1.778  -1.272  0.00  0.00    +0.128 C 
ATOM      3  C   UNL     1      -0.001   1.258  -0.104  0.00  0.00    +0.122 C 
ATOM      4  N   UNL     1      -0.662   1.598   1.163  0.00  0.00    -0.325 N 
ATOM      5  C   UNL     1      -1.969   0.937   1.277  0.00  0.00    +0.086 C 
ATOM      6  C   UNL     1      -2.893   1.444   0.165  0.00  0.00    +0.131 C 
ATOM      7  C   UNL     1      -2.586   1.257   2.640  0.00  0.00    +0.029 C 
ENDROOT
BRANCH   4   8
ATOM      8  C   UNL     1       0.155   1.286   2.253  0.00  0.00    +0.030 A 
ATOM      9  C   UNL     1       0.545   2.283   3.138  0.00  0.00    +0.023 A 
ATOM     10  C   UNL     1       1.349   1.970   4.217  0.00  0.00    +0.005 A 
ATOM     11  C   UNL     1       1.773   0.668   4.411  0.00  0.00    -0.050 A 
ATOM     12  C   UNL     1       1.390  -0.326   3.529  0.00  0.00    +0.005 A 
ATOM     13  C   UNL     1       0.582  -0.021   2.451  0.00  0.00    +0.023 A 
ATOM     14  C   UNL     1       2.654   0.331   5.586  0.00  0.00    +0.044 C 
ENDBRANCH   4   8
BRANCH   1  15
ATOM     15  S   UNL     1      -2.971   0.493  -2.384  0.00  0.00    +0.032 S 
ATOM     16  O   UNL     1      -4.358   0.690  -2.146  0.00  0.00    -0.158 OA
ATOM     17  O   UNL     1      -2.355   1.017  -3.552  0.00  0.00    -0.158 OA
BRANCH  15  19
ATOM     18  C   UNL     1      -3.198  -2.073  -3.303  0.00  0.00    +0.029 C 
ATOM     19  C   UNL     1      -2.545  -1.258  -2.184  0.00  0.00    +0.182 C 
ENDBRANCH  15  19
ENDBRANCH   1  15
TORSDOF 3
