REMARK  Name = ZINC39396518
REMARK  6 active torsions:
REMARK  status: ('A' for Active; 'I' for Inactive)
REMARK    1  A    between atoms: C_1  and  C_2
REMARK    2  A    between atoms: C_3  and  C_19
REMARK    3  A    between atoms: N_6  and  C_9
REMARK    4  A    between atoms: N_20  and  C_21
REMARK    5  A    between atoms: N_24  and  C_27
REMARK    6  A    between atoms: C_27  and  C_28
REMARK                            x       y       z     vdW  Elec       q    Type
REMARK                         _______ _______ _______ _____ _____    ______ ____
ROOT
ATOM      1  C   UNL     1      -0.976   0.032   2.793  0.00  0.00    +0.066 C 
ATOM      2  C   UNL     1      -0.453  -0.657   1.558  0.00  0.00    +0.044 A 
ATOM      3  C   UNL     1      -1.149  -0.839   0.381  0.00  0.00    +0.079 A 
ATOM      4  C   UNL     1      -0.245  -1.555  -0.534  0.00  0.00    +0.278 A 
ATOM      5  O   UNL     1      -0.489  -1.902  -1.674  0.00  0.00    -0.265 OA
ATOM      6  N   UNL     1       0.907  -1.750   0.140  0.00  0.00    -0.220 N 
ATOM      7  N   UNL     1       0.776  -1.194   1.416  0.00  0.00    -0.296 N 
ATOM      8  H   UNL     1       1.466  -1.195   2.098  0.00  0.00    +0.187 HD
ENDROOT
BRANCH   6   9
ATOM      9  C   UNL     1       2.099  -2.426  -0.380  0.00  0.00    +0.257 C 
ATOM     10  N   UNL     1       1.778  -3.785  -0.836  0.00  0.00    -0.313 N 
ATOM     11  C   UNL     1       1.974  -4.076  -2.185  0.00  0.00    +0.043 A 
ATOM     12  C   UNL     1       1.725  -5.316  -2.799  0.00  0.00    +0.024 A 
ATOM     13  C   UNL     1       1.952  -5.504  -4.143  0.00  0.00    +0.002 A 
ATOM     14  C   UNL     1       2.433  -4.479  -4.936  0.00  0.00    +0.001 A 
ATOM     15  C   UNL     1       2.688  -3.246  -4.357  0.00  0.00    +0.016 A 
ATOM     16  C   UNL     1       2.461  -3.060  -3.013  0.00  0.00    +0.032 A 
ATOM     17  S   UNL     1       2.668  -1.650  -1.946  0.00  0.00    -0.078 S 
ATOM     18  H   UNL     1       1.443  -4.456  -0.220  0.00  0.00    +0.149 HD
ENDBRANCH   6   9
BRANCH   3  19
ATOM     19  C   UNL     1      -2.522  -0.405   0.097  0.00  0.00    +0.120 C 
ATOM     20  N   UNL     1      -3.457  -1.287  -0.086  0.00  0.00    -0.288 NA
BRANCH  20  21
ATOM     21  C   UNL     1      -3.125  -2.714  -0.097  0.00  0.00    +0.102 C 
ATOM     22  C   UNL     1      -3.506  -3.318  -1.451  0.00  0.00    +0.008 C 
ATOM     23  C   UNL     1      -3.232  -4.824  -1.427  0.00  0.00    -0.076 C 
ATOM     24  N   UNL     1      -4.028  -5.453  -0.367  0.00  0.00    +0.382 N 
ATOM     25  C   UNL     1      -3.618  -4.930   0.942  0.00  0.00    -0.076 C 
ATOM     26  C   UNL     1      -3.908  -3.429   1.009  0.00  0.00    +0.008 C 
ATOM     27  H   UNL     1      -5.005  -5.251  -0.517  0.00  0.00    -0.081 HD
BRANCH  24  28
ATOM     28  C   UNL     1      -3.821  -6.907  -0.398  0.00  0.00    -0.043 C 
BRANCH  28  29
ATOM     29  C   UNL     1      -4.730  -7.566   0.607  0.00  0.00    -0.064 A 
ATOM     30  C   UNL     1      -4.299  -7.760   1.906  0.00  0.00    +0.002 A 
ATOM     31  C   UNL     1      -5.133  -8.364   2.828  0.00  0.00    +0.000 A 
ATOM     32  C   UNL     1      -6.398  -8.774   2.451  0.00  0.00    +0.000 A 
ATOM     33  C   UNL     1      -6.829  -8.580   1.152  0.00  0.00    +0.000 A 
ATOM     34  C   UNL     1      -5.997  -7.971   0.231  0.00  0.00    +0.002 A 
ENDBRANCH  28  29
ENDBRANCH  24  28
ENDBRANCH  20  21
ENDBRANCH   3  19
TORSDOF 5
