REMARK  Name = ZINC10022065
REMARK  10 active torsions:
REMARK  status: ('A' for Active; 'I' for Inactive)
REMARK    1  A    between atoms: C_1  and  C_2
REMARK    2  A    between atoms: C_9  and  N_18
REMARK    3  A    between atoms: C_10  and  C_11
REMARK    4  A    between atoms: C_14  and  O_16
REMARK    5  A    between atoms: O_16  and  C_17
REMARK    6  A    between atoms: C_19  and  C_21
REMARK    7  A    between atoms: C_21  and  C_22
REMARK    8  A    between atoms: C_22  and  C_23
REMARK    9  A    between atoms: C_23  and  S_24
REMARK   10  A    between atoms: S_24  and  C_27
REMARK                            x       y       z     vdW  Elec       q    Type
REMARK                         _______ _______ _______ _____ _____    ______ ____
ROOT
ATOM      1  C   UNL     1      -1.435   3.621   2.530  0.00  0.00    +0.008 C 
ATOM      2  C   UNL     1      -0.938   3.097   1.181  0.00  0.00    -0.009 C 
ATOM      3  C   UNL     1      -0.735   1.582   1.262  0.00  0.00    +0.008 C 
ATOM      4  C   UNL     1      -0.013   1.086   0.008  0.00  0.00    +0.037 C 
ATOM      5  C   UNL     1      -0.755   1.593  -1.222  0.00  0.00    -0.023 A 
ATOM      6  C   UNL     1      -1.621   2.627  -1.135  0.00  0.00    -0.004 A 
ATOM      7  S   UNL     1      -2.225   2.851  -2.783  0.00  0.00    -0.077 S 
ATOM      8  C   UNL     1      -1.342   1.591  -3.580  0.00  0.00    +0.084 A 
ATOM      9  C   UNL     1      -0.600   1.026  -2.551  0.00  0.00    +0.069 A 
ATOM     10  C   UNL     1      -1.979   3.403   0.095  0.00  0.00    +0.046 C 
ENDROOT
BRANCH   9  11
ATOM     11  C   UNL     1       0.306  -0.098  -2.796  0.00  0.00    +0.255 C 
ATOM     12  O   UNL     1      -0.103  -1.240  -2.702  0.00  0.00    -0.270 OA
ATOM     13  N   UNL     1       1.592   0.132  -3.126  0.00  0.00    -0.217 N 
ATOM     14  C   UNL     1       2.426  -0.903  -3.352  0.00  0.00    +0.407 C 
ATOM     15  O   UNL     1       2.017  -2.043  -3.258  0.00  0.00    -0.226 OA
ATOM     16  H   UNL     1       1.918   1.042  -3.201  0.00  0.00    +0.161 HD
BRANCH  14  17
ATOM     17  O   UNL     1       3.710  -0.673  -3.682  0.00  0.00    -0.453 OA
ATOM     18  C   UNL     1       4.550  -1.835  -3.910  0.00  0.00    +0.282 C 
ENDBRANCH  14  17
ENDBRANCH   9  11
BRANCH   8  19
ATOM     19  N   UNL     1      -1.369   1.234  -4.919  0.00  0.00    -0.279 N 
ATOM     20  C   UNL     1      -2.160   1.905  -5.779  0.00  0.00    +0.218 C 
ATOM     21  O   UNL     1      -2.848   2.822  -5.382  0.00  0.00    -0.275 OA
ATOM     22  H   UNL     1      -0.819   0.501  -5.237  0.00  0.00    +0.155 HD
BRANCH  20  23
ATOM     23  C   UNL     1      -2.190   1.517  -7.235  0.00  0.00    +0.098 C 
BRANCH  23  24
ATOM     24  C   UNL     1      -3.161   2.429  -7.987  0.00  0.00    +0.032 C 
BRANCH  24  25
ATOM     25  C   UNL     1      -3.192   2.035  -9.465  0.00  0.00    +0.172 C 
BRANCH  25  26
ATOM     26  S   UNL     1      -4.343   3.117 -10.356  0.00  0.00    -0.003 S 
ATOM     27  O   UNL     1      -5.677   2.863  -9.937  0.00  0.00    -0.169 OA
ATOM     28  O   UNL     1      -3.837   4.444 -10.396  0.00  0.00    -0.169 OA
BRANCH  26  29
ATOM     29  C   UNL     1      -4.284   2.562 -12.027  0.00  0.00    +0.088 A 
ATOM     30  C   UNL     1      -3.372   3.115 -12.907  0.00  0.00    +0.028 A 
ATOM     31  C   UNL     1      -3.322   2.676 -14.217  0.00  0.00    +0.022 A 
ATOM     32  C   UNL     1      -4.191   1.692 -14.650  0.00  0.00    +0.041 A 
ATOM     33  C   UNL     1      -5.108   1.143 -13.771  0.00  0.00    +0.022 A 
ATOM     34  C   UNL     1      -5.153   1.578 -12.460  0.00  0.00    +0.028 A 
ATOM     35 CL   UNL     1      -4.133   1.145 -16.297  0.00  0.00    -0.084 Cl
ENDBRANCH  26  29
ENDBRANCH  25  26
ENDBRANCH  24  25
ENDBRANCH  23  24
ENDBRANCH  20  23
ENDBRANCH   8  19
TORSDOF 8
