REMARK  Name = ZINC20776201
REMARK  9 active torsions:
REMARK  status: ('A' for Active; 'I' for Inactive)
REMARK    1  A    between atoms: C_1  and  C_2
REMARK    2  A    between atoms: C_2  and  C_3
REMARK    3  A    between atoms: C_3  and  C_4
REMARK    4  A    between atoms: C_4  and  C_5
REMARK    5  A    between atoms: C_9  and  C_11
REMARK    6  A    between atoms: C_11  and  N_12
REMARK    7  A    between atoms: C_16  and  N_19
REMARK    8  A    between atoms: N_22  and  C_25
REMARK    9  A    between atoms: C_29  and  C_31
REMARK                            x       y       z     vdW  Elec       q    Type
REMARK                         _______ _______ _______ _____ _____    ______ ____
ROOT
ATOM      1  N   UNL     1       1.696  -2.421   6.752  0.00  0.00    -0.298 NA
ATOM      2  C   UNL     1       0.549  -1.548   6.470  0.00  0.00    +0.084 C 
ATOM      3  C   UNL     1       0.672  -0.262   7.289  0.00  0.00    +0.014 C 
ATOM      4  C   UNL     1       0.715  -0.613   8.779  0.00  0.00    -0.013 C 
ATOM      5  C   UNL     1       1.890  -1.560   9.038  0.00  0.00    -0.054 C 
ATOM      6  C   UNL     1       1.732  -2.810   8.168  0.00  0.00    +0.069 C 
ENDROOT
BRANCH   5   7
ATOM      7  N   UNL     1       1.905  -1.947  10.455  0.00  0.00    +0.384 N 
ATOM      8  C   UNL     1       2.041  -0.745  11.287  0.00  0.00    -0.059 C 
ATOM      9  C   UNL     1       1.942  -1.135  12.765  0.00  0.00    +0.086 C 
ATOM     10  N   UNL     1       2.940  -2.180  13.040  0.00  0.00    -0.333 N 
ATOM     11  C   UNL     1       2.982  -3.350  12.150  0.00  0.00    +0.086 C 
ATOM     12  C   UNL     1       3.032  -2.856  10.700  0.00  0.00    -0.059 C 
ATOM     13  H   UNL     1       1.041  -2.415  10.684  0.00  0.00    -0.081 HD
BRANCH  10  14
ATOM     14  C   UNL     1       3.823  -2.065  14.116  0.00  0.00    +0.030 A 
ATOM     15  C   UNL     1       3.844  -0.903  14.878  0.00  0.00    +0.023 A 
ATOM     16  C   UNL     1       4.718  -0.793  15.942  0.00  0.00    +0.002 A 
ATOM     17  C   UNL     1       5.572  -1.837  16.248  0.00  0.00    +0.012 A 
ATOM     18  C   UNL     1       5.554  -2.994  15.492  0.00  0.00    +0.057 A 
ATOM     19  C   UNL     1       4.678  -3.113  14.431  0.00  0.00    +0.035 A 
BRANCH  18  20
ATOM     20  C   UNL     1       6.487  -4.128  15.829  0.00  0.00    +0.417 C 
ATOM     21  F   UNL     1       7.266  -3.777  16.937  0.00  0.00    -0.166 F 
ATOM     22  F   UNL     1       5.740  -5.273  16.128  0.00  0.00    -0.166 F 
ATOM     23  F   UNL     1       7.321  -4.387  14.736  0.00  0.00    -0.166 F 
ENDBRANCH  18  20
ENDBRANCH  10  14
ENDBRANCH   5   7
BRANCH   1  24
ATOM     24  C   UNL     1       1.685  -3.604   5.881  0.00  0.00    +0.139 C 
BRANCH  24  29
ATOM     25  C   UNL     1       1.484  -2.474   2.453  0.00  0.00    +0.084 A 
ATOM     26  N   UNL     1       2.813  -2.702   2.532  0.00  0.00    -0.350 N 
ATOM     27  H   UNL     1       3.462  -2.574   1.822  0.00  0.00    +0.166 HD
ATOM     28  C   UNL     1       3.073  -3.148   3.800  0.00  0.00    +0.106 A 
ATOM     29  C   UNL     1       1.895  -3.177   4.452  0.00  0.00    +0.047 A 
ATOM     30  N   UNL     1       0.943  -2.755   3.607  0.00  0.00    -0.346 N 
ATOM     31  H   UNL     1      -0.000  -2.674   3.819  0.00  0.00    +0.167 HD
BRANCH  25  32
ATOM     32  C   UNL     1       0.750  -1.972   1.237  0.00  0.00    +0.072 C 
BRANCH  32  33
ATOM     33  C   UNL     1       0.715  -0.443   1.256  0.00  0.00    +0.007 C 
BRANCH  33  35
ATOM     34  C   UNL     1      -0.065   1.596   0.041  0.00  0.00    +0.004 C 
ATOM     35  C   UNL     1      -0.031   0.066   0.021  0.00  0.00    -0.003 C 
ENDBRANCH  33  35
ENDBRANCH  32  33
ENDBRANCH  25  32
ENDBRANCH  24  29
ENDBRANCH   1  24
TORSDOF 8
