REMARK  Name = ZINC66005800
REMARK  5 active torsions:
REMARK  status: ('A' for Active; 'I' for Inactive)
REMARK    1  A    between atoms: C_1  and  C_2
REMARK    2  A    between atoms: C_2  and  N_3
REMARK    3  A    between atoms: C_9  and  C_16
REMARK    4  A    between atoms: C_16  and  O_18
REMARK    5  A    between atoms: O_18  and  C_19
REMARK                            x       y       z     vdW  Elec       q    Type
REMARK                         _______ _______ _______ _____ _____    ______ ____
ROOT
ATOM      1  N   UNL     1       0.681  -0.399  -1.231  0.00  0.00    -0.261 N 
ATOM      2  C   UNL     1      -0.036  -0.657  -2.346  0.00  0.00    +0.264 A 
ATOM      3  O   UNL     1      -1.242  -0.502  -2.362  0.00  0.00    -0.267 OA
ATOM      4  C   UNL     1       0.682  -1.134  -3.545  0.00  0.00    +0.063 A 
ATOM      5  C   UNL     1       0.011  -1.421  -4.732  0.00  0.00    +0.016 A 
ATOM      6  C   UNL     1       0.712  -1.859  -5.821  0.00  0.00    +0.016 A 
ATOM      7  C   UNL     1       2.099  -2.022  -5.751  0.00  0.00    +0.061 A 
ATOM      8  C   UNL     1       2.782  -1.738  -4.570  0.00  0.00    +0.041 A 
ATOM      9  C   UNL     1       2.076  -1.294  -3.463  0.00  0.00    +0.056 A 
ATOM     10  N   UNL     1       2.714  -0.998  -2.266  0.00  0.00    -0.307 N 
ATOM     11  H   UNL     1       3.675  -1.104  -2.196  0.00  0.00    +0.170 HD
ATOM     12  C   UNL     1       2.013  -0.563  -1.206  0.00  0.00    +0.330 A 
ATOM     13  O   UNL     1       2.610  -0.311  -0.177  0.00  0.00    -0.246 OA
ENDROOT
BRANCH   1  15
ATOM     14  C   UNL     1      -0.071   1.604  -0.046  0.00  0.00    +0.027 C 
ATOM     15  C   UNL     1      -0.008   0.075  -0.028  0.00  0.00    +0.126 C 
ENDBRANCH   1  15
BRANCH   7  16
ATOM     16  C   UNL     1       2.845  -2.498  -6.937  0.00  0.00    +0.345 C 
ATOM     17  O   UNL     1       4.050  -2.640  -6.880  0.00  0.00    -0.245 OA
BRANCH  16  18
ATOM     18  O   UNL     1       2.188  -2.773  -8.080  0.00  0.00    -0.422 OA
BRANCH  18  19
ATOM     19  C   UNL     1       2.923  -3.110  -9.173  0.00  0.00    +0.136 A 
ATOM     20  C   UNL     1       3.461  -4.383  -9.282  0.00  0.00    +0.050 A 
ATOM     21  C   UNL     1       4.208  -4.727 -10.393  0.00  0.00    +0.053 A 
ATOM     22  C   UNL     1       4.421  -3.801 -11.401  0.00  0.00    +0.166 A 
ATOM     23  C   UNL     1       3.881  -2.521 -11.294  0.00  0.00    +0.170 A 
ATOM     24  C   UNL     1       3.129  -2.180 -10.182  0.00  0.00    +0.096 A 
ATOM     25  O   UNL     1       4.231  -1.806 -12.403  0.00  0.00    -0.452 OA
ATOM     26  C   UNL     1       5.328  -2.527 -12.995  0.00  0.00    +0.466 C 
ATOM     27  O   UNL     1       5.109  -3.887 -12.578  0.00  0.00    -0.453 OA
ENDBRANCH  18  19
ENDBRANCH  16  18
ENDBRANCH   7  16
TORSDOF 4
