REMARK  Name = ZINC63753156
REMARK  5 active torsions:
REMARK  status: ('A' for Active; 'I' for Inactive)
REMARK    1  A    between atoms: C_1  and  C_2
REMARK    2  A    between atoms: C_4  and  C_18
REMARK    3  A    between atoms: C_7  and  N_8
REMARK    4  A    between atoms: N_8  and  S_9
REMARK    5  A    between atoms: S_9  and  C_12
REMARK                            x       y       z     vdW  Elec       q    Type
REMARK                         _______ _______ _______ _____ _____    ______ ____
ROOT
ATOM      1  C   UNL     1      -0.018   1.503   0.010  0.00  0.00    +0.046 C 
ATOM      2  C   UNL     1       0.002  -0.004   0.002  0.00  0.00    -0.026 A 
ATOM      3  C   UNL     1       0.006  -0.689  -1.198  0.00  0.00    +0.011 A 
ATOM      4  C   UNL     1       0.024  -2.071  -1.206  0.00  0.00    -0.017 A 
ATOM      5  C   UNL     1       0.039  -2.773  -0.014  0.00  0.00    +0.008 A 
ATOM      6  C   UNL     1       0.036  -2.095   1.188  0.00  0.00    +0.027 A 
ATOM      7  C   UNL     1       0.023  -0.706   1.200  0.00  0.00    +0.077 A 
ENDROOT
BRANCH   4   8
ATOM      8  C   UNL     1       0.027  -2.815  -2.517  0.00  0.00    +0.164 C 
ATOM      9  N   UNL     1      -0.569  -4.150  -2.368  0.00  0.00    -0.327 N 
ATOM     10  C   UNL     1       0.245  -5.251  -2.630  0.00  0.00    +0.042 A 
ATOM     11  C   UNL     1      -0.148  -6.599  -2.541  0.00  0.00    +0.024 A 
ATOM     12  C   UNL     1       0.733  -7.618  -2.820  0.00  0.00    +0.002 A 
ATOM     13  C   UNL     1       2.036  -7.351  -3.199  0.00  0.00    +0.001 A 
ATOM     14  C   UNL     1       2.451  -6.034  -3.295  0.00  0.00    +0.016 A 
ATOM     15  C   UNL     1       1.568  -5.015  -3.015  0.00  0.00    +0.031 A 
ATOM     16  S   UNL     1       1.739  -3.244  -3.030  0.00  0.00    -0.096 S 
ATOM     17  H   UNL     1      -1.494  -4.261  -2.098  0.00  0.00    +0.147 HD
ENDBRANCH   4   8
BRANCH   7  18
ATOM     18  N   UNL     1       0.025  -0.016   2.415  0.00  0.00    -0.096 NA
BRANCH  18  19
ATOM     19  S   UNL     1       0.050  -0.855   3.843  0.00  0.00    +0.108 S 
ATOM     20  O   UNL     1      -1.185  -1.552   3.926  0.00  0.00    -0.147 OA
ATOM     21  O   UNL     1       1.305  -1.518   3.902  0.00  0.00    -0.147 OA
BRANCH  19  22
ATOM     22  C   UNL     1       0.046   0.333   5.145  0.00  0.00    +0.194 A 
ATOM     23  H   UNL     1      -1.981   0.671   5.550  0.00  0.00    +0.168 HD
ATOM     24  C   UNL     1       1.126   0.889   5.728  0.00  0.00    +0.131 A 
ATOM     25  N   UNL     1       0.696   1.740   6.670  0.00  0.00    -0.351 N 
ATOM     26  C   UNL     1      -0.609   1.734   6.694  0.00  0.00    +0.172 A 
ATOM     27  N   UNL     1      -1.054   0.872   5.754  0.00  0.00    -0.330 N 
ATOM     28  H   UNL     1       1.265   2.277   7.244  0.00  0.00    +0.166 HD
ENDBRANCH  19  22
ENDBRANCH  18  19
ENDBRANCH   7  18
TORSDOF 4
