REMARK  Name = ZINC19290371
REMARK  6 active torsions:
REMARK  status: ('A' for Active; 'I' for Inactive)
REMARK    1  A    between atoms: C_1  and  N_2
REMARK    2  A    between atoms: C_4  and  C_11
REMARK    3  A    between atoms: C_11  and  C_13
REMARK    4  A    between atoms: C_11  and  O_35
REMARK    5  A    between atoms: C_13  and  N_14
REMARK    6  A    between atoms: C_21  and  O_34
REMARK                            x       y       z     vdW  Elec       q    Type
REMARK                         _______ _______ _______ _____ _____    ______ ____
ROOT
ATOM      1  N   UNL     1      -2.033   0.904   1.246  0.00  0.00    +0.382 N 
ATOM      2  C   UNL     1      -2.814   1.304   0.068  0.00  0.00    -0.075 C 
ATOM      3  C   UNL     1      -4.099   0.475   0.001  0.00  0.00    +0.029 C 
ATOM      4  C   UNL     1      -4.911   0.696   1.278  0.00  0.00    +0.110 C 
ATOM      5  C   UNL     1      -4.059   0.322   2.493  0.00  0.00    +0.029 C 
ATOM      6  C   UNL     1      -2.776   1.156   2.487  0.00  0.00    -0.075 C 
ATOM      7  C   UNL     1      -6.168  -0.179   1.246  0.00  0.00    +0.084 C 
ATOM      8  C   UNL     1      -6.958   0.159  -0.020  0.00  0.00    +0.152 C 
ATOM      9  C   UNL     1      -7.095   1.656  -0.153  0.00  0.00    +0.023 A 
ATOM     10  C   UNL     1      -8.095   2.155  -0.994  0.00  0.00    +0.010 A 
ATOM     11  C   UNL     1      -8.275   3.490  -1.170  0.00  0.00    +0.009 A 
ATOM     12  C   UNL     1      -7.438   4.399  -0.499  0.00  0.00    -0.014 A 
ATOM     13  C   UNL     1      -7.585   5.787  -0.662  0.00  0.00    +0.008 A 
ATOM     14  C   UNL     1      -6.755   6.634   0.006  0.00  0.00    +0.001 A 
ATOM     15  C   UNL     1      -5.759   6.145   0.849  0.00  0.00    +0.001 A 
ATOM     16  C   UNL     1      -5.588   4.807   1.030  0.00  0.00    +0.012 A 
ATOM     17  C   UNL     1      -6.427   3.903   0.358  0.00  0.00    +0.024 A 
ATOM     18  C   UNL     1      -6.273   2.507   0.524  0.00  0.00    +0.135 A 
ATOM     19  O   UNL     1      -5.310   2.061   1.370  0.00  0.00    -0.485 OA
ATOM     20  H   UNL     1      -1.854  -0.179   1.177  0.00  0.00    -0.082 HD
ENDROOT
BRANCH   8  21
ATOM     21  O   UNL     1      -8.257  -0.431   0.059  0.00  0.00    -0.387 OA
ATOM     22  H   UNL     1      -8.973  -0.297  -0.765  0.00  0.00    +0.210 HD
ENDBRANCH   8  21
BRANCH   1  23
ATOM     23  C   UNL     1      -0.729   1.579   1.267  0.00  0.00    -0.042 C 
BRANCH  23  24
ATOM     24  C   UNL     1       0.232   0.805   2.172  0.00  0.00    +0.130 C 
BRANCH  24  28
ATOM     25  C   UNL     1       4.982   2.055   1.108  0.00  0.00    +0.149 C 
ATOM     26  N   UNL     1       3.664   2.069   1.746  0.00  0.00    -0.349 N 
ATOM     27  C   UNL     1       2.633   1.223   1.439  0.00  0.00    +0.092 A 
ATOM     28  C   UNL     1       1.566   1.504   2.203  0.00  0.00    +0.004 A 
ATOM     29  C   UNL     1       1.947   2.617   3.077  0.00  0.00    +0.005 A 
ATOM     30  C   UNL     1       3.278   2.932   2.747  0.00  0.00    +0.049 A 
ATOM     31  C   UNL     1       3.921   3.965   3.422  0.00  0.00    +0.026 A 
ATOM     32  C   UNL     1       3.251   4.663   4.402  0.00  0.00    +0.002 A 
ATOM     33  C   UNL     1       1.938   4.348   4.724  0.00  0.00    +0.001 A 
ATOM     34  C   UNL     1       1.287   3.338   4.073  0.00  0.00    +0.010 A 
ENDBRANCH  24  28
BRANCH  24  35
ATOM     35  O   UNL     1       0.400  -0.520   1.665  0.00  0.00    -0.389 OA
ATOM     36  H   UNL     1      -0.470  -1.187   1.569  0.00  0.00    +0.210 HD
ENDBRANCH  24  35
ENDBRANCH  23  24
ENDBRANCH   1  23
TORSDOF 5
