REMARK  Name = ZINC14988280
REMARK  7 active torsions:
REMARK  status: ('A' for Active; 'I' for Inactive)
REMARK    1  A    between atoms: N_8  and  C_20
REMARK    2  A    between atoms: C_10  and  C_13
REMARK    3  A    between atoms: C_20  and  C_21
REMARK    4  A    between atoms: C_21  and  N_22
REMARK    5  A    between atoms: C_23  and  C_25
REMARK    6  A    between atoms: C_25  and  C_26
REMARK    7  A    between atoms: C_29  and  N_32
REMARK                            x       y       z     vdW  Elec       q    Type
REMARK                         _______ _______ _______ _____ _____    ______ ____
ROOT
ATOM      1  C   UNL     1       2.555   4.187  -0.040  0.00  0.00    +0.103 C 
ENDROOT
BRANCH   1   9
ATOM      2  C   UNL     1       4.008   8.940   2.808  0.00  0.00    +0.001 A 
ATOM      3  C   UNL     1       3.695  10.017   1.999  0.00  0.00    +0.004 A 
ATOM      4  C   UNL     1       2.841   9.855   0.924  0.00  0.00    +0.046 A 
ATOM      5  C   UNL     1       2.299   8.605   0.660  0.00  0.00    +0.126 A 
ATOM      6  C   UNL     1       2.602   7.536   1.481  0.00  0.00    +0.008 A 
ATOM      7  C   UNL     1       3.460   7.696   2.550  0.00  0.00    +0.008 A 
ATOM      8  C   UNL     1       1.978   6.183   1.200  0.00  0.00    +0.123 C 
ATOM      9  N   UNL     1       2.535   5.656  -0.050  0.00  0.00    -0.293 NA
ATOM     10  C   UNL     1       1.839   6.161  -1.231  0.00  0.00    +0.134 C 
ATOM     11  C   UNL     1       2.063   7.637  -1.481  0.00  0.00    +0.220 C 
ATOM     12  O   UNL     1       1.497   8.423  -0.424  0.00  0.00    -0.483 OA
BRANCH  11  13
ATOM     13  C   UNL     1       1.417   8.023  -2.787  0.00  0.00    +0.029 A 
ATOM     14  C   UNL     1       0.148   8.569  -2.795  0.00  0.00    +0.010 A 
ATOM     15  C   UNL     1      -0.443   8.928  -3.993  0.00  0.00    +0.001 A 
ATOM     16  C   UNL     1       0.232   8.731  -5.184  0.00  0.00    +0.003 A 
ATOM     17  C   UNL     1       1.499   8.180  -5.178  0.00  0.00    +0.039 A 
ATOM     18  C   UNL     1       2.094   7.825  -3.978  0.00  0.00    +0.130 A 
ATOM     19  F   UNL     1       3.332   7.286  -3.971  0.00  0.00    -0.205 F 
ENDBRANCH  11  13
ENDBRANCH   1   9
BRANCH   1  20
ATOM     20  C   UNL     1       1.119   3.657  -0.029  0.00  0.00    +0.119 C 
BRANCH  20  21
ATOM     21  N   UNL     1       1.139   2.192  -0.019  0.00  0.00    -0.314 N 
ATOM     22  C   UNL     1      -0.018   1.503  -0.009  0.00  0.00    +0.217 C 
ATOM     23  O   UNL     1      -1.077   2.095  -0.012  0.00  0.00    -0.275 OA
ATOM     24  H   UNL     1       2.099   1.655  -0.020  0.00  0.00    +0.149 HD
BRANCH  22  25
ATOM     25  C   UNL     1       0.002  -0.004   0.002  0.00  0.00    +0.130 C 
BRANCH  25  26
ATOM     26  C   UNL     1      -1.412  -0.526   0.013  0.00  0.00    -0.039 A 
ATOM     27  C   UNL     1      -2.051  -0.761   1.216  0.00  0.00    +0.006 A 
ATOM     28  C   UNL     1      -3.348  -1.235   1.229  0.00  0.00    +0.024 A 
ATOM     29  C   UNL     1      -4.007  -1.484   0.032  0.00  0.00    +0.038 A 
ATOM     30  C   UNL     1      -3.361  -1.251  -1.174  0.00  0.00    +0.024 A 
ATOM     31  C   UNL     1      -2.065  -0.773  -1.181  0.00  0.00    +0.006 A 
BRANCH  29  32
ATOM     32  N   UNL     1      -5.320  -1.968   0.042  0.00  0.00    -0.254 N 
ATOM     33  C   UNL     1      -6.168  -2.157  -1.145  0.00  0.00    +0.134 C 
ATOM     34  C   UNL     1      -7.490  -2.703  -0.571  0.00  0.00    +0.125 C 
ATOM     35  N   UNL     1      -7.247  -2.762   0.878  0.00  0.00    -0.297 N 
ATOM     36  C   UNL     1      -6.003  -2.337   1.134  0.00  0.00    +0.307 C 
ATOM     37  O   UNL     1      -5.537  -2.288   2.256  0.00  0.00    -0.252 OA
ATOM     38  H   UNL     1      -8.039  -3.118   1.554  0.00  0.00    +0.150 HD
ENDBRANCH  29  32
ENDBRANCH  25  26
ENDBRANCH  22  25
ENDBRANCH  20  21
ENDBRANCH   1  20
TORSDOF 7
