REMARK  Name = ZINC26550113
REMARK  9 active torsions:
REMARK  status: ('A' for Active; 'I' for Inactive)
REMARK    1  A    between atoms: C_1  and  C_2
REMARK    2  A    between atoms: C_2  and  C_3
REMARK    3  A    between atoms: C_6  and  C_8
REMARK    4  A    between atoms: C_11  and  S_13
REMARK    5  A    between atoms: S_13  and  C_14
REMARK    6  A    between atoms: C_14  and  C_16
REMARK    7  A    between atoms: C_14  and  C_17
REMARK    8  A    between atoms: C_17  and  O_19
REMARK    9  A    between atoms: O_19  and  C_20
REMARK                            x       y       z     vdW  Elec       q    Type
REMARK                         _______ _______ _______ _____ _____    ______ ____
ROOT
ATOM      1  C   UNL     1      -0.291  -3.412   2.598  0.00  0.00    +0.139 A 
ATOM      2  N   UNL     1      -0.842  -2.687   1.631  0.00  0.00    -0.140 NA
ATOM      3  N   UNL     1      -0.754  -1.429   1.610  0.00  0.00    -0.134 NA
ATOM      4  C   UNL     1      -0.106  -0.755   2.553  0.00  0.00    +0.160 A 
ATOM      5  S   UNL     1       0.443  -2.111   3.585  0.00  0.00    -0.039 S 
ENDROOT
BRANCH   1   9
ATOM      6  C   UNL     1      -0.015  -7.446   3.552  0.00  0.00    -0.010 A 
ATOM      7  C   UNL     1      -0.706  -7.165   2.418  0.00  0.00    +0.012 A 
ATOM      8  C   UNL     1      -0.852  -5.852   2.028  0.00  0.00    +0.018 A 
ATOM      9  C   UNL     1      -0.282  -4.870   2.798  0.00  0.00    +0.046 A 
ATOM     10  S   UNL     1       0.468  -5.821   4.111  0.00  0.00    -0.091 S 
BRANCH   6  12
ATOM     11  C   UNL     1       1.586  -9.338   3.625  0.00  0.00    +0.009 C 
ATOM     12  C   UNL     1       0.272  -8.786   4.179  0.00  0.00    +0.039 C 
ENDBRANCH   6  12
ENDBRANCH   1   9
BRANCH   4  13
ATOM     13  S   UNL     1       0.147   0.980   2.733  0.00  0.00    -0.083 S 
BRANCH  13  14
ATOM     14  C   UNL     1      -0.729   1.579   1.267  0.00  0.00    +0.159 C 
ATOM     15  C   UNL     1      -0.013   1.086   0.008  0.00  0.00    +0.031 C 
BRANCH  14  16
ATOM     16  C   UNL     1      -0.749   3.086   1.275  0.00  0.00    +0.320 C 
ATOM     17  O   UNL     1       0.105   3.699   1.870  0.00  0.00    -0.250 OA
BRANCH  16  18
ATOM     18  O   UNL     1      -1.717   3.748   0.621  0.00  0.00    -0.467 OA
ATOM     19  C   UNL     1      -1.674   5.198   0.672  0.00  0.00    +0.280 C 
ENDBRANCH  16  18
ENDBRANCH  14  16
ENDBRANCH  13  14
ENDBRANCH   4  13
TORSDOF 6
