REMARK  Name = ZINC32606350
REMARK  7 active torsions:
REMARK  status: ('A' for Active; 'I' for Inactive)
REMARK    1  A    between atoms: C_1  and  C_2
REMARK    2  A    between atoms: C_8  and  N_13
REMARK    3  A    between atoms: C_10  and  C_12
REMARK    4  A    between atoms: C_14  and  C_16
REMARK    5  A    between atoms: C_19  and  S_22
REMARK    6  A    between atoms: S_22  and  N_25
REMARK    7  A    between atoms: N_25  and  C_26
REMARK                            x       y       z     vdW  Elec       q    Type
REMARK                         _______ _______ _______ _____ _____    ______ ____
ROOT
ATOM      1  N   UNL     1       0.050  -2.189   3.616  0.00  0.00    -0.281 N 
ATOM      2  C   UNL     1      -0.037  -2.915   4.748  0.00  0.00    +0.248 C 
ATOM      3  O   UNL     1      -0.021  -4.129   4.695  0.00  0.00    -0.270 OA
ATOM      4  H   UNL     1       0.118  -1.223   3.663  0.00  0.00    +0.155 HD
ENDROOT
BRANCH   1  12
ATOM      5  C   UNL     1       2.442   0.943   0.284  0.00  0.00    +0.044 C 
ATOM      6  C   UNL     1       1.787  -0.412   0.201  0.00  0.00    -0.050 A 
ATOM      7  C   UNL     1       1.754  -1.087  -1.017  0.00  0.00    +0.005 A 
ATOM      8  C   UNL     1       1.171  -2.312  -1.125  0.00  0.00    +0.028 A 
ATOM      9  C   UNL     1       0.590  -2.910   0.007  0.00  0.00    +0.073 A 
ATOM     10  C   UNL     1       0.625  -2.221   1.243  0.00  0.00    +0.022 A 
ATOM     11  C   UNL     1       1.239  -0.964   1.320  0.00  0.00    +0.015 A 
ATOM     12  C   UNL     1       0.040  -2.826   2.380  0.00  0.00    +0.045 A 
ATOM     13  C   UNL     1      -0.543  -4.073   2.224  0.00  0.00    +0.047 A 
ATOM     14  C   UNL     1      -0.536  -4.684   0.977  0.00  0.00    +0.041 A 
ATOM     15  N   UNL     1       0.010  -4.113  -0.071  0.00  0.00    -0.252 NA
ATOM     16  C   UNL     1      -1.174  -6.041   0.822  0.00  0.00    +0.065 C 
ENDBRANCH   1  12
BRANCH   2  17
ATOM     17  C   UNL     1      -0.151  -2.233   6.055  0.00  0.00    +0.037 A 
ATOM     18  C   UNL     1      -0.175  -0.839   6.119  0.00  0.00    +0.015 A 
ATOM     19  C   UNL     1      -0.281  -0.210   7.342  0.00  0.00    +0.029 A 
ATOM     20  C   UNL     1      -0.364  -0.957   8.504  0.00  0.00    +0.105 A 
ATOM     21  C   UNL     1      -0.341  -2.340   8.447  0.00  0.00    +0.029 A 
ATOM     22  C   UNL     1      -0.241  -2.982   7.230  0.00  0.00    +0.015 A 
BRANCH  20  23
ATOM     23  S   UNL     1      -0.498  -0.145  10.062  0.00  0.00    +0.059 S 
ATOM     24  O   UNL     1      -0.011  -1.056  11.038  0.00  0.00    -0.153 OA
ATOM     25  O   UNL     1       0.051   1.154   9.891  0.00  0.00    -0.153 OA
BRANCH  23  26
ATOM     26  N   UNL     1      -2.113   0.059  10.369  0.00  0.00    -0.187 NA
ATOM     27  H   UNL     1      -2.488   0.953  10.417  0.00  0.00    +0.148 HD
BRANCH  26  28
ATOM     28  C   UNL     1      -2.974  -1.109  10.569  0.00  0.00    +0.077 C 
ATOM     29  C   UNL     1      -4.421  -1.011  10.082  0.00  0.00    +0.022 C 
ATOM     30  C   UNL     1      -4.115  -0.980  11.580  0.00  0.00    +0.022 C 
ENDBRANCH  26  28
ENDBRANCH  23  26
ENDBRANCH  20  23
ENDBRANCH   2  17
TORSDOF 5
