REMARK  Name = ZINC38715487
REMARK  6 active torsions:
REMARK  status: ('A' for Active; 'I' for Inactive)
REMARK    1  A    between atoms: C_1  and  C_2
REMARK    2  A    between atoms: C_13  and  N_18
REMARK    3  A    between atoms: C_19  and  C_21
REMARK    4  A    between atoms: N_26  and  C_28
REMARK    5  A    between atoms: C_31  and  C_35
REMARK    6  A    between atoms: C_32  and  C_34
REMARK                            x       y       z     vdW  Elec       q    Type
REMARK                         _______ _______ _______ _____ _____    ______ ____
ROOT
ATOM      1  C   UNL     1      -2.635  -7.280  -3.953  0.00  0.00    +0.044 C 
ATOM      2  C   UNL     1      -1.933  -6.468  -2.895  0.00  0.00    -0.048 A 
ATOM      3  C   UNL     1      -2.526  -6.284  -1.660  0.00  0.00    +0.007 A 
ATOM      4  C   UNL     1      -1.877  -5.550  -0.685  0.00  0.00    +0.048 A 
ATOM      5  C   UNL     1      -0.634  -4.990  -0.944  0.00  0.00    +0.150 A 
ATOM      6  C   UNL     1      -0.046  -5.155  -2.192  0.00  0.00    +0.077 A 
ATOM      7  C   UNL     1      -0.697  -5.913  -3.160  0.00  0.00    +0.030 A 
ATOM      8  N   UNL     1       1.169  -4.551  -2.513  0.00  0.00    -0.278 N 
ATOM      9  C   UNL     1       2.220  -4.431  -1.714  0.00  0.00    +0.252 C 
ATOM     10  O   UNL     1       3.210  -3.888  -2.165  0.00  0.00    -0.270 OA
ATOM     11  C   UNL     1       2.279  -4.904  -0.324  0.00  0.00    +0.081 A 
ATOM     12  C   UNL     1       3.458  -5.473   0.166  0.00  0.00    +0.040 A 
ATOM     13  C   UNL     1       3.525  -5.899   1.481  0.00  0.00    +0.034 A 
ATOM     14  C   UNL     1       2.423  -5.758   2.317  0.00  0.00    +0.027 A 
ATOM     15  C   UNL     1       1.253  -5.205   1.838  0.00  0.00    +0.049 A 
ATOM     16  C   UNL     1       1.167  -4.787   0.517  0.00  0.00    +0.141 A 
ATOM     17  O   UNL     1      -0.005  -4.304   0.043  0.00  0.00    -0.453 OA
ATOM     18  H   UNL     1       1.253  -4.183  -3.406  0.00  0.00    +0.155 HD
ENDROOT
BRANCH  13  19
ATOM     19  N   UNL     1       4.706  -6.472   1.972  0.00  0.00    -0.285 N 
ATOM     20  C   UNL     1       5.466  -7.242   1.167  0.00  0.00    +0.222 C 
ATOM     21  O   UNL     1       5.171  -7.374  -0.002  0.00  0.00    -0.275 OA
ATOM     22  H   UNL     1       4.977  -6.314   2.889  0.00  0.00    +0.155 HD
BRANCH  20  23
ATOM     23  C   UNL     1       6.681  -7.939   1.721  0.00  0.00    +0.102 C 
ATOM     24  C   UNL     1       6.282  -8.987   2.786  0.00  0.00    +0.110 C 
ATOM     25  C   UNL     1       6.158 -10.278   2.007  0.00  0.00    +0.221 C 
ATOM     26  O   UNL     1       5.597 -11.278   2.405  0.00  0.00    -0.275 OA
ATOM     27  N   UNL     1       6.759 -10.157   0.811  0.00  0.00    -0.271 N 
ATOM     28  C   UNL     1       7.350  -8.823   0.644  0.00  0.00    +0.127 C 
BRANCH  27  29
ATOM     29  C   UNL     1       6.816 -11.171  -0.151  0.00  0.00    +0.037 A 
ATOM     30  C   UNL     1       6.123 -12.359   0.049  0.00  0.00    +0.024 A 
ATOM     31  C   UNL     1       6.181 -13.358  -0.903  0.00  0.00    +0.005 A 
ATOM     32  C   UNL     1       6.927 -13.177  -2.053  0.00  0.00    -0.047 A 
ATOM     33  C   UNL     1       7.618 -11.996  -2.254  0.00  0.00    -0.046 A 
ATOM     34  C   UNL     1       7.559 -10.991  -1.310  0.00  0.00    +0.027 A 
ATOM     35  C   UNL     1       8.430 -11.804  -3.509  0.00  0.00    +0.044 C 
ATOM     36  C   UNL     1       6.988 -14.270  -3.089  0.00  0.00    +0.044 C 
ENDBRANCH  27  29
ENDBRANCH  20  23
ENDBRANCH  13  19
TORSDOF 3
