REMARK  Name = ZINC36955815
REMARK  4 active torsions:
REMARK  status: ('A' for Active; 'I' for Inactive)
REMARK    1  A    between atoms: C_4  and  O_20
REMARK    2  A    between atoms: C_5  and  C_7
REMARK    3  A    between atoms: C_7  and  N_8
REMARK    4  A    between atoms: C_15  and  N_19
REMARK                            x       y       z     vdW  Elec       q    Type
REMARK                         _______ _______ _______ _____ _____    ______ ____
ROOT
ATOM      1  N   UNL     1       1.487  -2.679   1.333  0.00  0.00    -0.230 N 
ATOM      2  C   UNL     1       2.712  -2.915   1.835  0.00  0.00    +0.254 C 
ATOM      3  O   UNL     1       3.763  -2.754   1.248  0.00  0.00    -0.270 OA
ATOM      4  C   UNL     1       2.565  -3.400   3.224  0.00  0.00    +0.051 A 
ATOM      5  C   UNL     1       3.453  -3.791   4.211  0.00  0.00    +0.014 A 
ATOM      6  C   UNL     1       2.976  -4.207   5.446  0.00  0.00    +0.003 A 
ATOM      7  C   UNL     1       1.622  -4.236   5.703  0.00  0.00    +0.023 A 
ATOM      8  C   UNL     1       0.709  -3.845   4.721  0.00  0.00    +0.038 A 
ATOM      9  C   UNL     1       1.177  -3.425   3.476  0.00  0.00    +0.070 A 
ATOM     10  C   UNL     1       0.532  -2.951   2.241  0.00  0.00    +0.256 C 
ATOM     11  O   UNL     1      -0.665  -2.827   2.068  0.00  0.00    -0.269 OA
ENDROOT
BRANCH   8  12
ATOM     12  N   UNL     1      -0.653  -3.875   4.981  0.00  0.00    -0.357 N 
ATOM     13  H   UNL     1      -0.975  -4.168   5.848  0.00  0.00    +0.142 HD
ATOM     14  H   UNL     1      -1.284  -3.603   4.296  0.00  0.00    +0.142 HD
ENDBRANCH   8  12
BRANCH   1  15
ATOM     15  C   UNL     1       1.227  -2.187  -0.022  0.00  0.00    +0.155 C 
BRANCH  15  20
ATOM     16  C   UNL     1      -0.017   1.378   0.010  0.00  0.00    +0.001 A 
ATOM     17  C   UNL     1       1.170   2.088   0.002  0.00  0.00    +0.004 A 
ATOM     18  C   UNL     1       2.377   1.417  -0.013  0.00  0.00    +0.046 A 
ATOM     19  C   UNL     1       2.399   0.030  -0.021  0.00  0.00    +0.122 A 
ATOM     20  C   UNL     1       1.207  -0.680  -0.013  0.00  0.00    +0.012 A 
ATOM     21  C   UNL     1       0.002  -0.004   0.002  0.00  0.00    +0.009 A 
BRANCH  19  22
ATOM     22  O   UNL     1       3.586  -0.632  -0.037  0.00  0.00    -0.506 OA
ATOM     23  H   UNL     1       3.938  -0.829   0.842  0.00  0.00    +0.292 HD
ENDBRANCH  19  22
ENDBRANCH  15  20
ENDBRANCH   1  15
TORSDOF 4
