REMARK  Name = ZINC01902266
REMARK  10 active torsions:
REMARK  status: ('A' for Active; 'I' for Inactive)
REMARK    1  A    between atoms: C_1  and  C_2
REMARK    2  A    between atoms: C_2  and  O_3
REMARK    3  A    between atoms: O_3  and  C_4
REMARK    4  A    between atoms: C_7  and  N_10
REMARK    5  A    between atoms: C_11  and  C_32
REMARK    6  A    between atoms: C_14  and  S_15
REMARK    7  A    between atoms: S_15  and  C_16
REMARK    8  A    between atoms: C_16  and  C_17
REMARK    9  A    between atoms: N_19  and  N_20
REMARK   10  A    between atoms: C_21  and  C_22
REMARK                            x       y       z     vdW  Elec       q    Type
REMARK                         _______ _______ _______ _____ _____    ______ ____
ROOT
ATOM      1  N   UNL     1       1.109  -5.897   1.697  0.00  0.00    -0.270 N 
ATOM      2  C   UNL     1       0.655  -6.648   2.759  0.00  0.00    +0.169 A 
ATOM      3  N   UNL     1       1.010  -7.891   2.530  0.00  0.00    -0.128 NA
ATOM      4  N   UNL     1       1.645  -7.970   1.416  0.00  0.00    -0.122 NA
ATOM      5  C   UNL     1       1.731  -6.782   0.860  0.00  0.00    +0.197 A 
ENDROOT
BRANCH   2   6
ATOM      6  C   UNL     1      -0.091  -6.149   3.933  0.00  0.00    +0.020 A 
ATOM      7  C   UNL     1      -0.727  -4.907   3.884  0.00  0.00    +0.013 A 
ATOM      8  C   UNL     1      -1.422  -4.447   4.983  0.00  0.00    +0.021 A 
ATOM      9  C   UNL     1      -1.490  -5.214   6.133  0.00  0.00    +0.041 A 
ATOM     10  C   UNL     1      -0.862  -6.447   6.188  0.00  0.00    +0.021 A 
ATOM     11  C   UNL     1      -0.168  -6.920   5.094  0.00  0.00    +0.013 A 
ATOM     12 CL   UNL     1      -2.366  -4.628   7.513  0.00  0.00    -0.084 Cl
ENDBRANCH   2   6
BRANCH   1  16
ATOM     13  C   UNL     1       0.663  -1.786   1.144  0.00  0.00    +0.121 A 
ATOM     14  C   UNL     1       0.012  -2.674   0.300  0.00  0.00    +0.047 A 
ATOM     15  C   UNL     1       0.159  -4.035   0.483  0.00  0.00    +0.030 A 
ATOM     16  C   UNL     1       0.959  -4.514   1.511  0.00  0.00    +0.051 A 
ATOM     17  C   UNL     1       1.611  -3.626   2.355  0.00  0.00    +0.030 A 
ATOM     18  C   UNL     1       1.468  -2.265   2.168  0.00  0.00    +0.047 A 
BRANCH  13  19
ATOM     19  O   UNL     1       0.518  -0.447   0.963  0.00  0.00    -0.492 OA
BRANCH  19  21
ATOM     20  C   UNL     1      -0.364   1.505  -0.156  0.00  0.00    +0.048 C 
ATOM     21  C   UNL     1      -0.325  -0.024  -0.111  0.00  0.00    +0.225 C 
ENDBRANCH  19  21
ENDBRANCH  13  19
ENDBRANCH   1  16
BRANCH   5  22
ATOM     22  S   UNL     1       2.506  -6.400  -0.676  0.00  0.00    -0.076 S 
BRANCH  22  23
ATOM     23  C   UNL     1       3.123  -8.000  -1.266  0.00  0.00    +0.174 C 
BRANCH  23  24
ATOM     24  C   UNL     1       3.817  -7.814  -2.590  0.00  0.00    +0.242 C 
ATOM     25  O   UNL     1       3.889  -6.709  -3.087  0.00  0.00    -0.273 OA
ATOM     26  N   UNL     1       4.359  -8.874  -3.223  0.00  0.00    -0.206 N 
ATOM     27  H   UNL     1       4.301  -9.757  -2.825  0.00  0.00    +0.177 HD
BRANCH  26  28
ATOM     28  N   UNL     1       5.004  -8.700  -4.454  0.00  0.00    -0.188 NA
ATOM     29  C   UNL     1       5.526  -9.722  -5.064  0.00  0.00    +0.139 C 
BRANCH  29  30
ATOM     30  C   UNL     1       6.204  -9.539  -6.356  0.00  0.00    +0.002 A 
ATOM     31  C   UNL     1       6.676 -10.634  -7.071  0.00  0.00    +0.010 A 
ATOM     32  C   UNL     1       7.315 -10.459  -8.290  0.00  0.00    +0.001 A 
ATOM     33  C   UNL     1       7.504  -9.224  -8.831  0.00  0.00    +0.008 A 
ATOM     34  C   UNL     1       7.053  -8.073  -8.165  0.00  0.00    -0.017 A 
ATOM     35  C   UNL     1       6.390  -8.204  -6.920  0.00  0.00    -0.009 A 
ATOM     36  C   UNL     1       5.934  -7.059  -6.255  0.00  0.00    +0.009 A 
ATOM     37  C   UNL     1       6.128  -5.832  -6.816  0.00  0.00    +0.001 A 
ATOM     38  C   UNL     1       6.774  -5.700  -8.043  0.00  0.00    +0.001 A 
ATOM     39  C   UNL     1       7.241  -6.791  -8.710  0.00  0.00    +0.008 A 
ENDBRANCH  29  30
ENDBRANCH  26  28
ENDBRANCH  23  24
ENDBRANCH  22  23
ENDBRANCH   5  22
TORSDOF 9
