REMARK  Name = ZINC23858130
REMARK  9 active torsions:
REMARK  status: ('A' for Active; 'I' for Inactive)
REMARK    1  A    between atoms: C_1  and  N_2
REMARK    2  A    between atoms: C_9  and  C_11
REMARK    3  A    between atoms: C_11  and  C_13
REMARK    4  A    between atoms: C_11  and  N_32
REMARK    5  A    between atoms: C_13  and  N_14
REMARK    6  A    between atoms: C_15  and  C_17
REMARK    7  A    between atoms: N_19  and  C_20
REMARK    8  A    between atoms: C_20  and  C_21
REMARK    9  A    between atoms: C_21  and  C_22
REMARK                            x       y       z     vdW  Elec       q    Type
REMARK                         _______ _______ _______ _____ _____    ______ ____
ROOT
ATOM      1  N   UNL     1       2.149   0.861   1.151  0.00  0.00    -0.309 N 
ATOM      2  C   UNL     1       3.458   1.098   1.373  0.00  0.00    +0.299 C 
ATOM      3  O   UNL     1       4.098   1.755   0.579  0.00  0.00    -0.265 OA
ATOM      4  H   UNL     1       1.569   0.265   1.871  0.00  0.00    +0.149 HD
ENDROOT
BRANCH   2   5
ATOM      5  C   UNL     1       4.119   0.550   2.596  0.00  0.00    +0.299 C 
ATOM      6  O   UNL     1       3.479  -0.107   3.390  0.00  0.00    -0.265 OA
ATOM      7  N   UNL     1       5.427   0.787   2.817  0.00  0.00    -0.307 N 
ATOM      8  H   UNL     1       6.008   1.383   2.098  0.00  0.00    +0.149 HD
BRANCH   7   9
ATOM      9  C   UNL     1       6.076   0.250   4.016  0.00  0.00    +0.109 C 
BRANCH   9  10
ATOM     10  C   UNL     1       7.550   0.661   4.026  0.00  0.00    +0.056 C 
BRANCH  10  11
ATOM     11  C   UNL     1       8.217   0.109   5.260  0.00  0.00    -0.021 A 
ATOM     12  C   UNL     1       8.404   0.753   6.422  0.00  0.00    +0.087 A 
ATOM     13  N   UNL     1       9.043  -0.067   7.312  0.00  0.00    -0.360 N 
ATOM     14  H   UNL     1       9.274   0.295   8.325  0.00  0.00    +0.165 HD
ATOM     15  C   UNL     1       9.296  -1.287   6.726  0.00  0.00    +0.047 A 
ATOM     16  C   UNL     1       8.790  -1.230   5.415  0.00  0.00    +0.003 A 
ATOM     17  C   UNL     1       8.907  -2.339   4.575  0.00  0.00    +0.010 A 
ATOM     18  C   UNL     1       9.512  -3.475   5.032  0.00  0.00    +0.001 A 
ATOM     19  C   UNL     1      10.014  -3.536   6.325  0.00  0.00    +0.002 A 
ATOM     20  C   UNL     1       9.909  -2.453   7.170  0.00  0.00    +0.026 A 
ENDBRANCH  10  11
ENDBRANCH   9  10
ENDBRANCH   7   9
ENDBRANCH   2   5
BRANCH   1  21
ATOM     21  C   UNL     1       1.501   1.398  -0.048  0.00  0.00    +0.094 C 
BRANCH  21  22
ATOM     22  C   UNL     1       0.001   1.102   0.008  0.00  0.00    -0.020 C 
BRANCH  22  31
ATOM     23  C   UNL     1      -3.376   4.555   4.306  0.00  0.00    +0.129 C 
ATOM     24  N   UNL     1      -2.274   3.615   4.553  0.00  0.00    -0.332 N 
ATOM     25  C   UNL     1      -2.741   2.443   5.325  0.00  0.00    +0.109 C 
ATOM     26  C   UNL     1      -1.818   1.313   4.815  0.00  0.00    +0.056 C 
ATOM     27  C   UNL     1      -1.426   1.796   3.433  0.00  0.00    -0.025 A 
ATOM     28  C   UNL     1      -1.732   3.149   3.349  0.00  0.00    +0.033 A 
ATOM     29  C   UNL     1      -1.472   3.831   2.162  0.00  0.00    +0.023 A 
ATOM     30  C   UNL     1      -0.914   3.167   1.089  0.00  0.00    +0.004 A 
ATOM     31  C   UNL     1      -0.610   1.822   1.183  0.00  0.00    -0.059 A 
ATOM     32  C   UNL     1      -0.872   1.137   2.356  0.00  0.00    +0.007 A 
ENDBRANCH  22  31
BRANCH  22  33
ATOM     33  N   UNL     1      -0.636   1.563  -1.233  0.00  0.00    +0.385 N 
ATOM     34  C   UNL     1      -2.085   1.329  -1.199  0.00  0.00    -0.078 C 
ATOM     35  C   UNL     1      -2.733   1.950  -2.439  0.00  0.00    -0.019 C 
ATOM     36  C   UNL     1      -2.124   1.320  -3.696  0.00  0.00    -0.004 C 
ATOM     37  C   UNL     1      -0.609   1.536  -3.682  0.00  0.00    -0.019 C 
ATOM     38  C   UNL     1      -0.023   0.927  -2.406  0.00  0.00    -0.078 C 
ATOM     39  H   UNL     1      -0.473   2.647  -1.316  0.00  0.00    -0.081 HD
ENDBRANCH  22  33
ENDBRANCH  21  22
ENDBRANCH   1  21
TORSDOF 8
