REMARK  Name = ZINC02095722
REMARK  13 active torsions:
REMARK  status: ('A' for Active; 'I' for Inactive)
REMARK    1  A    between atoms: C_1  and  C_2
REMARK    2  A    between atoms: C_2  and  C_3
REMARK    3  A    between atoms: C_3  and  C_5
REMARK    4  A    between atoms: C_3  and  N_28
REMARK    5  A    between atoms: C_5  and  O_7
REMARK    6  A    between atoms: O_7  and  C_8
REMARK    7  A    between atoms: C_12  and  C_27
REMARK    8  A    between atoms: C_13  and  C_20
REMARK    9  A    between atoms: C_18  and  C_19
REMARK   10  A    between atoms: C_20  and  C_21
REMARK   11  A    between atoms: N_28  and  S_29
REMARK   12  A    between atoms: S_29  and  C_32
REMARK   13  A    between atoms: C_35  and  C_38
REMARK                            x       y       z     vdW  Elec       q    Type
REMARK                         _______ _______ _______ _____ _____    ______ ____
ROOT
ATOM      1  C   UNL     1       4.732   1.097   1.585  0.00  0.00    +0.138 A 
ATOM      2  C   UNL     1       4.454  -0.118   2.208  0.00  0.00    +0.047 A 
ATOM      3  C   UNL     1       5.423  -0.770   2.914  0.00  0.00    +0.015 A 
ATOM      4  C   UNL     1       6.700  -0.209   3.023  0.00  0.00    +0.021 A 
ATOM      5  C   UNL     1       7.758  -0.884   3.780  0.00  0.00    -0.030 A 
ATOM      6  C   UNL     1       8.977  -0.289   3.848  0.00  0.00    +0.045 A 
ATOM      7  C   UNL     1       9.193   0.945   3.200  0.00  0.00    +0.341 A 
ATOM      8  O   UNL     1      10.291   1.468   3.270  0.00  0.00    -0.245 OA
ATOM      9  O   UNL     1       8.220   1.558   2.509  0.00  0.00    -0.422 OA
ATOM     10  C   UNL     1       6.986   1.020   2.401  0.00  0.00    +0.146 A 
ATOM     11  C   UNL     1       5.991   1.666   1.682  0.00  0.00    +0.035 A 
ATOM     12  C   UNL     1       6.279   2.984   1.010  0.00  0.00    +0.051 C 
ATOM     13  C   UNL     1       7.500  -2.202   4.463  0.00  0.00    +0.045 C 
ENDROOT
BRANCH   1  14
ATOM     14  O   UNL     1       3.759   1.731   0.881  0.00  0.00    -0.424 OA
BRANCH  14  15
ATOM     15  C   UNL     1       3.715   1.500  -0.442  0.00  0.00    +0.331 C 
ATOM     16  O   UNL     1       4.459   0.688  -0.939  0.00  0.00    -0.249 OA
BRANCH  15  17
ATOM     17  C   UNL     1       2.738   2.255  -1.306  0.00  0.00    +0.185 C 
BRANCH  17  19
ATOM     18  C   UNL     1       1.979   4.527  -2.017  0.00  0.00    +0.006 C 
ATOM     19  C   UNL     1       3.018   3.756  -1.201  0.00  0.00    +0.028 C 
ENDBRANCH  17  19
BRANCH  17  20
ATOM     20  N   UNL     1       2.886   1.827  -2.699  0.00  0.00    -0.176 NA
ATOM     21  H   UNL     1       3.561   2.236  -3.263  0.00  0.00    +0.149 HD
BRANCH  20  22
ATOM     22  S   UNL     1       1.897   0.649  -3.313  0.00  0.00    +0.059 S 
ATOM     23  O   UNL     1       2.268   0.475  -4.673  0.00  0.00    -0.153 OA
ATOM     24  O   UNL     1       1.909  -0.420  -2.377  0.00  0.00    -0.153 OA
BRANCH  22  25
ATOM     25  C   UNL     1       0.258   1.296  -3.317  0.00  0.00    +0.105 A 
ATOM     26  C   UNL     1      -0.526   1.199  -2.183  0.00  0.00    +0.029 A 
ATOM     27  C   UNL     1      -1.811   1.710  -2.185  0.00  0.00    +0.005 A 
ATOM     28  C   UNL     1      -2.314   2.309  -3.324  0.00  0.00    -0.050 A 
ATOM     29  C   UNL     1      -1.532   2.401  -4.460  0.00  0.00    +0.005 A 
ATOM     30  C   UNL     1      -0.246   1.894  -4.457  0.00  0.00    +0.029 A 
ATOM     31  C   UNL     1      -3.716   2.862  -3.328  0.00  0.00    +0.044 C 
ENDBRANCH  22  25
ENDBRANCH  20  22
ENDBRANCH  17  20
ENDBRANCH  15  17
ENDBRANCH  14  15
ENDBRANCH   1  14
BRANCH   6  32
ATOM     32  C   UNL     1      10.096  -0.946   4.615  0.00  0.00    +0.077 C 
BRANCH  32  33
ATOM     33  C   UNL     1      10.066  -0.476   6.047  0.00  0.00    -0.043 A 
ATOM     34  C   UNL     1      10.784   0.644   6.422  0.00  0.00    +0.004 A 
ATOM     35  C   UNL     1      10.753   1.077   7.734  0.00  0.00    +0.000 A 
ATOM     36  C   UNL     1      10.012   0.385   8.674  0.00  0.00    +0.000 A 
ATOM     37  C   UNL     1       9.299  -0.739   8.300  0.00  0.00    +0.000 A 
ATOM     38  C   UNL     1       9.326  -1.169   6.987  0.00  0.00    +0.004 A 
ENDBRANCH  32  33
ENDBRANCH   6  32
TORSDOF 9
