REMARK  Name = ZINC35337659
REMARK  6 active torsions:
REMARK  status: ('A' for Active; 'I' for Inactive)
REMARK    1  A    between atoms: C_1  and  C_2
REMARK    2  A    between atoms: C_3  and  C_29
REMARK    3  A    between atoms: C_4  and  C_13
REMARK    4  A    between atoms: C_16  and  N_19
REMARK    5  A    between atoms: C_20  and  C_22
REMARK    6  A    between atoms: N_31  and  C_32
REMARK                            x       y       z     vdW  Elec       q    Type
REMARK                         _______ _______ _______ _____ _____    ______ ____
ROOT
ATOM      1  C   UNL     1      -0.284   0.966  -0.571  0.00  0.00    +0.064 C 
ATOM      2  C   UNL     1      -0.403  -0.487  -0.953  0.00  0.00    +0.025 C 
ATOM      3  C   UNL     1      -1.531  -1.177  -0.625  0.00  0.00    +0.058 C 
ATOM      4  C   UNL     1      -1.676  -2.610  -1.073  0.00  0.00    +0.142 C 
ATOM      5  N   UNL     1      -0.334  -3.188  -1.261  0.00  0.00    -0.300 N 
ATOM      6  C   UNL     1      -0.128  -4.580  -0.874  0.00  0.00    +0.109 C 
ATOM      7  C   UNL     1       0.748  -5.347  -1.853  0.00  0.00    +0.030 C 
ATOM      8  C   UNL     1       2.166  -4.758  -1.831  0.00  0.00    +0.078 C 
ATOM      9  S   UNL     1       2.073  -3.088  -2.546  0.00  0.00    -0.092 S 
ATOM     10  C   UNL     1       0.659  -2.394  -1.750  0.00  0.00    +0.135 C 
ATOM     11  N   UNL     1       0.592  -1.076  -1.609  0.00  0.00    -0.341 N 
ATOM     12  H   UNL     1       1.292  -0.525  -1.994  0.00  0.00    +0.167 HD
ENDROOT
BRANCH   4  13
ATOM     13  C   UNL     1      -2.437  -2.658  -2.373  0.00  0.00    -0.022 A 
ATOM     14  C   UNL     1      -1.785  -2.395  -3.563  0.00  0.00    +0.007 A 
ATOM     15  C   UNL     1      -2.479  -2.438  -4.756  0.00  0.00    +0.023 A 
ATOM     16  C   UNL     1      -3.833  -2.746  -4.760  0.00  0.00    +0.034 A 
ATOM     17  C   UNL     1      -4.485  -3.010  -3.562  0.00  0.00    +0.023 A 
ATOM     18  C   UNL     1      -3.784  -2.971  -2.373  0.00  0.00    +0.007 A 
BRANCH  16  19
ATOM     19  N   UNL     1      -4.540  -2.790  -5.966  0.00  0.00    -0.281 N 
ATOM     20  C   UNL     1      -3.923  -3.197  -7.093  0.00  0.00    +0.251 C 
ATOM     21  O   UNL     1      -2.782  -3.615  -7.045  0.00  0.00    -0.270 OA
ATOM     22  H   UNL     1      -5.473  -2.527  -5.992  0.00  0.00    +0.155 HD
BRANCH  20  23
ATOM     23  C   UNL     1      -4.633  -3.137  -8.386  0.00  0.00    +0.072 A 
ATOM     24  C   UNL     1      -5.942  -2.652  -8.446  0.00  0.00    +0.016 A 
ATOM     25  C   UNL     1      -6.599  -2.598  -9.657  0.00  0.00    +0.001 A 
ATOM     26  C   UNL     1      -5.966  -3.022 -10.813  0.00  0.00    +0.003 A 
ATOM     27  C   UNL     1      -4.672  -3.504 -10.764  0.00  0.00    +0.039 A 
ATOM     28  C   UNL     1      -3.997  -3.558  -9.558  0.00  0.00    +0.135 A 
ATOM     29  F   UNL     1      -2.729  -4.023  -9.511  0.00  0.00    -0.205 F 
ENDBRANCH  20  23
ENDBRANCH  16  19
ENDBRANCH   4  13
BRANCH   3  30
ATOM     30  C   UNL     1      -2.549  -0.559   0.123  0.00  0.00    +0.248 C 
ATOM     31  O   UNL     1      -2.425   0.600   0.482  0.00  0.00    -0.270 OA
ATOM     32  N   UNL     1      -3.663  -1.248   0.444  0.00  0.00    -0.282 N 
ATOM     33  H   UNL     1      -3.730  -2.190   0.224  0.00  0.00    +0.155 HD
BRANCH  32  34
ATOM     34  C   UNL     1      -4.720  -0.604   1.093  0.00  0.00    +0.034 A 
ATOM     35  C   UNL     1      -4.991   0.733   0.827  0.00  0.00    +0.023 A 
ATOM     36  C   UNL     1      -6.036   1.365   1.470  0.00  0.00    +0.002 A 
ATOM     37  C   UNL     1      -6.813   0.670   2.379  0.00  0.00    +0.000 A 
ATOM     38  C   UNL     1      -6.546  -0.660   2.647  0.00  0.00    +0.002 A 
ATOM     39  C   UNL     1      -5.506  -1.300   2.002  0.00  0.00    +0.023 A 
ENDBRANCH  32  34
ENDBRANCH   3  30
TORSDOF 5
