REMARK  Name = ZINC11254956
REMARK  11 active torsions:
REMARK  status: ('A' for Active; 'I' for Inactive)
REMARK    1  A    between atoms: C_1  and  C_2
REMARK    2  A    between atoms: C_2  and  O_3
REMARK    3  A    between atoms: O_3  and  C_4
REMARK    4  A    between atoms: C_7  and  N_10
REMARK    5  A    between atoms: C_11  and  C_27
REMARK    6  A    between atoms: C_14  and  S_15
REMARK    7  A    between atoms: S_15  and  C_16
REMARK    8  A    between atoms: C_16  and  C_17
REMARK    9  A    between atoms: N_23  and  C_24
REMARK   10  A    between atoms: N_23  and  C_25
REMARK   11  A    between atoms: C_31  and  C_33
REMARK                            x       y       z     vdW  Elec       q    Type
REMARK                         _______ _______ _______ _____ _____    ______ ____
ROOT
ATOM      1  N   UNL     1      -3.764   1.532  -0.159  0.00  0.00    -0.270 N 
ATOM      2  C   UNL     1      -2.501   0.983  -0.132  0.00  0.00    +0.169 A 
ATOM      3  N   UNL     1      -2.643  -0.300   0.108  0.00  0.00    -0.128 NA
ATOM      4  N   UNL     1      -3.890  -0.589   0.226  0.00  0.00    -0.122 NA
ATOM      5  C   UNL     1      -4.622   0.491   0.069  0.00  0.00    +0.197 A 
ENDROOT
BRANCH   2   6
ATOM      6  C   UNL     1      -1.225   1.704  -0.329  0.00  0.00    +0.020 A 
ATOM      7  C   UNL     1      -0.022   1.126   0.082  0.00  0.00    +0.011 A 
ATOM      8  C   UNL     1       1.164   1.806  -0.100  0.00  0.00    +0.001 A 
ATOM      9  C   UNL     1       1.164   3.056  -0.694  0.00  0.00    +0.003 A 
ATOM     10  C   UNL     1      -0.024   3.632  -1.108  0.00  0.00    -0.050 A 
ATOM     11  C   UNL     1      -1.217   2.963  -0.931  0.00  0.00    +0.015 A 
ATOM     12  C   UNL     1      -0.014   4.994  -1.752  0.00  0.00    +0.044 C 
ENDBRANCH   2   6
BRANCH   1  16
ATOM     13  C   UNL     1      -4.764   5.530  -0.808  0.00  0.00    +0.121 A 
ATOM     14  C   UNL     1      -5.094   4.570  -1.753  0.00  0.00    +0.047 A 
ATOM     15  C   UNL     1      -4.763   3.247  -1.539  0.00  0.00    +0.030 A 
ATOM     16  C   UNL     1      -4.100   2.877  -0.377  0.00  0.00    +0.051 A 
ATOM     17  C   UNL     1      -3.774   3.837   0.571  0.00  0.00    +0.030 A 
ATOM     18  C   UNL     1      -4.101   5.160   0.354  0.00  0.00    +0.047 A 
BRANCH  13  19
ATOM     19  O   UNL     1      -5.090   6.833  -1.019  0.00  0.00    -0.492 OA
BRANCH  19  21
ATOM     20  C   UNL     1      -5.166   9.171  -0.415  0.00  0.00    +0.048 C 
ATOM     21  C   UNL     1      -4.719   7.767  -0.004  0.00  0.00    +0.225 C 
ENDBRANCH  19  21
ENDBRANCH  13  19
ENDBRANCH   1  16
BRANCH   5  22
ATOM     22  S   UNL     1      -6.380   0.584   0.144  0.00  0.00    -0.078 S 
BRANCH  22  23
ATOM     23  C   UNL     1      -6.771  -1.152   0.480  0.00  0.00    +0.153 C 
BRANCH  23  24
ATOM     24  C   UNL     1      -8.265  -1.318   0.588  0.00  0.00    +0.146 A 
ATOM     25  N   UNL     1      -8.977  -1.595  -0.490  0.00  0.00    -0.199 NA
ATOM     26  C   UNL     1     -10.297  -1.742  -0.398  0.00  0.00    +0.217 A 
ATOM     27  N   UNL     1     -10.898  -1.611   0.780  0.00  0.00    -0.181 NA
ATOM     28  C   UNL     1     -10.178  -1.333   1.861  0.00  0.00    +0.222 A 
ATOM     29  N   UNL     1      -8.858  -1.191   1.762  0.00  0.00    -0.198 NA
ATOM     30  N   UNL     1     -10.798  -1.196   3.087  0.00  0.00    -0.306 N 
ATOM     31  C   UNL     1     -12.250  -1.357   3.196  0.00  0.00    +0.132 C 
ATOM     32  C   UNL     1     -10.003  -0.889   4.279  0.00  0.00    +0.132 C 
ATOM     33  N   UNL     1     -11.040  -2.031  -1.524  0.00  0.00    -0.327 N 
ATOM     34  H   UNL     1     -10.601  -2.126  -2.384  0.00  0.00    +0.145 HD
ATOM     35  H   UNL     1     -12.002  -2.139  -1.457  0.00  0.00    +0.145 HD
ENDBRANCH  23  24
ENDBRANCH  22  23
ENDBRANCH   5  22
TORSDOF 7
