REMARK  Name = ZINC18168702
REMARK  5 active torsions:
REMARK  status: ('A' for Active; 'I' for Inactive)
REMARK    1  A    between atoms: C_1  and  C_2
REMARK    2  A    between atoms: C_5  and  S_8
REMARK    3  A    between atoms: S_8  and  N_11
REMARK    4  A    between atoms: C_24  and  C_31
REMARK    5  A    between atoms: C_27  and  C_30
REMARK                            x       y       z     vdW  Elec       q    Type
REMARK                         _______ _______ _______ _____ _____    ______ ____
ROOT
ATOM      1  N   UNL     1      -0.018   1.691  -0.279  0.00  0.00    -0.197 N 
ATOM      2  C   UNL     1      -1.230   2.349  -0.126  0.00  0.00    +0.179 A 
ATOM      3  C   UNL     1      -1.247   3.740   0.135  0.00  0.00    +0.164 A 
ATOM      4  N   UNL     1      -2.390   4.376   0.282  0.00  0.00    -0.227 NA
ATOM      5  C   UNL     1      -3.546   3.702   0.182  0.00  0.00    +0.091 A 
ATOM      6  C   UNL     1      -4.777   4.359   0.334  0.00  0.00    +0.030 A 
ATOM      7  C   UNL     1      -5.937   3.653   0.228  0.00  0.00    +0.002 A 
ATOM      8  C   UNL     1      -5.920   2.284  -0.029  0.00  0.00    +0.002 A 
ATOM      9  C   UNL     1      -4.743   1.616  -0.182  0.00  0.00    +0.030 A 
ATOM     10  C   UNL     1      -3.528   2.312  -0.079  0.00  0.00    +0.091 A 
ATOM     11  N   UNL     1      -2.357   1.676  -0.231  0.00  0.00    -0.226 NA
ATOM     12  N   UNL     1      -0.052   4.437   0.239  0.00  0.00    -0.308 N 
ATOM     13  C   UNL     1       0.099   5.028   1.576  0.00  0.00    +0.138 C 
ATOM     14  C   UNL     1       1.454   5.735   1.666  0.00  0.00    +0.133 C 
ATOM     15  O   UNL     1       1.545   6.714   0.628  0.00  0.00    -0.371 OA
ATOM     16  C   UNL     1       1.402   6.173  -0.689  0.00  0.00    +0.133 C 
ATOM     17  C   UNL     1       0.047   5.471  -0.802  0.00  0.00    +0.138 C 
ATOM     18  C   UNL     1       1.479   7.304  -1.717  0.00  0.00    +0.039 C 
ATOM     19  C   UNL     1       1.585   6.420   3.027  0.00  0.00    +0.039 C 
ATOM     20  H   UNL     1       0.814   2.161  -0.112  0.00  0.00    +0.175 HD
ENDROOT
BRANCH   1  21
ATOM     21  S   UNL     1       0.009   0.104  -0.752  0.00  0.00    +0.074 S 
ATOM     22  O   UNL     1       1.377  -0.268  -0.848  0.00  0.00    -0.150 OA
ATOM     23  O   UNL     1      -0.911  -0.585   0.084  0.00  0.00    -0.150 OA
BRANCH  21  28
ATOM     24  C   UNL     1      -2.239  -0.126  -6.347  0.00  0.00    +0.044 C 
ATOM     25  C   UNL     1      -1.677  -0.069  -4.949  0.00  0.00    -0.050 A 
ATOM     26  C   UNL     1      -0.320   0.110  -4.757  0.00  0.00    +0.005 A 
ATOM     27  C   UNL     1       0.195   0.163  -3.475  0.00  0.00    +0.029 A 
ATOM     28  C   UNL     1      -0.647   0.037  -2.386  0.00  0.00    +0.109 A 
ATOM     29  C   UNL     1      -2.004  -0.147  -2.579  0.00  0.00    +0.029 A 
ATOM     30  C   UNL     1      -2.519  -0.196  -3.861  0.00  0.00    +0.005 A 
ENDBRANCH  21  28
ENDBRANCH   1  21
TORSDOF 2
