REMARK  Name = ZINC40352326
REMARK  11 active torsions:
REMARK  status: ('A' for Active; 'I' for Inactive)
REMARK    1  A    between atoms: C_1  and  O_2
REMARK    2  A    between atoms: O_2  and  C_3
REMARK    3  A    between atoms: C_5  and  C_27
REMARK    4  A    between atoms: C_7  and  N_26
REMARK    5  A    between atoms: C_8  and  O_9
REMARK    6  A    between atoms: O_9  and  C_10
REMARK    7  A    between atoms: C_10  and  C_11
REMARK    8  A    between atoms: C_11  and  C_13
REMARK    9  A    between atoms: C_11  and  O_25
REMARK   10  A    between atoms: C_16  and  C_19
REMARK   11  A    between atoms: C_27  and  O_28
REMARK                            x       y       z     vdW  Elec       q    Type
REMARK                         _______ _______ _______ _____ _____    ______ ____
ROOT
ATOM      1  C   UNL     1      -1.260  -3.123  -0.296  0.00  0.00    +0.265 C 
ENDROOT
BRANCH   1   2
ATOM      2  O   UNL     1       0.110  -2.751  -0.140  0.00  0.00    -0.484 OA
BRANCH   2   8
ATOM      3  C   UNL     1       0.606  -0.608  -1.056  0.00  0.00    +0.164 A 
ATOM      4  C   UNL     1       1.173   0.161  -2.063  0.00  0.00    +0.055 A 
ATOM      5  C   UNL     1       1.788  -0.451  -3.139  0.00  0.00    -0.017 A 
ATOM      6  C   UNL     1       1.841  -1.830  -3.219  0.00  0.00    +0.032 A 
ATOM      7  C   UNL     1       1.276  -2.606  -2.216  0.00  0.00    +0.071 A 
ATOM      8  C   UNL     1       0.661  -1.994  -1.128  0.00  0.00    +0.183 A 
BRANCH   7   9
ATOM      9  N   UNL     1       1.329  -4.003  -2.296  0.00  0.00    -0.355 N 
ATOM     10  H   UNL     1       1.761  -4.429  -3.053  0.00  0.00    +0.142 HD
ATOM     11  H   UNL     1       0.934  -4.544  -1.595  0.00  0.00    +0.142 HD
ENDBRANCH   7   9
BRANCH   3  13
ATOM     12  C   UNL     1      -0.017   1.425   0.010  0.00  0.00    +0.277 C 
ATOM     13  O   UNL     1       0.002  -0.004   0.002  0.00  0.00    -0.491 OA
ENDBRANCH   3  13
BRANCH   5  14
ATOM     14  C   UNL     1       2.401   0.388  -4.230  0.00  0.00    +0.191 C 
BRANCH  14  15
ATOM     15  O   UNL     1       3.767   0.661  -3.911  0.00  0.00    -0.390 OA
ATOM     16  H   UNL     1       4.226   1.198  -4.571  0.00  0.00    +0.210 HD
ENDBRANCH  14  15
ENDBRANCH   5  14
ENDBRANCH   2   8
ENDBRANCH   1   2
BRANCH   1  17
ATOM     17  C   UNL     1      -1.700  -3.965   0.904  0.00  0.00    +0.182 C 
BRANCH  17  18
ATOM     18  C   UNL     1      -3.106  -4.460   0.683  0.00  0.00    -0.016 A 
ATOM     19  C   UNL     1      -4.179  -3.620   0.916  0.00  0.00    +0.006 A 
ATOM     20  C   UNL     1      -5.468  -4.074   0.713  0.00  0.00    +0.004 A 
ATOM     21  C   UNL     1      -5.685  -5.368   0.276  0.00  0.00    -0.044 A 
ATOM     22  C   UNL     1      -4.612  -6.207   0.042  0.00  0.00    +0.004 A 
ATOM     23  C   UNL     1      -3.322  -5.752   0.241  0.00  0.00    +0.006 A 
BRANCH  21  24
ATOM     24  C   UNL     1      -7.091  -5.863   0.055  0.00  0.00    +0.019 C 
ATOM     25  C   UNL     1      -7.357  -7.066   0.964  0.00  0.00    +0.008 C 
ATOM     26  C   UNL     1      -8.784  -7.569   0.740  0.00  0.00    +0.001 C 
ATOM     27  C   UNL     1      -8.954  -7.986  -0.722  0.00  0.00    +0.000 C 
ATOM     28  C   UNL     1      -8.689  -6.784  -1.631  0.00  0.00    +0.001 C 
ATOM     29  C   UNL     1      -7.261  -6.281  -1.407  0.00  0.00    +0.008 C 
ENDBRANCH  21  24
ENDBRANCH  17  18
BRANCH  17  30
ATOM     30  O   UNL     1      -1.657  -3.165   2.088  0.00  0.00    -0.384 OA
ATOM     31  H   UNL     1      -2.232  -2.388   2.059  0.00  0.00    +0.210 HD
ENDBRANCH  17  30
ENDBRANCH   1  17
TORSDOF 10
