REMARK  Name = ZINC16608188
REMARK  9 active torsions:
REMARK  status: ('A' for Active; 'I' for Inactive)
REMARK    1  A    between atoms: C_1  and  C_2
REMARK    2  A    between atoms: C_2  and  C_3
REMARK    3  A    between atoms: C_3  and  C_5
REMARK    4  A    between atoms: C_3  and  C_6
REMARK    5  A    between atoms: C_6  and  C_8
REMARK    6  A    between atoms: C_6  and  N_25
REMARK    7  A    between atoms: C_14  and  C_16
REMARK    8  A    between atoms: C_26  and  C_28
REMARK    9  A    between atoms: C_31  and  C_34
REMARK                            x       y       z     vdW  Elec       q    Type
REMARK                         _______ _______ _______ _____ _____    ______ ____
ROOT
ATOM      1  C   UNL     1      -0.064   0.983   2.521  0.00  0.00    +0.162 C 
ENDROOT
BRANCH   1   2
ATOM      2  C   UNL     1      -0.756   1.617   3.700  0.00  0.00    +0.239 C 
ATOM      3  O   UNL     1      -0.141   2.357   4.439  0.00  0.00    -0.273 OA
ATOM      4  N   UNL     1      -2.059   1.363   3.932  0.00  0.00    -0.262 N 
ATOM      5  C   UNL     1      -2.671   1.861   5.077  0.00  0.00    +0.188 A 
ATOM      6  N   UNL     1      -2.170   2.599   6.059  0.00  0.00    -0.125 NA
ATOM      7  N   UNL     1      -2.872   2.971   7.038  0.00  0.00    -0.140 NA
ATOM      8  C   UNL     1      -4.154   2.647   7.144  0.00  0.00    +0.134 A 
ATOM      9  S   UNL     1      -4.362   1.696   5.641  0.00  0.00    -0.030 S 
ATOM     10  H   UNL     1      -2.570   0.832   3.301  0.00  0.00    +0.157 HD
BRANCH   8  11
ATOM     11  C   UNL     1      -5.134   2.981   8.200  0.00  0.00    +0.013 A 
ATOM     12  C   UNL     1      -6.450   2.526   8.102  0.00  0.00    +0.014 A 
ATOM     13  C   UNL     1      -7.363   2.839   9.088  0.00  0.00    +0.050 A 
ATOM     14  C   UNL     1      -6.978   3.606  10.178  0.00  0.00    +0.166 A 
ATOM     15  C   UNL     1      -5.665   4.063  10.281  0.00  0.00    +0.167 A 
ATOM     16  C   UNL     1      -4.744   3.748   9.299  0.00  0.00    +0.060 A 
ATOM     17  O   UNL     1      -5.545   4.787  11.433  0.00  0.00    -0.453 OA
ATOM     18  C   UNL     1      -6.684   4.425  12.235  0.00  0.00    +0.466 C 
ATOM     19  O   UNL     1      -7.678   4.043  11.265  0.00  0.00    -0.453 OA
ENDBRANCH   8  11
ENDBRANCH   1   2
BRANCH   1  20
ATOM     20  N   UNL     1       1.380   0.945   2.766  0.00  0.00    -0.300 N 
ATOM     21  C   UNL     1       2.144   0.021   2.149  0.00  0.00    +0.245 C 
ATOM     22  O   UNL     1       1.635  -0.780   1.390  0.00  0.00    -0.270 OA
ATOM     23  H   UNL     1       1.787   1.584   3.372  0.00  0.00    +0.150 HD
BRANCH  21  24
ATOM     24  C   UNL     1       3.601  -0.018   2.397  0.00  0.00    +0.037 A 
ATOM     25  C   UNL     1       4.190   0.904   3.264  0.00  0.00    +0.013 A 
ATOM     26  C   UNL     1       5.549   0.859   3.493  0.00  0.00    +0.013 A 
ATOM     27  C   UNL     1       6.330  -0.090   2.859  0.00  0.00    +0.055 A 
ATOM     28  C   UNL     1       5.754  -1.004   1.994  0.00  0.00    +0.013 A 
ATOM     29  C   UNL     1       4.395  -0.973   1.760  0.00  0.00    +0.013 A 
BRANCH  27  30
ATOM     30  C   UNL     1       7.816  -0.130   3.110  0.00  0.00    +0.417 C 
ATOM     31  F   UNL     1       8.468   0.689   2.182  0.00  0.00    -0.166 F 
ATOM     32  F   UNL     1       8.082   0.330   4.405  0.00  0.00    -0.166 F 
ATOM     33  F   UNL     1       8.276  -1.444   2.978  0.00  0.00    -0.166 F 
ENDBRANCH  27  30
ENDBRANCH  21  24
ENDBRANCH   1  20
BRANCH   1  34
ATOM     34  C   UNL     1      -0.345   1.805   1.261  0.00  0.00    +0.015 C 
ATOM     35  C   UNL     1       0.303   3.184   1.396  0.00  0.00    +0.010 C 
BRANCH  34  37
ATOM     36  C   UNL     1      -0.509  -0.234  -0.174  0.00  0.00    +0.004 C 
ATOM     37  C   UNL     1       0.236   1.085   0.043  0.00  0.00    +0.002 C 
ENDBRANCH  34  37
ENDBRANCH   1  34
TORSDOF 7
