REMARK  Name = ZINC13064675
REMARK  15 active torsions:
REMARK  status: ('A' for Active; 'I' for Inactive)
REMARK    1  A    between atoms: C_1  and  C_2
REMARK    2  A    between atoms: C_2  and  C_3
REMARK    3  A    between atoms: C_3  and  C_5
REMARK    4  A    between atoms: C_3  and  N_69
REMARK    5  A    between atoms: N_9  and  C_10
REMARK    6  A    between atoms: C_10  and  C_11
REMARK    7  A    between atoms: C_11  and  O_12
REMARK    8  A    between atoms: O_12  and  C_13
REMARK    9  A    between atoms: C_14  and  C_15
REMARK   10  A    between atoms: C_14  and  N_69
REMARK   11  A    between atoms: C_18  and  C_21
REMARK   12  A    between atoms: C_22  and  C_23
REMARK   13  A    between atoms: C_22  and  N_69
REMARK   14  A    between atoms: C_27  and  C_36
REMARK   15  A    between atoms: C_28  and  C_35
REMARK                            x       y       z     vdW  Elec       q    Type
REMARK                         _______ _______ _______ _____ _____    ______ ____
ROOT
ATOM      1  N   UNL     1      -5.487   3.730  -0.926  0.00  0.00    +0.392 N 
ATOM      2  H   UNL     1      -5.554   2.795  -1.346  0.00  0.00    -0.080 HD
ENDROOT
BRANCH   1   3
ATOM      3  C   UNL     1      -6.817   4.373  -0.970  0.00  0.00    +0.003 C 
BRANCH   3   4
ATOM      4  C   UNL     1      -6.812   5.651  -0.171  0.00  0.00    +0.138 A 
ATOM      5  N   UNL     1      -6.292   5.827   1.019  0.00  0.00    -0.115 NA
ATOM      6  N   UNL     1      -6.492   7.053   1.363  0.00  0.00    -0.023 NA
ATOM      7  N   UNL     1      -7.126   7.662   0.423  0.00  0.00    -0.044 NA
ATOM      8  N   UNL     1      -7.338   6.833  -0.542  0.00  0.00    -0.229 N 
BRANCH   8   9
ATOM      9  C   UNL     1      -8.023   7.122  -1.804  0.00  0.00    +0.175 C 
BRANCH   9  10
ATOM     10  C   UNL     1      -9.530   6.931  -1.621  0.00  0.00    +0.183 C 
BRANCH  10  11
ATOM     11  O   UNL     1     -10.199   7.214  -2.851  0.00  0.00    -0.381 OA
ATOM     12  C   UNL     1     -11.619   7.065  -2.788  0.00  0.00    +0.194 C 
ENDBRANCH  10  11
ENDBRANCH   9  10
ENDBRANCH   8   9
ENDBRANCH   3   4
BRANCH   3  14
ATOM     13  C   UNL     1      -7.958   2.172  -1.281  0.00  0.00    +0.002 C 
ATOM     14  C   UNL     1      -7.851   3.409  -0.386  0.00  0.00    -0.011 C 
ENDBRANCH   3  14
ENDBRANCH   1   3
BRANCH   1  15
ATOM     15  C   UNL     1      -4.511   4.532  -1.694  0.00  0.00    -0.042 C 
BRANCH  15  16
ATOM     16  C   UNL     1      -4.781   4.343  -3.165  0.00  0.00    -0.064 A 
ATOM     17  C   UNL     1      -4.243   3.259  -3.832  0.00  0.00    +0.002 A 
ATOM     18  C   UNL     1      -4.494   3.083  -5.180  0.00  0.00    +0.003 A 
ATOM     19  C   UNL     1      -5.274   3.997  -5.863  0.00  0.00    -0.050 A 
ATOM     20  C   UNL     1      -5.808   5.084  -5.197  0.00  0.00    +0.003 A 
ATOM     21  C   UNL     1      -5.561   5.257  -3.848  0.00  0.00    +0.002 A 
ATOM     22  C   UNL     1      -5.544   3.807  -7.333  0.00  0.00    +0.044 C 
ENDBRANCH  15  16
ENDBRANCH   1  15
BRANCH   1  23
ATOM     23  C   UNL     1      -5.037   3.595   0.476  0.00  0.00    -0.036 C 
BRANCH  23  24
ATOM     24  C   UNL     1      -3.906   2.601   0.527  0.00  0.00    +0.001 A 
ATOM     25  C   UNL     1      -2.622   3.037   0.517  0.00  0.00    +0.017 A 
ATOM     26  C   UNL     1      -1.546   2.046   0.563  0.00  0.00    -0.001 A 
ATOM     27  C   UNL     1      -0.202   2.434   0.538  0.00  0.00    +0.013 A 
ATOM     28  C   UNL     1       0.778   1.484   0.582  0.00  0.00    -0.047 A 
ATOM     29  C   UNL     1       0.454   0.136   0.652  0.00  0.00    -0.046 A 
ATOM     30  C   UNL     1      -0.863  -0.269   0.678  0.00  0.00    +0.030 A 
ATOM     31  C   UNL     1      -1.879   0.680   0.628  0.00  0.00    +0.049 A 
ATOM     32  N   UNL     1      -3.205   0.302   0.647  0.00  0.00    -0.322 N 
ATOM     33  H   UNL     1      -3.433  -0.640   0.696  0.00  0.00    +0.169 HD
ATOM     34  C   UNL     1      -4.186   1.220   0.599  0.00  0.00    +0.251 A 
ATOM     35  O   UNL     1      -5.347   0.849   0.618  0.00  0.00    -0.268 OA
ATOM     36  C   UNL     1       1.552  -0.894   0.699  0.00  0.00    +0.044 C 
ATOM     37  C   UNL     1       2.226   1.903   0.554  0.00  0.00    +0.044 C 
ENDBRANCH  23  24
ENDBRANCH   1  23
TORSDOF 10
