REMARK  Name = ZINC15223567
REMARK  10 active torsions:
REMARK  status: ('A' for Active; 'I' for Inactive)
REMARK    1  A    between atoms: C_1  and  C_2
REMARK    2  A    between atoms: N_10  and  N_14
REMARK    3  A    between atoms: C_15  and  C_17
REMARK    4  A    between atoms: C_17  and  O_18
REMARK    5  A    between atoms: O_18  and  C_19
REMARK    6  A    between atoms: C_19  and  C_21
REMARK    7  A    between atoms: C_21  and  C_31
REMARK    8  A    between atoms: C_22  and  C_23
REMARK    9  A    between atoms: C_28  and  O_29
REMARK   10  A    between atoms: O_29  and  C_30
REMARK                            x       y       z     vdW  Elec       q    Type
REMARK                         _______ _______ _______ _____ _____    ______ ____
ROOT
ATOM      1  C   UNL     1      -5.004  -3.022  -0.856  0.00  0.00    +0.329 C 
ENDROOT
BRANCH   1   3
ATOM      2  N   UNL     1      -5.839  -5.292  -1.374  0.00  0.00    -0.221 N 
ATOM      3  C   UNL     1      -4.787  -4.491  -1.115  0.00  0.00    +0.267 C 
ATOM      4  O   UNL     1      -3.666  -4.952  -1.090  0.00  0.00    -0.271 OA
ATOM      5  H   UNL     1      -6.736  -4.923  -1.394  0.00  0.00    +0.174 HD
BRANCH   2  15
ATOM      6  C   UNL     1      -4.905 -13.130  -2.203  0.00  0.00    +0.007 C 
ATOM      7  C   UNL     1      -5.291 -11.834  -1.487  0.00  0.00    -0.014 C 
ATOM      8  C   UNL     1      -4.061 -10.933  -1.363  0.00  0.00    +0.006 C 
ATOM      9  C   UNL     1      -4.446  -9.643  -0.636  0.00  0.00    +0.035 C 
ATOM     10  C   UNL     1      -5.544  -8.926  -1.414  0.00  0.00    +0.114 C 
ATOM     11  C   UNL     1      -6.769  -9.821  -1.568  0.00  0.00    +0.035 C 
ATOM     12  C   UNL     1      -6.374 -11.111  -2.291  0.00  0.00    +0.006 C 
ATOM     13  C   UNL     1      -5.919  -7.633  -0.726  0.00  0.00    +0.263 C 
ATOM     14  O   UNL     1      -6.377  -7.501   0.389  0.00  0.00    -0.271 OA
ATOM     15  N   UNL     1      -5.638  -6.658  -1.614  0.00  0.00    -0.137 N 
ATOM     16  C   UNL     1      -5.147  -7.156  -2.755  0.00  0.00    +0.326 C 
ATOM     17  O   UNL     1      -4.824  -6.474  -3.707  0.00  0.00    -0.251 OA
ATOM     18  N   UNL     1      -5.049  -8.499  -2.729  0.00  0.00    -0.284 N 
ATOM     19  H   UNL     1      -4.720  -9.072  -3.439  0.00  0.00    +0.151 HD
ENDBRANCH   2  15
ENDBRANCH   1   3
BRANCH   1  20
ATOM     20  O   UNL     1      -3.726  -2.381  -0.605  0.00  0.00    -0.452 OA
BRANCH  20  21
ATOM     21  C   UNL     1      -3.744  -1.056  -0.354  0.00  0.00    +0.340 C 
ATOM     22  O   UNL     1      -4.800  -0.454  -0.346  0.00  0.00    -0.245 OA
BRANCH  21  23
ATOM     23  C   UNL     1      -2.489  -0.341  -0.091  0.00  0.00    +0.067 C 
ATOM     24  C   UNL     1      -2.508   0.998   0.163  0.00  0.00    +0.027 C 
BRANCH  24  25
ATOM     25  C   UNL     1      -1.278   1.684   0.571  0.00  0.00    +0.017 A 
ATOM     26  C   UNL     1      -0.383   1.063   1.452  0.00  0.00    +0.011 A 
ATOM     27  C   UNL     1       0.772   1.712   1.826  0.00  0.00    +0.001 A 
ATOM     28  C   UNL     1       1.053   2.979   1.339  0.00  0.00    +0.004 A 
ATOM     29  C   UNL     1       0.177   3.606   0.474  0.00  0.00    +0.046 A 
ATOM     30  C   UNL     1      -0.992   2.971   0.086  0.00  0.00    +0.127 A 
BRANCH  30  31
ATOM     31  O   UNL     1      -1.852   3.587  -0.763  0.00  0.00    -0.495 OA
ATOM     32  C   UNL     1      -1.491   4.892  -1.220  0.00  0.00    +0.277 C 
ENDBRANCH  30  31
ENDBRANCH  24  25
BRANCH  23  33
ATOM     33  C   UNL     1      -1.202  -1.075  -0.101  0.00  0.00    -0.011 A 
ATOM     34  C   UNL     1      -0.259  -0.819  -1.096  0.00  0.00    +0.009 A 
ATOM     35  C   UNL     1       0.940  -1.502  -1.097  0.00  0.00    +0.001 A 
ATOM     36  C   UNL     1       1.202  -2.447  -0.120  0.00  0.00    +0.000 A 
ATOM     37  C   UNL     1       0.268  -2.709   0.865  0.00  0.00    +0.001 A 
ATOM     38  C   UNL     1      -0.932  -2.028   0.880  0.00  0.00    +0.009 A 
ENDBRANCH  23  33
ENDBRANCH  21  23
ENDBRANCH  20  21
ENDBRANCH   1  20
TORSDOF 8
