REMARK  Name = ZINC10210893
REMARK  10 active torsions:
REMARK  status: ('A' for Active; 'I' for Inactive)
REMARK    1  A    between atoms: C_1  and  C_2
REMARK    2  A    between atoms: C_2  and  C_3
REMARK    3  A    between atoms: C_2  and  C_4
REMARK    4  A    between atoms: C_4  and  C_6
REMARK    5  A    between atoms: C_4  and  O_12
REMARK    6  A    between atoms: O_12  and  C_13
REMARK    7  A    between atoms: C_13  and  C_15
REMARK    8  A    between atoms: C_20  and  N_21
REMARK    9  A    between atoms: N_21  and  S_22
REMARK   10  A    between atoms: S_22  and  C_25
REMARK                            x       y       z     vdW  Elec       q    Type
REMARK                         _______ _______ _______ _____ _____    ______ ____
ROOT
ATOM      1  C   UNL     1       3.729  -0.742  -3.222  0.00  0.00    +0.081 A 
ATOM      2  C   UNL     1       4.041   0.498  -3.787  0.00  0.00    +0.017 A 
ATOM      3  C   UNL     1       4.597   1.488  -3.008  0.00  0.00    +0.001 A 
ATOM      4  C   UNL     1       4.846   1.264  -1.663  0.00  0.00    +0.002 A 
ATOM      5  C   UNL     1       4.539   0.048  -1.088  0.00  0.00    +0.025 A 
ATOM      6  C   UNL     1       3.977  -0.964  -1.858  0.00  0.00    +0.062 A 
ENDROOT
BRANCH   1   7
ATOM      7  C   UNL     1       3.141  -1.808  -4.051  0.00  0.00    +0.342 C 
ATOM      8  O   UNL     1       2.867  -2.883  -3.555  0.00  0.00    -0.245 OA
BRANCH   7   9
ATOM      9  O   UNL     1       2.905  -1.591  -5.360  0.00  0.00    -0.448 OA
BRANCH   9  10
ATOM     10  C   UNL     1       2.323  -2.685  -6.116  0.00  0.00    +0.265 C 
BRANCH  10  11
ATOM     11  C   UNL     1       1.480  -2.131  -7.235  0.00  0.00    +0.261 C 
ATOM     12  O   UNL     1       1.438  -0.935  -7.427  0.00  0.00    -0.271 OA
ATOM     13  N   UNL     1       0.774  -2.965  -8.024  0.00  0.00    -0.237 N 
ATOM     14  C   UNL     1       0.093  -2.479  -9.081  0.00  0.00    +0.303 C 
ATOM     15  O   UNL     1       0.116  -1.288  -9.322  0.00  0.00    -0.253 OA
ATOM     16  N   UNL     1      -0.613  -3.313  -9.869  0.00  0.00    -0.313 N 
ATOM     17  H   UNL     1       0.756  -3.916  -7.831  0.00  0.00    +0.159 HD
ATOM     18  H   UNL     1      -0.631  -4.263  -9.676  0.00  0.00    +0.146 HD
ATOM     19  H   UNL     1      -1.103  -2.963 -10.630  0.00  0.00    +0.146 HD
ENDBRANCH  10  11
BRANCH  10  21
ATOM     20  C   UNL     1       4.323  -2.700  -7.613  0.00  0.00    +0.011 C 
ATOM     21  C   UNL     1       3.440  -3.553  -6.699  0.00  0.00    +0.033 C 
ATOM     22  C   UNL     1       4.287  -4.127  -5.562  0.00  0.00    +0.011 C 
ENDBRANCH  10  21
ENDBRANCH   9  10
ENDBRANCH   7   9
ENDBRANCH   1   7
BRANCH   6  23
ATOM     23  N   UNL     1       3.668  -2.189  -1.282  0.00  0.00    -0.215 N 
ATOM     24  H   UNL     1       3.770  -3.006  -1.796  0.00  0.00    +0.174 HD
BRANCH  23  25
ATOM     25  S   UNL     1       3.124  -2.256   0.281  0.00  0.00    +0.072 S 
ATOM     26  O   UNL     1       4.075  -1.555   1.071  0.00  0.00    -0.150 OA
ATOM     27  O   UNL     1       2.775  -3.610   0.531  0.00  0.00    -0.150 OA
BRANCH  25  28
ATOM     28  C   UNL     1       1.628  -1.328   0.352  0.00  0.00    +0.112 A 
ATOM     29  C   UNL     1       0.417  -1.953   0.120  0.00  0.00    +0.032 A 
ATOM     30  C   UNL     1      -0.759  -1.228   0.175  0.00  0.00    +0.051 A 
ATOM     31  C   UNL     1      -0.727   0.128   0.462  0.00  0.00    +0.162 A 
ATOM     32  C   UNL     1       0.491   0.756   0.697  0.00  0.00    +0.164 A 
ATOM     33  C   UNL     1       1.667   0.023   0.640  0.00  0.00    +0.078 A 
ATOM     34  O   UNL     1       0.545   2.084   0.989  0.00  0.00    -0.485 OA
ATOM     35  C   UNL     1      -0.615   2.861   0.670  0.00  0.00    +0.270 C 
ATOM     36  C   UNL     1      -1.853   2.101   1.164  0.00  0.00    +0.270 C 
ATOM     37  O   UNL     1      -1.892   0.830   0.504  0.00  0.00    -0.485 OA
ENDBRANCH  25  28
ENDBRANCH  23  25
ENDBRANCH   6  23
TORSDOF 8
