REMARK  Name = ZINC36492787
REMARK  17 active torsions:
REMARK  status: ('A' for Active; 'I' for Inactive)
REMARK    1  A    between atoms: C_1  and  C_2
REMARK    2  A    between atoms: C_2  and  C_3
REMARK    3  A    between atoms: C_2  and  C_4
REMARK    4  A    between atoms: C_2  and  C_5
REMARK    5  A    between atoms: C_5  and  C_6
REMARK    6  A    between atoms: C_6  and  C_7
REMARK    7  A    between atoms: C_6  and  C_8
REMARK    8  A    between atoms: C_6  and  N_9
REMARK    9  A    between atoms: C_10  and  C_12
REMARK   10  A    between atoms: C_12  and  C_14
REMARK   11  A    between atoms: C_12  and  N_23
REMARK   12  A    between atoms: C_17  and  O_22
REMARK   13  A    between atoms: C_18  and  O_20
REMARK   14  A    between atoms: O_20  and  C_21
REMARK   15  A    between atoms: N_23  and  C_24
REMARK   16  A    between atoms: C_30  and  C_32
REMARK   17  A    between atoms: C_35  and  N_38
REMARK                            x       y       z     vdW  Elec       q    Type
REMARK                         _______ _______ _______ _____ _____    ______ ____
ROOT
ATOM      1  C   UNL     1       5.235  -0.245  -4.405  0.00  0.00    +0.193 C 
ENDROOT
BRANCH   1   2
ATOM      2  C   UNL     1       4.946  -1.699  -4.674  0.00  0.00    -0.015 A 
ATOM      3  C   UNL     1       4.254  -2.449  -3.741  0.00  0.00    +0.010 A 
ATOM      4  C   UNL     1       3.986  -3.783  -3.984  0.00  0.00    +0.049 A 
ATOM      5  C   UNL     1       4.411  -4.372  -5.164  0.00  0.00    +0.158 A 
ATOM      6  C   UNL     1       5.106  -3.616  -6.104  0.00  0.00    +0.162 A 
ATOM      7  C   UNL     1       5.367  -2.278  -5.857  0.00  0.00    +0.055 A 
BRANCH   6   8
ATOM      8  O   UNL     1       5.524  -4.189  -7.264  0.00  0.00    -0.491 OA
ATOM      9  C   UNL     1       6.232  -3.354  -8.182  0.00  0.00    +0.277 C 
ENDBRANCH   6   8
BRANCH   5  10
ATOM     10  O   UNL     1       4.149  -5.684  -5.404  0.00  0.00    -0.503 OA
ATOM     11  H   UNL     1       3.309  -5.841  -5.859  0.00  0.00    +0.292 HD
ENDBRANCH   5  10
ENDBRANCH   1   2
BRANCH   1  13
ATOM     12  N   UNL     1       3.498  -0.088  -2.651  0.00  0.00    -0.308 N 
ATOM     13  C   UNL     1       4.781   0.108  -3.012  0.00  0.00    +0.239 C 
ATOM     14  O   UNL     1       5.571   0.569  -2.215  0.00  0.00    -0.273 OA
ATOM     15  H   UNL     1       2.866  -0.457  -3.288  0.00  0.00    +0.149 HD
BRANCH  12  16
ATOM     16  C   UNL     1       3.057   0.255  -1.297  0.00  0.00    +0.030 C 
ATOM     17  C   UNL     1       3.647   1.608  -0.895  0.00  0.00    +0.031 C 
ATOM     18  C   UNL     1       3.534  -0.820  -0.318  0.00  0.00    +0.031 C 
BRANCH  16  19
ATOM     19  C   UNL     1       1.529   0.334  -1.262  0.00  0.00    +0.031 C 
BRANCH  19  21
ATOM     20  C   UNL     1       0.971   0.147  -3.690  0.00  0.00    +0.010 C 
ATOM     21  C   UNL     1       1.030   1.096  -2.491  0.00  0.00    -0.036 C 
ATOM     22  C   UNL     1       1.988   2.249  -2.800  0.00  0.00    +0.010 C 
ATOM     23  C   UNL     1      -0.367   1.655  -2.213  0.00  0.00    +0.010 C 
ENDBRANCH  19  21
ENDBRANCH  16  19
ENDBRANCH  12  16
ENDBRANCH   1  13
BRANCH   1  24
ATOM     24  N   UNL     1       6.674  -0.002  -4.526  0.00  0.00    -0.279 N 
ATOM     25  C   UNL     1       7.133   0.909  -5.407  0.00  0.00    +0.248 C 
ATOM     26  O   UNL     1       6.372   1.418  -6.206  0.00  0.00    -0.270 OA
BRANCH  24  27
ATOM     27  C   UNL     1       7.616  -0.751  -3.689  0.00  0.00    +0.077 C 
ATOM     28  C   UNL     1       6.913  -1.976  -3.101  0.00  0.00    +0.022 C 
ATOM     29  C   UNL     1       7.896  -2.758  -2.228  0.00  0.00    +0.002 C 
ATOM     30  C   UNL     1       8.393  -1.861  -1.092  0.00  0.00    +0.000 C 
ATOM     31  C   UNL     1       9.097  -0.636  -1.680  0.00  0.00    +0.002 C 
ATOM     32  C   UNL     1       8.113   0.146  -2.554  0.00  0.00    +0.022 C 
ENDBRANCH  24  27
BRANCH  25  33
ATOM     33  C   UNL     1       8.562   1.289  -5.401  0.00  0.00    +0.037 A 
ATOM     34  C   UNL     1       9.451   0.658  -4.530  0.00  0.00    +0.015 A 
ATOM     35  C   UNL     1      10.783   1.017  -4.530  0.00  0.00    +0.033 A 
ATOM     36  C   UNL     1      11.238   2.001  -5.390  0.00  0.00    +0.126 A 
ATOM     37  C   UNL     1      10.361   2.631  -6.255  0.00  0.00    +0.033 A 
ATOM     38  C   UNL     1       9.028   2.277  -6.270  0.00  0.00    +0.015 A 
BRANCH  36  39
ATOM     39  N   UNL     1      12.668   2.381  -5.384  0.00  0.00    +0.056 N 
ATOM     40  O   UNL     1      13.437   1.833  -4.629  0.00  0.00    -0.126 OA
ATOM     41  O   UNL     1      13.068   3.240  -6.135  0.00  0.00    -0.126 OA
ENDBRANCH  36  39
ENDBRANCH  25  33
ENDBRANCH   1  24
TORSDOF 11
