REMARK  Name = ZINC58689736
REMARK  12 active torsions:
REMARK  status: ('A' for Active; 'I' for Inactive)
REMARK    1  A    between atoms: C_1  and  C_2
REMARK    2  A    between atoms: C_2  and  C_3
REMARK    3  A    between atoms: C_3  and  N_4
REMARK    4  A    between atoms: C_8  and  S_27
REMARK    5  A    between atoms: C_12  and  C_13
REMARK    6  A    between atoms: C_13  and  C_14
REMARK    7  A    between atoms: C_14  and  C_15
REMARK    8  A    between atoms: N_17  and  C_18
REMARK    9  A    between atoms: C_18  and  C_19
REMARK   10  A    between atoms: C_22  and  C_26
REMARK   11  A    between atoms: C_24  and  C_25
REMARK   12  A    between atoms: S_27  and  N_30
REMARK                            x       y       z     vdW  Elec       q    Type
REMARK                         _______ _______ _______ _____ _____    ______ ____
ROOT
ATOM      1  N   UNL     1      -1.413  -1.998   0.005  0.00  0.00    -0.328 N 
ATOM      2  C   UNL     1      -1.407  -2.811  -1.112  0.00  0.00    +0.069 A 
ATOM      3  C   UNL     1      -1.416  -2.574  -2.479  0.00  0.00    +0.030 A 
ATOM      4  C   UNL     1      -1.405  -3.637  -3.357  0.00  0.00    +0.030 A 
ATOM      5  C   UNL     1      -1.386  -4.941  -2.881  0.00  0.00    +0.108 A 
ATOM      6  C   UNL     1      -1.377  -5.193  -1.539  0.00  0.00    +0.058 A 
ATOM      7  C   UNL     1      -1.387  -4.131  -0.631  0.00  0.00    +0.091 A 
ATOM      8  N   UNL     1      -1.383  -4.058   0.725  0.00  0.00    -0.232 NA
ATOM      9  C   UNL     1      -1.392  -2.811   1.096  0.00  0.00    +0.111 A 
ENDROOT
BRANCH   5  10
ATOM     10  S   UNL     1      -1.373  -6.285  -4.021  0.00  0.00    +0.061 S 
ATOM     11  O   UNL     1      -1.906  -7.407  -3.332  0.00  0.00    -0.153 OA
ATOM     12  O   UNL     1      -1.935  -5.796  -5.231  0.00  0.00    -0.153 OA
BRANCH  10  13
ATOM     13  N   UNL     1       0.213  -6.637  -4.344  0.00  0.00    -0.177 NA
ATOM     14  C   UNL     1       1.021  -6.042  -5.418  0.00  0.00    +0.109 C 
ATOM     15  C   UNL     1       2.420  -6.690  -5.351  0.00  0.00    +0.018 C 
ATOM     16  C   UNL     1       2.151  -8.022  -4.603  0.00  0.00    +0.018 C 
ATOM     17  C   UNL     1       1.049  -7.595  -3.598  0.00  0.00    +0.109 C 
ENDBRANCH  10  13
ENDBRANCH   5  10
BRANCH   1  18
ATOM     18  C   UNL     1      -1.433  -0.534   0.013  0.00  0.00    +0.123 C 
BRANCH  18  20
ATOM     19  C   UNL     1      -0.019   1.526   0.010  0.00  0.00    +0.005 C 
ATOM     20  C   UNL     1       0.002  -0.004   0.002  0.00  0.00    +0.018 C 
ENDBRANCH  18  20
ENDBRANCH   1  18
BRANCH   9  21
ATOM     21  C   UNL     1      -1.384  -2.335   2.526  0.00  0.00    +0.083 C 
BRANCH  21  22
ATOM     22  C   UNL     1      -2.824  -2.193   3.024  0.00  0.00    +0.103 C 
BRANCH  22  23
ATOM     23  C   UNL     1      -2.816  -1.718   4.454  0.00  0.00    +0.214 C 
ATOM     24  O   UNL     1      -1.762  -1.512   5.019  0.00  0.00    -0.276 OA
ATOM     25  N   UNL     1      -3.979  -1.520   5.105  0.00  0.00    -0.311 N 
ATOM     26  H   UNL     1      -4.822  -1.684   4.653  0.00  0.00    +0.149 HD
BRANCH  25  27
ATOM     27  C   UNL     1      -3.972  -1.058   6.495  0.00  0.00    +0.139 C 
BRANCH  27  28
ATOM     28  C   UNL     1      -5.390  -0.918   6.986  0.00  0.00    -0.027 A 
ATOM     29  C   UNL     1      -5.990   0.327   7.019  0.00  0.00    +0.006 A 
ATOM     30  C   UNL     1      -7.291   0.455   7.469  0.00  0.00    +0.004 A 
ATOM     31  C   UNL     1      -7.991  -0.661   7.886  0.00  0.00    -0.050 A 
ATOM     32  C   UNL     1      -7.391  -1.906   7.852  0.00  0.00    +0.007 A 
ATOM     33  C   UNL     1      -6.092  -2.035   7.397  0.00  0.00    -0.046 A 
ATOM     34  C   UNL     1      -5.440  -3.393   7.356  0.00  0.00    +0.044 C 
ATOM     35  C   UNL     1      -9.409  -0.521   8.377  0.00  0.00    +0.044 C 
ENDBRANCH  27  28
ENDBRANCH  25  27
ENDBRANCH  22  23
ENDBRANCH  21  22
ENDBRANCH   9  21
TORSDOF 9
