REMARK  Name = ZINC36589773
REMARK  13 active torsions:
REMARK  status: ('A' for Active; 'I' for Inactive)
REMARK    1  A    between atoms: C_1  and  O_2
REMARK    2  A    between atoms: O_2  and  C_3
REMARK    3  A    between atoms: C_6  and  O_33
REMARK    4  A    between atoms: C_7  and  C_9
REMARK    5  A    between atoms: N_22  and  C_23
REMARK    6  A    between atoms: C_23  and  C_25
REMARK    7  A    between atoms: C_23  and  C_29
REMARK    8  A    between atoms: C_25  and  C_26
REMARK    9  A    between atoms: C_26  and  S_27
REMARK   10  A    between atoms: S_27  and  C_28
REMARK   11  A    between atoms: C_29  and  O_31
REMARK   12  A    between atoms: O_31  and  C_32
REMARK   13  A    between atoms: O_33  and  C_34
REMARK                            x       y       z     vdW  Elec       q    Type
REMARK                         _______ _______ _______ _____ _____    ______ ____
ROOT
ATOM      1  C   UNL     1      -2.534  -4.171   0.016  0.00  0.00    +0.160 C 
ATOM      2  C   UNL     1      -2.792  -4.677  -1.383  0.00  0.00    +0.062 A 
ATOM      3  C   UNL     1      -1.864  -5.304  -2.136  0.00  0.00    +0.040 A 
ATOM      4  N   UNL     1      -2.455  -5.606  -3.326  0.00  0.00    -0.349 N 
ATOM      5  H   UNL     1      -2.041  -6.058  -4.078  0.00  0.00    +0.166 HD
ATOM      6  C   UNL     1      -3.730  -5.157  -3.261  0.00  0.00    +0.171 A 
ATOM      7  N   UNL     1      -3.921  -4.603  -2.092  0.00  0.00    -0.348 N 
ATOM      8  C   UNL     1      -0.453  -5.597  -1.697  0.00  0.00    +0.074 C 
ATOM      9  C   UNL     1      -0.116  -4.707  -0.493  0.00  0.00    +0.116 C 
ATOM     10  N   UNL     1      -1.242  -4.729   0.454  0.00  0.00    -0.273 N 
ATOM     11  C   UNL     1      -1.097  -5.247   1.690  0.00  0.00    +0.304 C 
ATOM     12  O   UNL     1      -2.061  -5.346   2.425  0.00  0.00    -0.253 OA
ATOM     13  N   UNL     1       0.116  -5.656   2.111  0.00  0.00    -0.286 N 
ATOM     14  H   UNL     1       0.897  -5.508   1.556  0.00  0.00    +0.151 HD
ATOM     15  H   UNL     1      -4.750  -4.201  -1.788  0.00  0.00    +0.167 HD
ENDROOT
BRANCH   1  20
ATOM     16  C   UNL     1      -2.263  -0.598  -1.183  0.00  0.00    +0.121 A 
ATOM     17  C   UNL     1      -2.346   0.103   0.011  0.00  0.00    +0.049 A 
ATOM     18  C   UNL     1      -2.489  -0.579   1.203  0.00  0.00    +0.049 A 
ATOM     19  C   UNL     1      -2.550  -1.965   1.207  0.00  0.00    +0.126 A 
ATOM     20  C   UNL     1      -2.468  -2.665   0.013  0.00  0.00    +0.024 A 
ATOM     21  C   UNL     1      -2.330  -1.983  -1.181  0.00  0.00    +0.055 A 
BRANCH  16  23
ATOM     22  C   UNL     1      -2.060   1.500  -2.286  0.00  0.00    +0.277 C 
ATOM     23  O   UNL     1      -2.122   0.074  -2.358  0.00  0.00    -0.495 OA
ENDBRANCH  16  23
BRANCH  19  24
ATOM     24  O   UNL     1      -2.690  -2.636   2.381  0.00  0.00    -0.495 OA
ATOM     25  C   UNL     1      -2.768  -1.851   3.572  0.00  0.00    +0.277 C 
ENDBRANCH  19  24
ENDBRANCH   1  20
BRANCH  13  26
ATOM     26  C   UNL     1       0.255  -6.322   3.409  0.00  0.00    +0.184 C 
BRANCH  26  27
ATOM     27  C   UNL     1      -0.026  -7.794   3.250  0.00  0.00    +0.327 C 
ATOM     28  O   UNL     1      -0.312  -8.241   2.164  0.00  0.00    -0.249 OA
BRANCH  27  29
ATOM     29  O   UNL     1       0.042  -8.609   4.314  0.00  0.00    -0.467 OA
ATOM     30  C   UNL     1      -0.236  -9.993   4.091  0.00  0.00    +0.280 C 
ENDBRANCH  27  29
ENDBRANCH  26  27
BRANCH  26  31
ATOM     31  C   UNL     1       1.679  -6.128   3.932  0.00  0.00    +0.044 C 
BRANCH  31  32
ATOM     32  C   UNL     1       1.922  -4.643   4.211  0.00  0.00    +0.071 C 
BRANCH  32  33
ATOM     33  S   UNL     1       3.611  -4.413   4.832  0.00  0.00    -0.164 S 
ATOM     34  C   UNL     1       3.737  -2.625   5.110  0.00  0.00    +0.084 C 
ENDBRANCH  32  33
ENDBRANCH  31  32
ENDBRANCH  26  31
ENDBRANCH  13  26
TORSDOF 9
