REMARK  Name = ZINC00208265
REMARK  3 active torsions:
REMARK  status: ('A' for Active; 'I' for Inactive)
REMARK    1  A    between atoms: C_12  and  N_27
REMARK    2  A    between atoms: C_13  and  C_25
REMARK    3  A    between atoms: C_14  and  C_16
REMARK                            x       y       z     vdW  Elec       q    Type
REMARK                         _______ _______ _______ _____ _____    ______ ____
ROOT
ATOM      1  C   UNL     1       1.155   1.776   0.001  0.00  0.00    +0.001 A 
ATOM      2  C   UNL     1       1.155   3.170   0.009  0.00  0.00    +0.001 A 
ATOM      3  C   UNL     1      -0.012   3.871   0.025  0.00  0.00    +0.012 A 
ATOM      4  C   UNL     1      -1.236   3.182   0.034  0.00  0.00    +0.025 A 
ATOM      5  C   UNL     1      -1.237   1.766   0.018  0.00  0.00    -0.014 A 
ATOM      6  C   UNL     1      -0.013   1.076   0.008  0.00  0.00    +0.008 A 
ATOM      7  C   UNL     1      -2.462   1.078   0.028  0.00  0.00    +0.009 A 
ATOM      8  C   UNL     1      -3.630   1.774   0.044  0.00  0.00    +0.009 A 
ATOM      9  C   UNL     1      -3.643   3.170   0.057  0.00  0.00    +0.008 A 
ATOM     10  C   UNL     1      -2.464   3.878   0.053  0.00  0.00    +0.142 A 
ATOM     11  O   UNL     1      -2.462   5.232   0.066  0.00  0.00    -0.440 OA
ATOM     12  C   UNL     1      -3.561   5.910  -0.305  0.00  0.00    +0.199 C 
ATOM     13  C   UNL     1      -4.784   5.327  -0.323  0.00  0.00    +0.098 C 
ATOM     14  C   UNL     1      -4.966   3.890   0.077  0.00  0.00    +0.098 C 
ENDROOT
BRANCH  14  15
ATOM     15  C   UNL     1      -5.543   3.829   1.468  0.00  0.00    -0.031 A 
ATOM     16  C   UNL     1      -4.850   4.383   2.528  0.00  0.00    +0.008 A 
ATOM     17  C   UNL     1      -5.377   4.334   3.805  0.00  0.00    +0.050 A 
ATOM     18  C   UNL     1      -6.599   3.719   4.027  0.00  0.00    +0.166 A 
ATOM     19  C   UNL     1      -7.295   3.156   2.960  0.00  0.00    +0.167 A 
ATOM     20  C   UNL     1      -6.763   3.214   1.683  0.00  0.00    +0.054 A 
ATOM     21  O   UNL     1      -8.457   2.617   3.433  0.00  0.00    -0.453 OA
ATOM     22  C   UNL     1      -8.657   3.213   4.729  0.00  0.00    +0.466 C 
ATOM     23  O   UNL     1      -7.324   3.533   5.168  0.00  0.00    -0.453 OA
ENDBRANCH  14  15
BRANCH  12  24
ATOM     24  N   UNL     1      -3.442   7.225  -0.678  0.00  0.00    -0.328 N 
ATOM     25  H   UNL     1      -2.572   7.655  -0.670  0.00  0.00    +0.145 HD
ATOM     26  H   UNL     1      -4.227   7.726  -0.949  0.00  0.00    +0.145 HD
ENDBRANCH  12  24
BRANCH  13  27
ATOM     27  C   UNL     1      -5.923   6.094  -0.729  0.00  0.00    +0.101 C 
ATOM     28  N   UNL     1      -6.826   6.702  -1.051  0.00  0.00    -0.191 NA
ENDBRANCH  13  27
TORSDOF 3
