REMARK  Name = ZINC01959587
REMARK  9 active torsions:
REMARK  status: ('A' for Active; 'I' for Inactive)
REMARK    1  A    between atoms: C_1  and  C_2
REMARK    2  A    between atoms: C_2  and  C_3
REMARK    3  A    between atoms: C_2  and  C_4
REMARK    4  A    between atoms: C_2  and  C_5
REMARK    5  A    between atoms: C_8  and  C_11
REMARK    6  A    between atoms: N_12  and  N_13
REMARK    7  A    between atoms: C_14  and  C_16
REMARK    8  A    between atoms: C_17  and  C_27
REMARK    9  A    between atoms: C_27  and  N_28
REMARK                            x       y       z     vdW  Elec       q    Type
REMARK                         _______ _______ _______ _____ _____    ______ ____
ROOT
ATOM      1  C   UNL     1       5.351  -0.900   1.275  0.00  0.00    +0.170 A 
ATOM      2  C   UNL     1       4.435  -0.185   1.993  0.00  0.00    +0.063 A 
ATOM      3  N   UNL     1       5.071   0.917   2.450  0.00  0.00    -0.194 N 
ATOM      4  N   UNL     1       6.395   0.837   1.994  0.00  0.00    -0.058 NA
ATOM      5  N   UNL     1       6.523  -0.242   1.304  0.00  0.00    -0.124 NA
ATOM      6  C   UNL     1       4.517   1.938   3.229  0.00  0.00    +0.240 A 
ATOM      7  C   UNL     1       5.224   3.126   3.716  0.00  0.00    +0.206 A 
ATOM      8  N   UNL     1       4.386   3.849   4.406  0.00  0.00    -0.032 NA
ATOM      9  O   UNL     1       3.134   3.185   4.401  0.00  0.00    -0.239 OA
ATOM     10  N   UNL     1       3.283   1.998   3.642  0.00  0.00    -0.027 NA
ATOM     11  N   UNL     1       6.560   3.431   3.481  0.00  0.00    -0.337 N 
ATOM     12  H   UNL     1       6.995   4.353   3.894  0.00  0.00    +0.144 HD
ATOM     13  H   UNL     1       7.183   2.749   2.883  0.00  0.00    +0.144 HD
ENDROOT
BRANCH   1  15
ATOM     14  N   UNL     1       6.089  -2.787  -0.094  0.00  0.00    -0.202 N 
ATOM     15  C   UNL     1       5.096  -2.178   0.584  0.00  0.00    +0.285 C 
ATOM     16  O   UNL     1       3.990  -2.683   0.626  0.00  0.00    -0.267 OA
ATOM     17  H   UNL     1       7.090  -2.330  -0.132  0.00  0.00    +0.178 HD
BRANCH  14  19
ATOM     18  C   UNL     1       6.804  -4.587  -1.404  0.00  0.00    +0.138 C 
ATOM     19  N   UNL     1       5.848  -4.001  -0.751  0.00  0.00    -0.187 NA
BRANCH  18  23
ATOM     20  C   UNL     1       6.072  -8.265  -3.391  0.00  0.00    -0.042 A 
ATOM     21  C   UNL     1       7.332  -7.694  -3.442  0.00  0.00    +0.005 A 
ATOM     22  C   UNL     1       7.577  -6.498  -2.798  0.00  0.00    +0.010 A 
ATOM     23  C   UNL     1       6.550  -5.865  -2.095  0.00  0.00    -0.005 A 
ATOM     24  C   UNL     1       5.282  -6.450  -2.043  0.00  0.00    +0.010 A 
ATOM     25  C   UNL     1       5.051  -7.643  -2.695  0.00  0.00    +0.005 A 
BRANCH  20  27
ATOM     26  C   UNL     1       6.735 -10.651  -3.525  0.00  0.00    +0.015 C 
ATOM     27  C   UNL     1       5.813  -9.572  -4.096  0.00  0.00    -0.013 C 
ATOM     28  C   UNL     1       4.354  -9.983  -3.886  0.00  0.00    +0.015 C 
ATOM     29  C   UNL     1       6.086  -9.406  -5.592  0.00  0.00    +0.015 C 
ENDBRANCH  20  27
ENDBRANCH  18  23
ENDBRANCH  14  19
ENDBRANCH   1  15
BRANCH   2  30
ATOM     30  C   UNL     1       2.991  -0.550   2.226  0.00  0.00    -0.020 C 
BRANCH  30  31
ATOM     31  N   UNL     1       2.163   0.021   1.155  0.00  0.00    +0.383 N 
ATOM     32  C   UNL     1       0.793  -0.505   1.212  0.00  0.00    -0.078 C 
ATOM     33  C   UNL     1       0.002  -0.004   0.002  0.00  0.00    -0.019 C 
ATOM     34  C   UNL     1      -0.019   1.527   0.010  0.00  0.00    -0.004 C 
ATOM     35  C   UNL     1       1.421   2.049  -0.001  0.00  0.00    -0.019 C 
ATOM     36  C   UNL     1       2.171   1.488   1.210  0.00  0.00    -0.078 C 
ATOM     37  H   UNL     1       2.598  -0.281   0.191  0.00  0.00    -0.081 HD
ENDBRANCH  30  31
ENDBRANCH   2  30
TORSDOF 6
