REMARK  Name = ZINC60639606
REMARK  4 active torsions:
REMARK  status: ('A' for Active; 'I' for Inactive)
REMARK    1  A    between atoms: C_1  and  C_2
REMARK    2  A    between atoms: C_9  and  C_21
REMARK    3  A    between atoms: C_10  and  N_11
REMARK    4  A    between atoms: C_12  and  C_14
REMARK                            x       y       z     vdW  Elec       q    Type
REMARK                         _______ _______ _______ _____ _____    ______ ____
ROOT
ATOM      1  C   UNL     1       0.582   1.562   0.168  0.00  0.00    +0.047 C 
ATOM      2  C   UNL     1       0.859   0.082   0.232  0.00  0.00    -0.008 A 
ATOM      3  C   UNL     1       1.581  -0.524  -0.748  0.00  0.00    +0.008 A 
ATOM      4  C   UNL     1       1.834  -1.905  -0.676  0.00  0.00    +0.018 A 
ATOM      5  C   UNL     1       1.362  -2.631   0.358  0.00  0.00    +0.094 A 
ATOM      6  N   UNL     1       0.633  -2.037   1.351  0.00  0.00    -0.287 N 
ATOM      7  C   UNL     1       0.375  -0.687   1.312  0.00  0.00    +0.143 A 
ATOM      8  N   UNL     1      -0.335  -0.362   2.380  0.00  0.00    -0.226 NA
ATOM      9  C   UNL     1      -0.546  -1.462   3.124  0.00  0.00    +0.112 A 
ATOM     10  C   UNL     1       0.050  -2.530   2.486  0.00  0.00    +0.137 A 
ENDROOT
BRANCH   9  11
ATOM     11  C   UNL     1      -1.298  -1.519   4.400  0.00  0.00    +0.004 A 
ATOM     12  C   UNL     1      -2.060  -2.644   4.713  0.00  0.00    +0.010 A 
ATOM     13  C   UNL     1      -2.758  -2.692   5.903  0.00  0.00    +0.001 A 
ATOM     14  C   UNL     1      -2.703  -1.626   6.783  0.00  0.00    +0.000 A 
ATOM     15  C   UNL     1      -1.949  -0.507   6.477  0.00  0.00    +0.001 A 
ATOM     16  C   UNL     1      -1.242  -0.450   5.294  0.00  0.00    +0.010 A 
ENDBRANCH   9  11
BRANCH  10  17
ATOM     17  N   UNL     1       0.068  -3.855   2.923  0.00  0.00    -0.269 N 
ATOM     18  C   UNL     1      -0.592  -4.803   2.228  0.00  0.00    +0.222 C 
ATOM     19  O   UNL     1      -1.127  -4.521   1.176  0.00  0.00    -0.275 OA
ATOM     20  H   UNL     1       0.556  -4.094   3.727  0.00  0.00    +0.156 HD
BRANCH  18  21
ATOM     21  C   UNL     1      -0.665  -6.212   2.757  0.00  0.00    +0.083 C 
ATOM     22  C   UNL     1       0.742  -6.859   2.777  0.00  0.00    +0.021 C 
ATOM     23  C   UNL     1       0.601  -8.080   1.813  0.00  0.00    +0.013 C 
ATOM     24  C   UNL     1      -0.364  -7.474   0.728  0.00  0.00    +0.016 C 
ATOM     25  C   UNL     1      -1.477  -7.123   1.783  0.00  0.00    +0.024 C 
ATOM     26  C   UNL     1      -1.572  -8.465   2.519  0.00  0.00    -0.027 C 
ATOM     27  C   UNL     1      -0.375  -9.016   2.536  0.00  0.00    -0.027 C 
ENDBRANCH  18  21
ENDBRANCH  10  17
TORSDOF 3
