REMARK  Name = ZINC13567971
REMARK  4 active torsions:
REMARK  status: ('A' for Active; 'I' for Inactive)
REMARK    1  A    between atoms: C_4  and  C_7
REMARK    2  A    between atoms: C_16  and  C_23
REMARK    3  A    between atoms: C_18  and  C_21
REMARK    4  A    between atoms: C_19  and  N_20
REMARK                            x       y       z     vdW  Elec       q    Type
REMARK                         _______ _______ _______ _____ _____    ______ ____
ROOT
ATOM      1  C   UNL     1      -0.025   0.749  -0.633  0.00  0.00    +0.068 A 
ATOM      2  C   UNL     1       1.262   0.783  -1.086  0.00  0.00    +0.073 A 
ATOM      3  C   UNL     1       2.110   0.770   0.029  0.00  0.00    +0.153 A 
ATOM      4  N   UNL     1       1.369   0.731   1.113  0.00  0.00    -0.158 NA
ATOM      5  N   UNL     1       0.022   0.717   0.729  0.00  0.00    -0.275 N 
ATOM      6  H   UNL     1      -0.765   0.688   1.345  0.00  0.00    +0.189 HD
ATOM      7  N   UNL     1       3.511   0.795  -0.006  0.00  0.00    -0.243 N 
ATOM      8  C   UNL     1       4.169   1.996  -0.012  0.00  0.00    +0.026 C 
ATOM      9  C   UNL     1       5.448   2.080  -0.433  0.00  0.00    +0.025 C 
ATOM     10  C   UNL     1       6.184   0.857  -0.918  0.00  0.00    +0.097 C 
ATOM     11  C   UNL     1       5.504  -0.401  -0.466  0.00  0.00    +0.077 C 
ATOM     12  C   UNL     1       4.214  -0.387  -0.039  0.00  0.00    +0.108 C 
ATOM     13  C   UNL     1       6.130   3.309  -0.439  0.00  0.00    +0.162 C 
ATOM     14  O   UNL     1       7.286   3.347  -0.814  0.00  0.00    -0.292 OA
ATOM     15  C   UNL     1       5.458   4.577  -0.007  0.00  0.00    +0.080 C 
ATOM     16  C   UNL     1       3.951   4.458  -0.261  0.00  0.00    +0.014 C 
ATOM     17  C   UNL     1       3.432   3.220   0.474  0.00  0.00    +0.052 C 
ENDROOT
BRANCH  10  18
ATOM     18  C   UNL     1       6.237   0.877  -2.424  0.00  0.00    -0.031 A 
ATOM     19  C   UNL     1       5.064   0.838  -3.155  0.00  0.00    +0.008 A 
ATOM     20  C   UNL     1       5.107   0.861  -4.537  0.00  0.00    +0.050 A 
ATOM     21  C   UNL     1       6.327   0.913  -5.192  0.00  0.00    +0.166 A 
ATOM     22  C   UNL     1       7.508   0.947  -4.455  0.00  0.00    +0.167 A 
ATOM     23  C   UNL     1       7.457   0.929  -3.071  0.00  0.00    +0.054 A 
ATOM     24  O   UNL     1       8.562   0.995  -5.322  0.00  0.00    -0.453 OA
ATOM     25  C   UNL     1       8.002   1.402  -6.585  0.00  0.00    +0.466 C 
ATOM     26  O   UNL     1       6.640   0.940  -6.521  0.00  0.00    -0.453 OA
ENDBRANCH  10  18
BRANCH   1  30
ATOM     27  C   UNL     1      -3.535   0.745  -3.028  0.00  0.00    +0.000 A 
ATOM     28  C   UNL     1      -3.642   0.710  -1.649  0.00  0.00    +0.001 A 
ATOM     29  C   UNL     1      -2.506   0.711  -0.866  0.00  0.00    +0.010 A 
ATOM     30  C   UNL     1      -1.247   0.748  -1.467  0.00  0.00    -0.000 A 
ATOM     31  C   UNL     1      -1.146   0.789  -2.858  0.00  0.00    +0.010 A 
ATOM     32  C   UNL     1      -2.290   0.782  -3.630  0.00  0.00    +0.001 A 
ENDBRANCH   1  30
BRANCH  12  33
ATOM     33  N   UNL     1       3.611  -1.556   0.360  0.00  0.00    -0.345 N 
ATOM     34  H   UNL     1       2.667  -1.563   0.582  0.00  0.00    +0.144 HD
ATOM     35  H   UNL     1       4.130  -2.373   0.421  0.00  0.00    +0.144 HD
ENDBRANCH  12  33
BRANCH  11  36
ATOM     36  C   UNL     1       6.226  -1.638  -0.485  0.00  0.00    +0.099 C 
ATOM     37  N   UNL     1       6.798  -2.619  -0.500  0.00  0.00    -0.191 NA
ENDBRANCH  11  36
TORSDOF 4
