REMARK  Name = ZINC25406730
REMARK  9 active torsions:
REMARK  status: ('A' for Active; 'I' for Inactive)
REMARK    1  A    between atoms: C_1  and  C_2
REMARK    2  A    between atoms: C_2  and  C_3
REMARK    3  A    between atoms: C_3  and  C_5
REMARK    4  A    between atoms: C_3  and  C_6
REMARK    5  A    between atoms: C_6  and  C_8
REMARK    6  A    between atoms: C_6  and  N_28
REMARK    7  A    between atoms: N_10  and  C_11
REMARK    8  A    between atoms: C_15  and  S_17
REMARK    9  A    between atoms: S_17  and  N_20
REMARK                            x       y       z     vdW  Elec       q    Type
REMARK                         _______ _______ _______ _____ _____    ______ ____
ROOT
ATOM      1  C   UNL     1      -4.867   0.856  -2.434  0.00  0.00    +0.035 A 
ATOM      2  C   UNL     1      -4.796   2.106  -3.037  0.00  0.00    +0.023 A 
ATOM      3  C   UNL     1      -5.627   2.408  -4.097  0.00  0.00    +0.004 A 
ATOM      4  C   UNL     1      -6.539   1.472  -4.551  0.00  0.00    +0.029 A 
ATOM      5  C   UNL     1      -6.617   0.230  -3.950  0.00  0.00    +0.114 A 
ATOM      6  C   UNL     1      -5.784  -0.081  -2.893  0.00  0.00    +0.052 A 
ENDROOT
BRANCH   1   9
ATOM      7  C   UNL     1      -2.788   1.082  -1.301  0.00  0.00    +0.238 C 
ATOM      8  O   UNL     1      -2.440   1.900  -2.126  0.00  0.00    -0.273 OA
ATOM      9  N   UNL     1      -4.022   0.545  -1.363  0.00  0.00    -0.284 N 
ATOM     10  H   UNL     1      -4.365  -0.139  -0.573  0.00  0.00    +0.155 HD
BRANCH   7  11
ATOM     11  C   UNL     1      -1.839   0.666  -0.207  0.00  0.00    +0.163 C 
BRANCH  11  12
ATOM     12  N   UNL     1      -0.459   0.840  -0.664  0.00  0.00    -0.288 N 
ATOM     13  C   UNL     1       0.530   0.105  -0.118  0.00  0.00    +0.298 C 
ATOM     14  O   UNL     1       0.277  -0.703   0.754  0.00  0.00    -0.253 OA
ATOM     15  N   UNL     1       1.800   0.262  -0.543  0.00  0.00    -0.313 N 
ATOM     16  H   UNL     1      -0.229   1.571  -1.453  0.00  0.00    +0.151 HD
ATOM     17  H   UNL     1       2.607  -0.338  -0.098  0.00  0.00    +0.146 HD
ATOM     18  H   UNL     1       2.029   0.990  -1.335  0.00  0.00    +0.146 HD
ENDBRANCH  11  12
BRANCH  11  19
ATOM     19  C   UNL     1      -2.079   1.531   1.032  0.00  0.00    +0.015 C 
ATOM     20  C   UNL     1      -1.617   2.962   0.752  0.00  0.00    +0.010 C 
BRANCH  19  22
ATOM     21  C   UNL     1      -1.745  -0.474   2.486  0.00  0.00    +0.004 C 
ATOM     22  C   UNL     1      -1.290   0.961   2.213  0.00  0.00    +0.002 C 
ENDBRANCH  19  22
ENDBRANCH  11  19
ENDBRANCH   7  11
ENDBRANCH   1   9
BRANCH   5  23
ATOM     23  S   UNL     1      -7.780  -0.959  -4.532  0.00  0.00    +0.100 S 
ATOM     24  O   UNL     1      -8.065  -0.620  -5.883  0.00  0.00    -0.146 OA
ATOM     25  O   UNL     1      -7.280  -2.235  -4.157  0.00  0.00    -0.146 OA
BRANCH  23  26
ATOM     26  N   UNL     1      -9.181  -0.731  -3.680  0.00  0.00    -0.118 NA
ATOM     27  C   UNL     1     -10.209  -1.480  -3.914  0.00  0.00    +0.117 C 
ATOM     28  C   UNL     1     -10.135  -2.572  -4.979  0.00  0.00    +0.073 C 
ATOM     29  C   UNL     1     -10.165  -3.905  -4.251  0.00  0.00    +0.008 C 
ATOM     30  C   UNL     1     -11.580  -4.434  -4.009  0.00  0.00    +0.002 C 
ATOM     31  C   UNL     1     -12.553  -3.350  -3.542  0.00  0.00    +0.019 C 
ATOM     32  C   UNL     1     -11.959  -2.422  -2.505  0.00  0.00    +0.102 C 
ATOM     33  N   UNL     1     -11.326  -1.300  -3.237  0.00  0.00    -0.331 N 
ATOM     34  H   UNL     1     -11.788  -0.302  -3.220  0.00  0.00    +0.147 HD
ENDBRANCH  23  26
ENDBRANCH   5  23
TORSDOF 7
