REMARK  Name = ZINC02146707
REMARK  8 active torsions:
REMARK  status: ('A' for Active; 'I' for Inactive)
REMARK    1  A    between atoms: C_1  and  N_56
REMARK    2  A    between atoms: C_8  and  O_31
REMARK    3  A    between atoms: C_10  and  C_12
REMARK    4  A    between atoms: C_12  and  C_13
REMARK    5  A    between atoms: C_13  and  C_15
REMARK    6  A    between atoms: C_18  and  C_20
REMARK    7  A    between atoms: C_22  and  C_27
REMARK    8  A    between atoms: O_31  and  C_32
REMARK                            x       y       z     vdW  Elec       q    Type
REMARK                         _______ _______ _______ _____ _____    ______ ____
ROOT
ATOM      1  C   UNL     1       0.011   0.954  -0.061  0.00  0.00    +0.072 C 
ENDROOT
BRANCH   1  11
ATOM      2  C   UNL     1      -1.608   3.356   0.185  0.00  0.00    -0.095 C 
ATOM      3  C   UNL     1      -1.099   3.409   2.554  0.00  0.00    -0.074 C 
ATOM      4  C   UNL     1       0.066   3.231   3.529  0.00  0.00    +0.017 C 
ATOM      5  C   UNL     1       0.586   1.818   3.458  0.00  0.00    -0.040 A 
ATOM      6  C   UNL     1       1.389   1.358   4.490  0.00  0.00    +0.053 A 
ATOM      7  C   UNL     1       1.893   0.069   4.469  0.00  0.00    +0.170 A 
ATOM      8  C   UNL     1       1.590  -0.771   3.402  0.00  0.00    +0.208 A 
ATOM      9  C   UNL     1       0.785  -0.309   2.371  0.00  0.00    +0.167 A 
ATOM     10  C   UNL     1       0.282   0.988   2.400  0.00  0.00    -0.012 A 
ATOM     11  C   UNL     1      -0.590   1.442   1.258  0.00  0.00    -0.026 C 
ATOM     12  O   UNL     1       2.198  -1.977   3.609  0.00  0.00    -0.449 OA
ATOM     13  C   UNL     1       3.207  -1.732   4.607  0.00  0.00    +0.467 C 
ATOM     14  O   UNL     1       2.690  -0.609   5.346  0.00  0.00    -0.452 OA
ATOM     15  N   UNL     1      -0.662   2.913   1.232  0.00  0.00    +0.383 N 
ATOM     16  H   UNL     1       0.270   3.290   1.023  0.00  0.00    -0.081 HD
BRANCH   9  17
ATOM     17  O   UNL     1       0.487  -1.127   1.327  0.00  0.00    -0.491 OA
ATOM     18  C   UNL     1      -0.687  -1.932   1.448  0.00  0.00    +0.277 C 
ENDBRANCH   9  17
ENDBRANCH   1  11
BRANCH   1  19
ATOM     19  C   UNL     1       1.439   1.423  -0.167  0.00  0.00    +0.197 C 
ATOM     20  O   UNL     1       1.896   2.172   0.673  0.00  0.00    -0.289 OA
BRANCH  19  21
ATOM     21  C   UNL     1       2.245   0.993  -1.242  0.00  0.00    +0.171 A 
ATOM     22  C   UNL     1       3.564   1.351  -1.461  0.00  0.00    +0.053 A 
ATOM     23  C   UNL     1       3.970   0.701  -2.627  0.00  0.00    +0.050 A 
ATOM     24  C   UNL     1       2.889  -0.022  -3.083  0.00  0.00    +0.137 A 
ATOM     25  O   UNL     1       1.862   0.166  -2.238  0.00  0.00    -0.452 OA
BRANCH  24  26
ATOM     26  C   UNL     1       2.864  -0.861  -4.296  0.00  0.00    +0.036 A 
ATOM     27  C   UNL     1       2.388  -2.173  -4.233  0.00  0.00    +0.025 A 
ATOM     28  C   UNL     1       2.368  -2.952  -5.371  0.00  0.00    +0.056 A 
ATOM     29  C   UNL     1       2.817  -2.437  -6.574  0.00  0.00    +0.014 A 
ATOM     30  C   UNL     1       3.290  -1.139  -6.646  0.00  0.00    +0.021 A 
ATOM     31  C   UNL     1       3.311  -0.346  -5.516  0.00  0.00    +0.052 A 
ATOM     32 CL   UNL     1       3.897   1.286  -5.609  0.00  0.00    -0.083 Cl
BRANCH  28  33
ATOM     33  C   UNL     1       1.855  -4.367  -5.303  0.00  0.00    +0.417 C 
ATOM     34  F   UNL     1       0.478  -4.377  -5.554  0.00  0.00    -0.166 F 
ATOM     35  F   UNL     1       2.509  -5.147  -6.264  0.00  0.00    -0.166 F 
ATOM     36  F   UNL     1       2.101  -4.893  -4.030  0.00  0.00    -0.166 F 
ENDBRANCH  28  33
ENDBRANCH  24  26
ENDBRANCH  19  21
ENDBRANCH   1  19
TORSDOF 6
