REMARK  Name = ZINC44018933
REMARK  3 active torsions:
REMARK  status: ('A' for Active; 'I' for Inactive)
REMARK    1  A    between atoms: N_10  and  C_11
REMARK    2  A    between atoms: N_15  and  C_20
REMARK    3  A    between atoms: C_20  and  C_21
REMARK                            x       y       z     vdW  Elec       q    Type
REMARK                         _______ _______ _______ _____ _____    ______ ____
ROOT
ATOM      1  C   UNL     1       4.785   0.046  -0.335  0.00  0.00    +0.112 A 
ATOM      2  C   UNL     1       5.996  -0.584  -0.261  0.00  0.00    +0.112 A 
ATOM      3  C   UNL     1       7.160   0.141  -0.562  0.00  0.00    +0.259 A 
ATOM      4  O   UNL     1       8.251  -0.400  -0.503  0.00  0.00    -0.267 OA
ATOM      5  N   UNL     1       7.064   1.437  -0.917  0.00  0.00    -0.257 N 
ATOM      6  C   UNL     1       5.864   2.042  -0.984  0.00  0.00    +0.331 A 
ATOM      7  O   UNL     1       5.801   3.212  -1.306  0.00  0.00    -0.246 OA
ATOM      8  N   UNL     1       4.733   1.368  -0.706  0.00  0.00    -0.295 N 
ATOM      9  H   UNL     1       3.876   1.820  -0.764  0.00  0.00    +0.172 HD
ENDROOT
BRANCH   1  19
ATOM     10  C   UNL     1       1.666  -2.756  -3.049  0.00  0.00    +0.000 A 
ATOM     11  C   UNL     1       2.655  -1.845  -3.374  0.00  0.00    +0.002 A 
ATOM     12  C   UNL     1       3.301  -1.145  -2.376  0.00  0.00    +0.024 A 
ATOM     13  C   UNL     1       2.958  -1.355  -1.044  0.00  0.00    +0.038 A 
ATOM     14  C   UNL     1       1.966  -2.266  -0.719  0.00  0.00    -0.026 A 
ATOM     15  C   UNL     1       1.323  -2.966  -1.727  0.00  0.00    +0.005 A 
ATOM     16  C   UNL     1       1.561  -2.511   0.711  0.00  0.00    +0.038 C 
ATOM     17  C   UNL     1       2.669  -2.067   1.665  0.00  0.00    +0.024 C 
ATOM     18  C   UNL     1       3.077  -0.629   1.316  0.00  0.00    +0.113 C 
ATOM     19  N   UNL     1       3.630  -0.638  -0.046  0.00  0.00    -0.286 N 
ENDBRANCH   1  19
BRANCH   5  20
ATOM     20  C   UNL     1       8.278   2.195  -1.232  0.00  0.00    +0.165 C 
BRANCH  20  21
ATOM     21  C   UNL     1       8.579   2.073  -2.704  0.00  0.00    -0.027 A 
ATOM     22  C   UNL     1       9.376   1.041  -3.163  0.00  0.00    +0.008 A 
ATOM     23  C   UNL     1       9.652   0.928  -4.512  0.00  0.00    +0.038 A 
ATOM     24  C   UNL     1       9.130   1.849  -5.404  0.00  0.00    +0.123 A 
ATOM     25  C   UNL     1       8.332   2.882  -4.943  0.00  0.00    +0.038 A 
ATOM     26  C   UNL     1       8.053   2.990  -3.594  0.00  0.00    +0.008 A 
ATOM     27  F   UNL     1       9.399   1.740  -6.724  0.00  0.00    -0.205 F 
ENDBRANCH  20  21
ENDBRANCH   5  20
TORSDOF 3
