REMARK  Name = ZINC06193196
REMARK  16 active torsions:
REMARK  status: ('A' for Active; 'I' for Inactive)
REMARK    1  A    between atoms: C_1  and  C_2
REMARK    2  A    between atoms: C_2  and  N_72
REMARK    3  A    between atoms: C_3  and  C_4
REMARK    4  A    between atoms: C_3  and  N_72
REMARK    5  A    between atoms: C_5  and  C_6
REMARK    6  A    between atoms: C_5  and  N_72
REMARK    7  A    between atoms: C_6  and  C_7
REMARK    8  A    between atoms: C_7  and  N_8
REMARK    9  A    between atoms: N_8  and  C_9
REMARK   10  A    between atoms: C_9  and  N_11
REMARK   11  A    between atoms: N_11  and  C_12
REMARK   12  A    between atoms: N_11  and  C_22
REMARK   13  A    between atoms: C_12  and  C_13
REMARK   14  A    between atoms: C_22  and  C_23
REMARK   15  A    between atoms: C_26  and  C_36
REMARK   16  A    between atoms: C_29  and  C_35
REMARK                            x       y       z     vdW  Elec       q    Type
REMARK                         _______ _______ _______ _____ _____    ______ ____
ROOT
ATOM      1  N   UNL     1      -2.248   0.456   1.110  0.00  0.00    -0.304 N 
ENDROOT
BRANCH   1   2
ATOM      2  C   UNL     1      -2.909   1.431   1.765  0.00  0.00    +0.133 C 
ATOM      3  S   UNL     1      -2.929   1.451   3.477  0.00  0.00    -0.019 S 
BRANCH   2   4
ATOM      4  N   UNL     1      -3.554   2.390   1.072  0.00  0.00    -0.326 N 
ATOM      5  H   UNL     1      -3.543   2.379   0.102  0.00  0.00    +0.148 HD
BRANCH   4   6
ATOM      6  C   UNL     1      -4.272   3.450   1.783  0.00  0.00    +0.101 C 
BRANCH   6   7
ATOM      7  C   UNL     1      -4.911   4.402   0.770  0.00  0.00    +0.000 C 
BRANCH   7   8
ATOM      8  C   UNL     1      -5.661   5.510   1.513  0.00  0.00    -0.077 C 
BRANCH   8   9
ATOM      9  N   UNL     1      -6.254   6.432   0.522  0.00  0.00    +0.379 N 
ATOM     10  H   UNL     1      -5.524   6.729  -0.136  0.00  0.00    -0.082 HD
BRANCH   9  12
ATOM     11  C   UNL     1      -8.460   5.331   0.711  0.00  0.00    -0.017 C 
ATOM     12  C   UNL     1      -7.326   5.745  -0.230  0.00  0.00    -0.082 C 
ENDBRANCH   9  12
BRANCH   9  13
ATOM     13  C   UNL     1      -6.800   7.624   1.204  0.00  0.00    -0.082 C 
ATOM     14  C   UNL     1      -7.145   8.680   0.151  0.00  0.00    -0.017 C 
ENDBRANCH   9  13
ENDBRANCH   8   9
ENDBRANCH   7   8
ENDBRANCH   6   7
ENDBRANCH   4   6
ENDBRANCH   2   4
ENDBRANCH   1   2
BRANCH   1  15
ATOM     15  C   UNL     1      -2.164   0.482  -0.352  0.00  0.00    +0.142 C 
BRANCH  15  16
ATOM     16  C   UNL     1      -0.975   1.307  -0.772  0.00  0.00    -0.026 A 
ATOM     17  C   UNL     1       0.275   0.723  -0.857  0.00  0.00    +0.009 A 
ATOM     18  C   UNL     1       1.367   1.475  -1.247  0.00  0.00    +0.050 A 
ATOM     19  C   UNL     1       1.212   2.818  -1.549  0.00  0.00    +0.166 A 
ATOM     20  C   UNL     1      -0.046   3.408  -1.458  0.00  0.00    +0.167 A 
ATOM     21  C   UNL     1      -1.136   2.648  -1.066  0.00  0.00    +0.054 A 
ATOM     22  O   UNL     1       0.063   4.724  -1.804  0.00  0.00    -0.453 OA
ATOM     23  C   UNL     1       1.319   4.836  -2.499  0.00  0.00    +0.466 C 
ATOM     24  O   UNL     1       2.110   3.765  -1.951  0.00  0.00    -0.453 OA
ENDBRANCH  15  16
ENDBRANCH   1  15
BRANCH   1  25
ATOM     25  C   UNL     1      -1.614  -0.631   1.861  0.00  0.00    +0.147 C 
BRANCH  25  26
ATOM     26  C   UNL     1      -2.543  -1.817   1.910  0.00  0.00    +0.035 A 
ATOM     27  C   UNL     1      -2.407  -2.818   1.006  0.00  0.00    +0.020 A 
ATOM     28  C   UNL     1      -3.325  -3.957   1.080  0.00  0.00    +0.002 A 
ATOM     29  C   UNL     1      -3.234  -5.020   0.175  0.00  0.00    -0.041 A 
ATOM     30  C   UNL     1      -4.106  -6.067   0.271  0.00  0.00    +0.004 A 
ATOM     31  C   UNL     1      -5.082  -6.085   1.258  0.00  0.00    +0.005 A 
ATOM     32  C   UNL     1      -5.190  -5.049   2.160  0.00  0.00    -0.026 A 
ATOM     33  C   UNL     1      -4.314  -3.972   2.082  0.00  0.00    +0.052 A 
ATOM     34  N   UNL     1      -4.399  -2.922   2.971  0.00  0.00    -0.322 N 
ATOM     35  H   UNL     1      -5.104  -2.933   3.681  0.00  0.00    +0.169 HD
ATOM     36  C   UNL     1      -3.547  -1.883   2.899  0.00  0.00    +0.254 A 
ATOM     37  O   UNL     1      -3.649  -0.975   3.705  0.00  0.00    -0.268 OA
ATOM     38  C   UNL     1      -6.255  -5.082   3.227  0.00  0.00    +0.046 C 
ATOM     39  C   UNL     1      -2.179  -5.010  -0.900  0.00  0.00    +0.044 C 
ENDBRANCH  25  26
ENDBRANCH   1  25
TORSDOF 12
