REMARK  Name = ZINC32419195
REMARK  6 active torsions:
REMARK  status: ('A' for Active; 'I' for Inactive)
REMARK    1  A    between atoms: C_1  and  C_2
REMARK    2  A    between atoms: C_2  and  C_3
REMARK    3  A    between atoms: C_2  and  C_4
REMARK    4  A    between atoms: C_2  and  C_5
REMARK    5  A    between atoms: C_11  and  N_13
REMARK    6  A    between atoms: C_14  and  C_16
REMARK                            x       y       z     vdW  Elec       q    Type
REMARK                         _______ _______ _______ _____ _____    ______ ____
ROOT
ATOM      1  N   UNL     1      -3.778   2.842  -0.251  0.00  0.00    -0.307 N 
ATOM      2  C   UNL     1      -2.808   1.962  -0.568  0.00  0.00    +0.261 C 
ATOM      3  O   UNL     1      -3.095   0.806  -0.820  0.00  0.00    -0.269 OA
ATOM      4  H   UNL     1      -3.519   3.887  -0.023  0.00  0.00    +0.149 HD
ENDROOT
BRANCH   2   5
ATOM      5  C   UNL     1      -1.408   2.396  -0.610  0.00  0.00    +0.103 A 
ATOM      6  C   UNL     1      -0.319   1.607  -0.917  0.00  0.00    +0.047 A 
ATOM      7  C   UNL     1       0.814   2.425  -0.844  0.00  0.00    +0.036 A 
ATOM      8  C   UNL     1       0.406   3.669  -0.496  0.00  0.00    +0.098 A 
ATOM      9  N   UNL     1      -0.942   3.664  -0.347  0.00  0.00    -0.356 N 
ATOM     10  H   UNL     1      -1.645   4.463  -0.071  0.00  0.00    +0.165 HD
ATOM     11 BR   UNL     1       2.597   1.888  -1.173  0.00  0.00    -0.049 Br
ENDBRANCH   2   5
BRANCH   1  17
ATOM     12  C   UNL     1      -5.938   3.240   0.826  0.00  0.00    +0.015 C 
ATOM     13  C   UNL     1      -5.874   4.719   0.440  0.00  0.00    +0.006 C 
ATOM     14  C   UNL     1      -6.510   4.913  -0.938  0.00  0.00    +0.000 C 
ATOM     15  C   UNL     1      -5.749   4.082  -1.973  0.00  0.00    +0.002 C 
ATOM     16  C   UNL     1      -5.812   2.603  -1.587  0.00  0.00    +0.022 C 
ATOM     17  C   UNL     1      -5.177   2.409  -0.209  0.00  0.00    +0.077 C 
BRANCH  12  19
ATOM     18  C   UNL     1      -3.891   3.638   2.203  0.00  0.00    +0.011 C 
ATOM     19  C   UNL     1      -5.302   3.045   2.204  0.00  0.00    -0.033 C 
ATOM     20  C   UNL     1      -6.151   3.751   3.263  0.00  0.00    +0.011 C 
ATOM     21  C   UNL     1      -5.226   1.551   2.525  0.00  0.00    +0.011 C 
ENDBRANCH  12  19
ENDBRANCH   1  17
TORSDOF 3
