REMARK  Name = ZINC13065123
REMARK  14 active torsions:
REMARK  status: ('A' for Active; 'I' for Inactive)
REMARK    1  A    between atoms: C_1  and  C_2
REMARK    2  A    between atoms: C_2  and  C_3
REMARK    3  A    between atoms: C_3  and  C_5
REMARK    4  A    between atoms: C_3  and  N_70
REMARK    5  A    between atoms: N_9  and  C_10
REMARK    6  A    between atoms: C_10  and  C_11
REMARK    7  A    between atoms: C_16  and  C_17
REMARK    8  A    between atoms: C_16  and  N_70
REMARK    9  A    between atoms: C_20  and  O_23
REMARK   10  A    between atoms: O_23  and  C_24
REMARK   11  A    between atoms: C_25  and  C_26
REMARK   12  A    between atoms: C_25  and  N_70
REMARK   13  A    between atoms: C_31  and  C_39
REMARK   14  A    between atoms: C_32  and  C_38
REMARK                            x       y       z     vdW  Elec       q    Type
REMARK                         _______ _______ _______ _____ _____    ______ ____
ROOT
ATOM      1  N   UNL     1      -1.681   3.183  -1.794  0.00  0.00    +0.392 N 
ATOM      2  H   UNL     1      -1.170   3.606  -2.577  0.00  0.00    -0.080 HD
ENDROOT
BRANCH   1   3
ATOM      3  C   UNL     1      -2.066   1.804  -2.159  0.00  0.00    +0.003 C 
BRANCH   3   4
ATOM      4  C   UNL     1      -2.263   1.741  -3.652  0.00  0.00    +0.139 A 
ATOM      5  N   UNL     1      -2.686   2.709  -4.427  0.00  0.00    -0.115 NA
ATOM      6  N   UNL     1      -2.720   2.266  -5.636  0.00  0.00    -0.023 NA
ATOM      7  N   UNL     1      -2.329   1.039  -5.653  0.00  0.00    -0.044 NA
ATOM      8  N   UNL     1      -2.034   0.681  -4.449  0.00  0.00    -0.223 N 
BRANCH   8   9
ATOM      9  C   UNL     1      -1.544  -0.634  -4.028  0.00  0.00    +0.221 C 
BRANCH   9  10
ATOM     10  C   UNL     1      -2.712  -1.562  -3.818  0.00  0.00    +0.126 A 
ATOM     11  C   UNL     1      -3.265  -2.354  -4.754  0.00  0.00    +0.046 A 
ATOM     12  C   UNL     1      -4.325  -3.050  -4.128  0.00  0.00    +0.041 A 
ATOM     13  C   UNL     1      -4.360  -2.636  -2.848  0.00  0.00    +0.195 A 
ATOM     14  O   UNL     1      -3.381  -1.734  -2.667  0.00  0.00    -0.466 OA
ENDBRANCH   9  10
ENDBRANCH   8   9
ENDBRANCH   3   4
BRANCH   3  16
ATOM     15  C   UNL     1      -3.122   1.315   0.052  0.00  0.00    +0.002 C 
ATOM     16  C   UNL     1      -3.366   1.409  -1.456  0.00  0.00    -0.011 C 
ENDBRANCH   3  16
ENDBRANCH   1   3
BRANCH   1  17
ATOM     17  C   UNL     1      -2.890   3.989  -1.519  0.00  0.00    -0.042 C 
BRANCH  17  18
ATOM     18  C   UNL     1      -3.547   4.337  -2.830  0.00  0.00    -0.064 A 
ATOM     19  C   UNL     1      -3.050   5.375  -3.597  0.00  0.00    +0.005 A 
ATOM     20  C   UNL     1      -3.647   5.692  -4.801  0.00  0.00    +0.046 A 
ATOM     21  C   UNL     1      -4.753   4.975  -5.236  0.00  0.00    +0.120 A 
ATOM     22  C   UNL     1      -5.253   3.938  -4.463  0.00  0.00    +0.046 A 
ATOM     23  C   UNL     1      -4.648   3.621  -3.261  0.00  0.00    +0.005 A 
BRANCH  21  24
ATOM     24  O   UNL     1      -5.345   5.289  -6.419  0.00  0.00    -0.495 OA
ATOM     25  C   UNL     1      -4.777   6.369  -7.163  0.00  0.00    +0.277 C 
ENDBRANCH  21  24
ENDBRANCH  17  18
ENDBRANCH   1  17
BRANCH   1  26
ATOM     26  C   UNL     1      -0.805   3.165  -0.603  0.00  0.00    -0.036 C 
BRANCH  26  27
ATOM     27  C   UNL     1       0.601   2.852  -1.045  0.00  0.00    +0.001 A 
ATOM     28  C   UNL     1       1.453   3.861  -1.351  0.00  0.00    +0.017 A 
ATOM     29  C   UNL     1       2.811   3.524  -1.783  0.00  0.00    -0.001 A 
ATOM     30  C   UNL     1       3.735   4.521  -2.112  0.00  0.00    +0.010 A 
ATOM     31  C   UNL     1       4.994   4.173  -2.511  0.00  0.00    +0.004 A 
ATOM     32  C   UNL     1       5.365   2.838  -2.594  0.00  0.00    -0.046 A 
ATOM     33  C   UNL     1       4.471   1.839  -2.274  0.00  0.00    -0.024 A 
ATOM     34  C   UNL     1       3.183   2.169  -1.865  0.00  0.00    +0.052 A 
ATOM     35  N   UNL     1       2.270   1.190  -1.539  0.00  0.00    -0.322 N 
ATOM     36  H   UNL     1       2.528   0.257  -1.596  0.00  0.00    +0.169 HD
ATOM     37  C   UNL     1       1.025   1.509  -1.143  0.00  0.00    +0.251 A 
ATOM     38  O   UNL     1       0.243   0.617  -0.863  0.00  0.00    -0.268 OA
ATOM     39  C   UNL     1       4.888   0.393  -2.367  0.00  0.00    +0.046 C 
ATOM     40  C   UNL     1       6.759   2.478  -3.037  0.00  0.00    +0.044 C 
ENDBRANCH  26  27
ENDBRANCH   1  26
TORSDOF 10
