REMARK  Name = ZINC39934799
REMARK  6 active torsions:
REMARK  status: ('A' for Active; 'I' for Inactive)
REMARK    1  A    between atoms: C_1  and  C_2
REMARK    2  A    between atoms: C_8  and  C_11
REMARK    3  A    between atoms: C_11  and  C_26
REMARK    4  A    between atoms: C_12  and  C_13
REMARK    5  A    between atoms: C_16  and  C_18
REMARK    6  A    between atoms: C_21  and  C_24
REMARK                            x       y       z     vdW  Elec       q    Type
REMARK                         _______ _______ _______ _____ _____    ______ ____
ROOT
ATOM      1  C   UNL     1      -1.918  -5.118   0.169  0.00  0.00    +0.071 C 
ATOM      2  C   UNL     1      -2.547  -6.246   0.585  0.00  0.00    +0.064 C 
ENDROOT
BRANCH   1   9
ATOM      3  C   UNL     1      -0.018   1.503   0.010  0.00  0.00    +0.043 C 
ATOM      4  C   UNL     1       0.002  -0.004   0.002  0.00  0.00    -0.052 C 
ATOM      5  C   UNL     1      -1.159  -0.675   0.004  0.00  0.00    +0.001 C 
ATOM      6  C   UNL     1      -1.074  -2.177  -0.008  0.00  0.00    +0.128 C 
ATOM      7  C   UNL     1       0.242  -2.793   0.432  0.00  0.00    +0.059 C 
ATOM      8  N   UNL     1      -0.010  -3.887   1.070  0.00  0.00    -0.262 NA
ATOM      9  C   UNL     1      -1.463  -4.094   1.177  0.00  0.00    +0.214 C 
ATOM     10  N   UNL     1      -2.093  -2.772   0.869  0.00  0.00    -0.279 NA
ATOM     11  C   UNL     1       1.409  -2.026   0.176  0.00  0.00    +0.025 C 
ATOM     12  C   UNL     1       1.284  -0.699  -0.014  0.00  0.00    +0.005 C 
ATOM     13  H   UNL     1      -2.209  -2.227   1.710  0.00  0.00    +0.125 HD
ENDBRANCH   1   9
BRANCH   2  14
ATOM     14  C   UNL     1      -2.974  -7.207  -0.362  0.00  0.00    +0.130 A 
ATOM     15  C   UNL     1      -3.628  -8.390  -0.075  0.00  0.00    +0.050 A 
ATOM     16  C   UNL     1      -3.861  -9.030  -1.296  0.00  0.00    +0.050 A 
ATOM     17  C   UNL     1      -3.344  -8.218  -2.280  0.00  0.00    +0.136 A 
ATOM     18  O   UNL     1      -2.820  -7.123  -1.699  0.00  0.00    -0.455 OA
BRANCH  17  19
ATOM     19  C   UNL     1      -3.366  -8.497  -3.727  0.00  0.00    +0.017 A 
ATOM     20  C   UNL     1      -3.955  -9.673  -4.204  0.00  0.00    +0.013 A 
ATOM     21  C   UNL     1      -3.976  -9.932  -5.544  0.00  0.00    +0.019 A 
ATOM     22  C   UNL     1      -3.409  -9.021  -6.441  0.00  0.00    +0.052 A 
ATOM     23  C   UNL     1      -2.819  -7.846  -5.965  0.00  0.00    +0.019 A 
ATOM     24  C   UNL     1      -2.803  -7.584  -4.625  0.00  0.00    +0.013 A 
BRANCH  22  25
ATOM     25  C   UNL     1      -3.430  -9.293  -7.847  0.00  0.00    +0.099 C 
ATOM     26  N   UNL     1      -3.447  -9.509  -8.962  0.00  0.00    -0.191 NA
ENDBRANCH  22  25
ENDBRANCH  17  19
ENDBRANCH   2  14
BRANCH   1  27
ATOM     27  C   UNL     1      -1.688  -4.899  -1.227  0.00  0.00    +0.098 C 
ATOM     28  N   UNL     1      -1.505  -4.726  -2.335  0.00  0.00    -0.191 NA
ENDBRANCH   1  27
TORSDOF 5
