REMARK  Name = ZINC10014833
REMARK  12 active torsions:
REMARK  status: ('A' for Active; 'I' for Inactive)
REMARK    1  A    between atoms: C_1  and  C_2
REMARK    2  A    between atoms: C_2  and  O_3
REMARK    3  A    between atoms: O_3  and  C_4
REMARK    4  A    between atoms: C_4  and  C_6
REMARK    5  A    between atoms: C_7  and  C_22
REMARK    6  A    between atoms: C_12  and  C_14
REMARK    7  A    between atoms: C_17  and  O_20
REMARK    8  A    between atoms: O_20  and  C_21
REMARK    9  A    between atoms: C_22  and  S_23
REMARK   10  A    between atoms: S_23  and  C_24
REMARK   11  A    between atoms: C_27  and  C_35
REMARK   12  A    between atoms: N_28  and  C_29
REMARK                            x       y       z     vdW  Elec       q    Type
REMARK                         _______ _______ _______ _____ _____    ______ ____
ROOT
ATOM      1  C   UNL     1       4.222   7.051  -1.128  0.00  0.00    +0.079 C 
ATOM      2  C   UNL     1       3.540   6.858   0.022  0.00  0.00    +0.034 C 
ATOM      3  N   UNL     1       4.191   6.574   1.188  0.00  0.00    -0.272 N 
ATOM      4  C   UNL     1       5.522   6.473   1.290  0.00  0.00    +0.304 C 
ATOM      5  O   UNL     1       6.011   6.217   2.373  0.00  0.00    -0.252 OA
ATOM      6  N   UNL     1       6.338   6.645   0.230  0.00  0.00    -0.288 N 
ATOM      7  C   UNL     1       5.733   6.954  -1.076  0.00  0.00    +0.144 C 
ATOM      8  H   UNL     1       3.659   6.439   1.988  0.00  0.00    +0.156 HD
ATOM      9  H   UNL     1       7.300   6.566   0.326  0.00  0.00    +0.151 HD
ENDROOT
BRANCH   7  10
ATOM     10  C   UNL     1       6.303   8.265  -1.553  0.00  0.00    -0.022 A 
ATOM     11  C   UNL     1       6.497   9.300  -0.657  0.00  0.00    +0.009 A 
ATOM     12  C   UNL     1       7.025  10.501  -1.091  0.00  0.00    +0.046 A 
ATOM     13  C   UNL     1       7.350  10.671  -2.429  0.00  0.00    +0.120 A 
ATOM     14  C   UNL     1       7.150   9.633  -3.327  0.00  0.00    +0.046 A 
ATOM     15  C   UNL     1       6.627   8.432  -2.887  0.00  0.00    +0.009 A 
BRANCH  13  16
ATOM     16  O   UNL     1       7.864  11.854  -2.859  0.00  0.00    -0.495 OA
ATOM     17  C   UNL     1       8.043  12.878  -1.879  0.00  0.00    +0.277 C 
ENDBRANCH  13  16
ENDBRANCH   7  10
BRANCH   1  18
ATOM     18  C   UNL     1       3.549   7.339  -2.338  0.00  0.00    +0.339 C 
ATOM     19  O   UNL     1       2.352   7.561  -2.331  0.00  0.00    -0.245 OA
BRANCH  18  20
ATOM     20  O   UNL     1       4.233   7.368  -3.501  0.00  0.00    -0.462 OA
BRANCH  20  22
ATOM     21  C   UNL     1       4.427   7.653  -5.893  0.00  0.00    +0.048 C 
ATOM     22  C   UNL     1       3.489   7.665  -4.684  0.00  0.00    +0.229 C 
ENDBRANCH  20  22
ENDBRANCH  18  20
ENDBRANCH   1  18
BRANCH   2  23
ATOM     23  C   UNL     1       2.036   6.950   0.016  0.00  0.00    +0.128 C 
BRANCH  23  24
ATOM     24  S   UNL     1       1.529   8.579   0.623  0.00  0.00    -0.080 S 
BRANCH  24  25
ATOM     25  C   UNL     1      -0.222   8.415   0.513  0.00  0.00    +0.192 A 
ATOM     26  N   UNL     1      -0.882   7.360   0.095  0.00  0.00    -0.122 NA
ATOM     27  N   UNL     1      -2.146   7.590   0.141  0.00  0.00    -0.134 NA
ATOM     28  C   UNL     1      -2.366   8.793   0.592  0.00  0.00    +0.131 A 
ATOM     29  N   UNL     1      -1.148   9.360   0.848  0.00  0.00    -0.303 N 
ATOM     30  C   UNL     1      -3.712   9.439   0.795  0.00  0.00    +0.088 C 
BRANCH  29  31
ATOM     31  C   UNL     1      -0.891  10.706   1.369  0.00  0.00    +0.091 C 
ATOM     32  C   UNL     1      -0.130  10.604   2.692  0.00  0.00    +0.025 C 
ATOM     33  C   UNL     1       0.139  12.009   3.235  0.00  0.00    +0.002 C 
ATOM     34  C   UNL     1       0.977  12.794   2.225  0.00  0.00    +0.000 C 
ATOM     35  C   UNL     1       0.216  12.896   0.901  0.00  0.00    +0.002 C 
ATOM     36  C   UNL     1      -0.053  11.492   0.358  0.00  0.00    +0.025 C 
ENDBRANCH  29  31
ENDBRANCH  24  25
ENDBRANCH  23  24
ENDBRANCH   2  23
TORSDOF 9
