REMARK  Name = ZINC16590084
REMARK  11 active torsions:
REMARK  status: ('A' for Active; 'I' for Inactive)
REMARK    1  A    between atoms: C_1  and  C_2
REMARK    2  A    between atoms: C_2  and  C_3
REMARK    3  A    between atoms: C_3  and  N_4
REMARK    4  A    between atoms: N_4  and  C_5
REMARK    5  A    between atoms: N_4  and  C_18
REMARK    6  A    between atoms: C_5  and  C_6
REMARK    7  A    between atoms: N_8  and  C_9
REMARK    8  A    between atoms: C_18  and  C_19
REMARK    9  A    between atoms: N_24  and  C_25
REMARK   10  A    between atoms: C_25  and  C_26
REMARK   11  A    between atoms: C_25  and  C_27
REMARK                            x       y       z     vdW  Elec       q    Type
REMARK                         _______ _______ _______ _____ _____    ______ ____
ROOT
ATOM      1  N   UNL     1      -1.367  -1.978  -0.125  0.00  0.00    +0.391 N 
ATOM      2  H   UNL     1      -0.743  -2.194  -0.888  0.00  0.00    -0.080 HD
ENDROOT
BRANCH   1   3
ATOM      3  C   UNL     1      -1.454  -0.521   0.040  0.00  0.00    -0.078 C 
BRANCH   3   5
ATOM      4  C   UNL     1      -0.126   1.585   0.247  0.00  0.00    +0.002 C 
ATOM      5  C   UNL     1      -0.048   0.058   0.209  0.00  0.00    -0.022 C 
ENDBRANCH   3   5
ENDBRANCH   1   3
BRANCH   1   6
ATOM      6  C   UNL     1      -0.854  -2.581   1.113  0.00  0.00    +0.020 C 
BRANCH   6   7
ATOM      7  C   UNL     1      -0.594  -4.048   0.887  0.00  0.00    +0.201 C 
ATOM      8  O   UNL     1      -0.871  -4.556  -0.179  0.00  0.00    -0.278 OA
ATOM      9  N   UNL     1      -0.054  -4.796   1.870  0.00  0.00    -0.285 N 
ATOM     10  H   UNL     1       0.109  -4.406   2.742  0.00  0.00    +0.155 HD
BRANCH   9  11
ATOM     11  C   UNL     1       0.272  -6.138   1.630  0.00  0.00    +0.072 A 
ATOM     12  C   UNL     1       0.695  -6.536   0.369  0.00  0.00    +0.029 A 
ATOM     13  C   UNL     1       1.016  -7.859   0.134  0.00  0.00    +0.043 A 
ATOM     14  C   UNL     1       0.917  -8.790   1.154  0.00  0.00    +0.161 A 
ATOM     15  C   UNL     1       0.495  -8.397   2.415  0.00  0.00    +0.195 A 
ATOM     16  C   UNL     1       0.178  -7.071   2.656  0.00  0.00    +0.182 A 
ATOM     17  F   UNL     1      -0.228  -6.685   3.886  0.00  0.00    -0.200 F 
ATOM     18  F   UNL     1       0.398  -9.307   3.409  0.00  0.00    -0.199 F 
ATOM     19  F   UNL     1       1.232 -10.083   0.920  0.00  0.00    -0.202 F 
ENDBRANCH   9  11
ENDBRANCH   6   7
ENDBRANCH   1   6
BRANCH   1  20
ATOM     20  C   UNL     1      -2.701  -2.519  -0.416  0.00  0.00    +0.020 C 
BRANCH  20  21
ATOM     21  C   UNL     1      -3.176  -1.995  -1.747  0.00  0.00    +0.204 C 
ATOM     22  O   UNL     1      -2.471  -1.246  -2.390  0.00  0.00    -0.277 OA
ATOM     23  N   UNL     1      -4.383  -2.359  -2.224  0.00  0.00    -0.242 N 
ATOM     24  C   UNL     1      -4.807  -1.891  -3.414  0.00  0.00    +0.306 C 
ATOM     25  O   UNL     1      -4.101  -1.140  -4.058  0.00  0.00    -0.252 OA
ATOM     26  N   UNL     1      -6.014  -2.256  -3.890  0.00  0.00    -0.297 N 
ATOM     27  H   UNL     1      -4.946  -2.959  -1.710  0.00  0.00    +0.159 HD
ATOM     28  H   UNL     1      -6.577  -2.855  -3.376  0.00  0.00    +0.151 HD
BRANCH  26  29
ATOM     29  C   UNL     1      -6.475  -1.746  -5.184  0.00  0.00    +0.068 C 
ATOM     30  C   UNL     1      -5.928  -2.632  -6.305  0.00  0.00    +0.027 C 
ATOM     31  C   UNL     1      -8.004  -1.761  -5.223  0.00  0.00    +0.027 C 
ENDBRANCH  26  29
ENDBRANCH  20  21
ENDBRANCH   1  20
TORSDOF 8
