REMARK  Name = ZINC38578021
REMARK  7 active torsions:
REMARK  status: ('A' for Active; 'I' for Inactive)
REMARK    1  A    between atoms: C_1  and  C_2
REMARK    2  A    between atoms: C_4  and  C_30
REMARK    3  A    between atoms: C_5  and  O_29
REMARK    4  A    between atoms: C_6  and  C_8
REMARK    5  A    between atoms: C_11  and  C_13
REMARK    6  A    between atoms: N_15  and  C_16
REMARK    7  A    between atoms: C_18  and  C_27
REMARK                            x       y       z     vdW  Elec       q    Type
REMARK                         _______ _______ _______ _____ _____    ______ ____
ROOT
ATOM      1  C   UNL     1       0.052  -2.840   2.447  0.00  0.00    +0.080 C 
ATOM      2  N   UNL     1       0.076  -4.144   2.609  0.00  0.00    -0.153 NA
ATOM      3  N   UNL     1       0.086  -4.520   3.827  0.00  0.00    -0.148 NA
ATOM      4  C   UNL     1       0.070  -3.542   4.695  0.00  0.00    +0.131 C 
ATOM      5  C   UNL     1       0.052  -2.273   3.857  0.00  0.00    +0.120 C 
ENDROOT
BRANCH   1  11
ATOM      6  C   UNL     1      -0.018   1.503   0.010  0.00  0.00    +0.044 C 
ATOM      7  C   UNL     1       0.002  -0.004   0.002  0.00  0.00    -0.049 A 
ATOM      8  C   UNL     1       0.006  -0.687  -1.205  0.00  0.00    +0.010 A 
ATOM      9  C   UNL     1       0.024  -2.068  -1.229  0.00  0.00    -0.008 A 
ATOM     10  C   UNL     1       0.040  -2.784  -0.042  0.00  0.00    +0.129 A 
ATOM     11  C   UNL     1       0.036  -2.097   1.185  0.00  0.00    +0.040 A 
ATOM     12  C   UNL     1       0.023  -0.695   1.192  0.00  0.00    +0.016 A 
ATOM     13  C   UNL     1       0.028  -2.797  -2.547  0.00  0.00    +0.047 C 
BRANCH  10  14
ATOM     14  O   UNL     1       0.057  -4.140  -0.064  0.00  0.00    -0.506 OA
ATOM     15  H   UNL     1       0.945  -4.522  -0.075  0.00  0.00    +0.292 HD
ENDBRANCH  10  14
ENDBRANCH   1  11
BRANCH   4  16
ATOM     16  C   UNL     1       0.075  -3.645   6.157  0.00  0.00    +0.261 C 
ATOM     17  O   UNL     1       0.058  -2.637   6.838  0.00  0.00    -0.269 OA
ATOM     18  N   UNL     1       0.098  -4.857   6.747  0.00  0.00    -0.294 N 
ATOM     19  H   UNL     1       0.112  -5.660   6.203  0.00  0.00    +0.150 HD
BRANCH  18  20
ATOM     20  C   UNL     1       0.103  -4.961   8.208  0.00  0.00    +0.173 C 
ATOM     21  C   UNL     1      -0.938  -5.954   8.689  0.00  0.00    +0.060 C 
ATOM     22  C   UNL     1      -2.053  -5.501   9.204  0.00  0.00    -0.041 C 
ATOM     23  C   UNL     1      -3.148  -6.362   9.835  0.00  0.00    +0.033 C 
ATOM     24  C   UNL     1      -4.364  -5.449  10.022  0.00  0.00    +0.004 C 
ATOM     25  C   UNL     1      -4.056  -4.273  10.938  0.00  0.00    +0.002 C 
ATOM     26  C   UNL     1      -2.679  -3.665  10.686  0.00  0.00    +0.019 C 
ATOM     27  C   UNL     1      -2.238  -3.977   9.254  0.00  0.00    +0.075 C 
ATOM     28  S   UNL     1      -0.510  -3.404   8.988  0.00  0.00    -0.125 S 
BRANCH  21  29
ATOM     29  C   UNL     1      -0.705  -7.363   8.583  0.00  0.00    +0.098 C 
ATOM     30  N   UNL     1      -0.520  -8.481   8.498  0.00  0.00    -0.191 NA
ENDBRANCH  21  29
ENDBRANCH  18  20
ENDBRANCH   4  16
TORSDOF 5
