REMARK  Name = ZINC48462146
REMARK  4 active torsions:
REMARK  status: ('A' for Active; 'I' for Inactive)
REMARK    1  A    between atoms: C_1  and  C_2
REMARK    2  A    between atoms: C_2  and  C_3
REMARK    3  A    between atoms: C_9  and  N_11
REMARK    4  A    between atoms: C_12  and  C_14
REMARK                            x       y       z     vdW  Elec       q    Type
REMARK                         _______ _______ _______ _____ _____    ______ ____
ROOT
ATOM      1  N   UNL     1      -0.484  -2.624  -1.134  0.00  0.00    -0.308 N 
ATOM      2  C   UNL     1      -0.643  -3.846  -0.589  0.00  0.00    +0.244 C 
ATOM      3  O   UNL     1       0.320  -4.448  -0.156  0.00  0.00    -0.270 OA
ATOM      4  H   UNL     1      -1.253  -2.143  -1.479  0.00  0.00    +0.149 HD
ENDROOT
BRANCH   2   5
ATOM      5  C   UNL     1      -1.986  -4.453  -0.517  0.00  0.00    +0.037 A 
ATOM      6  C   UNL     1      -3.097  -3.768  -1.018  0.00  0.00    +0.016 A 
ATOM      7  C   UNL     1      -4.347  -4.337  -0.955  0.00  0.00    +0.046 A 
ATOM      8  C   UNL     1      -4.520  -5.601  -0.389  0.00  0.00    +0.124 A 
ATOM      9  C   UNL     1      -3.412  -6.275   0.115  0.00  0.00    -0.002 A 
ATOM     10  C   UNL     1      -2.158  -5.721   0.048  0.00  0.00    +0.020 A 
ATOM     11  C   UNL     1      -3.912  -7.592   0.679  0.00  0.00    +0.080 C 
ATOM     12  C   UNL     1      -5.436  -7.344   0.764  0.00  0.00    +0.234 C 
ATOM     13  O   UNL     1      -5.653  -6.339  -0.240  0.00  0.00    -0.491 OA
ENDBRANCH   2   5
BRANCH   1  19
ATOM     14  C   UNL     1       0.718  -0.497  -1.257  0.00  0.00    +0.009 C 
ATOM     15  C   UNL     1      -0.089  -0.097  -2.493  0.00  0.00    +0.005 C 
ATOM     16  C   UNL     1       0.627  -0.590  -3.752  0.00  0.00    +0.000 C 
ATOM     17  C   UNL     1       0.758  -2.114  -3.700  0.00  0.00    +0.002 C 
ATOM     18  C   UNL     1       1.565  -2.514  -2.464  0.00  0.00    +0.022 C 
ATOM     19  C   UNL     1       0.849  -2.021  -1.205  0.00  0.00    +0.076 C 
BRANCH  14  21
ATOM     20  C   UNL     1      -0.019   1.526   0.010  0.00  0.00    +0.004 C 
ATOM     21  C   UNL     1       0.002  -0.004   0.002  0.00  0.00    +0.002 C 
ENDBRANCH  14  21
ENDBRANCH   1  19
TORSDOF 3
