REMARK  Name = ZINC49977334
REMARK  6 active torsions:
REMARK  status: ('A' for Active; 'I' for Inactive)
REMARK    1  A    between atoms: C_1  and  C_2
REMARK    2  A    between atoms: C_5  and  N_9
REMARK    3  A    between atoms: C_6  and  C_8
REMARK    4  A    between atoms: N_9  and  C_10
REMARK    5  A    between atoms: C_11  and  C_13
REMARK    6  A    between atoms: C_18  and  N_19
REMARK                            x       y       z     vdW  Elec       q    Type
REMARK                         _______ _______ _______ _____ _____    ______ ____
ROOT
ATOM      1  N   UNL     1      -0.084  -3.966   0.487  0.00  0.00    -0.270 N 
ATOM      2  C   UNL     1       1.198  -4.568   0.862  0.00  0.00    +0.138 C 
ATOM      3  C   UNL     1      -1.167  -4.748   0.303  0.00  0.00    +0.252 C 
ATOM      4  O   UNL     1      -2.206  -4.261  -0.102  0.00  0.00    -0.270 OA
ENDROOT
BRANCH   1   9
ATOM      5  C   UNL     1      -0.492   1.650  -0.192  0.00  0.00    +0.044 C 
ATOM      6  C   UNL     1      -0.384   0.158  -0.012  0.00  0.00    -0.050 A 
ATOM      7  C   UNL     1      -0.051  -0.645  -1.088  0.00  0.00    +0.005 A 
ATOM      8  C   UNL     1       0.050  -2.012  -0.926  0.00  0.00    +0.024 A 
ATOM      9  C   UNL     1      -0.184  -2.582   0.320  0.00  0.00    +0.039 A 
ATOM     10  C   UNL     1      -0.519  -1.773   1.398  0.00  0.00    -0.029 A 
ATOM     11  C   UNL     1      -0.612  -0.405   1.230  0.00  0.00    +0.008 A 
ATOM     12  C   UNL     1      -0.774  -2.386   2.751  0.00  0.00    +0.045 C 
ENDBRANCH   1   9
BRANCH   3  13
ATOM     13  C   UNL     1      -1.092  -6.191   0.592  0.00  0.00    +0.058 A 
ATOM     14  C   UNL     1      -0.493  -6.641   1.772  0.00  0.00    +0.016 A 
ATOM     15  C   UNL     1      -0.426  -7.991   2.036  0.00  0.00    +0.021 A 
ATOM     16  C   UNL     1      -0.951  -8.908   1.137  0.00  0.00    +0.043 A 
ATOM     17  C   UNL     1      -1.545  -8.478  -0.034  0.00  0.00    +0.043 A 
ATOM     18  C   UNL     1      -1.627  -7.121  -0.314  0.00  0.00    +0.038 A 
ATOM     19 CL   UNL     1      -0.858 -10.607   1.484  0.00  0.00    -0.083 Cl
BRANCH  18  20
ATOM     20  N   UNL     1      -2.230  -6.685  -1.487  0.00  0.00    -0.357 N 
ATOM     21  H   UNL     1      -2.316  -5.736  -1.664  0.00  0.00    +0.142 HD
ATOM     22  H   UNL     1      -2.564  -7.331  -2.129  0.00  0.00    +0.142 HD
ENDBRANCH  18  20
ENDBRANCH   3  13
TORSDOF 3
