REMARK  Name = ZINC47940159
REMARK  5 active torsions:
REMARK  status: ('A' for Active; 'I' for Inactive)
REMARK    1  A    between atoms: C_1  and  C_2
REMARK    2  A    between atoms: C_5  and  C_8
REMARK    3  A    between atoms: C_10  and  C_13
REMARK    4  A    between atoms: C_13  and  S_14
REMARK    5  A    between atoms: S_14  and  C_17
REMARK                            x       y       z     vdW  Elec       q    Type
REMARK                         _______ _______ _______ _____ _____    ______ ____
ROOT
ATOM      1  C   UNL     1       0.102  -7.482   1.642  0.00  0.00    +0.273 C 
ENDROOT
BRANCH   1   4
ATOM      2  C   UNL     1       0.059  -4.256  -0.021  0.00  0.00    +0.202 A 
ATOM      3  N   UNL     1       0.070  -5.047   1.067  0.00  0.00    -0.190 NA
ATOM      4  C   UNL     1       0.086  -6.299   0.708  0.00  0.00    +0.249 A 
ATOM      5  O   UNL     1       0.086  -6.357  -0.630  0.00  0.00    -0.336 OA
ATOM      6  N   UNL     1       0.064  -5.015  -1.090  0.00  0.00    -0.056 NA
BRANCH   2  11
ATOM      7  C   UNL     1      -0.018   1.503   0.010  0.00  0.00    +0.044 C 
ATOM      8  C   UNL     1       0.002  -0.004   0.002  0.00  0.00    -0.050 A 
ATOM      9  C   UNL     1       0.006  -0.686  -1.201  0.00  0.00    +0.004 A 
ATOM     10  C   UNL     1       0.024  -2.067  -1.214  0.00  0.00    +0.012 A 
ATOM     11  C   UNL     1       0.040  -2.772  -0.013  0.00  0.00    +0.022 A 
ATOM     12  C   UNL     1       0.036  -2.080   1.196  0.00  0.00    +0.012 A 
ATOM     13  C   UNL     1       0.023  -0.700   1.198  0.00  0.00    +0.004 A 
ENDBRANCH   2  11
ENDBRANCH   1   4
BRANCH   1  14
ATOM     14  S   UNL     1      -1.602  -7.979   2.018  0.00  0.00    +0.039 S 
ATOM     15  O   UNL     1      -2.244  -6.976   2.794  0.00  0.00    -0.166 OA
ATOM     16  O   UNL     1      -2.226  -8.505   0.855  0.00  0.00    -0.166 OA
BRANCH  14  17
ATOM     17  C   UNL     1      -1.443  -9.356   3.106  0.00  0.00    +0.250 A 
ATOM     18  N   UNL     1      -1.359 -10.655   2.711  0.00  0.00    -0.323 N 
ATOM     19  H   UNL     1      -1.375 -10.980   1.797  0.00  0.00    +0.169 HD
ATOM     20  C   UNL     1      -1.245 -11.424   3.852  0.00  0.00    +0.067 A 
ATOM     21  C   UNL     1      -1.126 -12.786   4.091  0.00  0.00    +0.028 A 
ATOM     22  C   UNL     1      -1.029 -13.245   5.388  0.00  0.00    +0.002 A 
ATOM     23  C   UNL     1      -1.050 -12.356   6.452  0.00  0.00    +0.002 A 
ATOM     24  C   UNL     1      -1.166 -11.012   6.236  0.00  0.00    +0.030 A 
ATOM     25  C   UNL     1      -1.265 -10.523   4.930  0.00  0.00    +0.091 A 
ATOM     26  N   UNL     1      -1.382  -9.278   4.403  0.00  0.00    -0.212 NA
ENDBRANCH  14  17
ENDBRANCH   1  14
TORSDOF 4
