REMARK  Name = ZINC65265663
REMARK  3 active torsions:
REMARK  status: ('A' for Active; 'I' for Inactive)
REMARK    1  A    between atoms: C_4  and  C_7
REMARK    2  A    between atoms: C_7  and  N_8
REMARK    3  A    between atoms: C_24  and  C_26
REMARK                            x       y       z     vdW  Elec       q    Type
REMARK                         _______ _______ _______ _____ _____    ______ ____
ROOT
ATOM      1  N   UNL     1       4.152  -0.952   1.338  0.00  0.00    -0.371 N 
ATOM      2  C   UNL     1       5.264  -1.574   1.560  0.00  0.00    +0.098 C 
ATOM      3  N   UNL     1       6.068  -2.018   0.524  0.00  0.00    -0.286 N 
ATOM      4  C   UNL     1       6.710  -3.253   0.681  0.00  0.00    +0.145 A 
ATOM      5  C   UNL     1       6.740  -3.869   1.933  0.00  0.00    +0.069 A 
ATOM      6  C   UNL     1       7.391  -5.086   2.075  0.00  0.00    +0.028 A 
ATOM      7  C   UNL     1       7.986  -5.649   0.953  0.00  0.00    +0.022 A 
ATOM      8  C   UNL     1       7.910  -4.988  -0.256  0.00  0.00    +0.113 A 
ATOM      9  N   UNL     1       7.287  -3.829  -0.361  0.00  0.00    -0.238 NA
ATOM     10  N   UNL     1       6.112  -3.277   3.037  0.00  0.00    -0.329 N 
ATOM     11  C   UNL     1       5.756  -1.849   2.965  0.00  0.00    +0.089 C 
ATOM     12  C   UNL     1       4.647  -1.537   3.967  0.00  0.00    +0.052 C 
ATOM     13  C   UNL     1       5.139  -1.850   5.384  0.00  0.00    +0.110 C 
ATOM     14  N   UNL     1       6.395  -1.124   5.619  0.00  0.00    -0.301 N 
ATOM     15  C   UNL     1       7.500  -1.296   4.665  0.00  0.00    +0.110 C 
ATOM     16  C   UNL     1       6.985  -0.990   3.255  0.00  0.00    +0.052 C 
ATOM     17  C   UNL     1       6.531  -0.316   6.689  0.00  0.00    +0.219 C 
ATOM     18  O   UNL     1       5.612  -0.182   7.468  0.00  0.00    -0.275 OA
ATOM     19  H   UNL     1       3.610  -0.648   2.082  0.00  0.00    +0.161 HD
ATOM     20  H   UNL     1       5.916  -3.797   3.833  0.00  0.00    +0.147 HD
ATOM     21  H   UNL     1       6.183  -1.492  -0.282  0.00  0.00    +0.155 HD
ENDROOT
BRANCH  17  22
ATOM     22  C   UNL     1       7.826   0.421   6.916  0.00  0.00    +0.075 C 
ATOM     23  C   UNL     1       8.974  -0.584   7.140  0.00  0.00    +0.013 C 
ATOM     24  C   UNL     1       9.864   0.089   8.215  0.00  0.00    +0.001 C 
ATOM     25  C   UNL     1       8.824   0.754   9.151  0.00  0.00    +0.001 C 
ATOM     26  C   UNL     1       7.731   1.272   8.194  0.00  0.00    +0.013 C 
ENDBRANCH  17  22
BRANCH   1  27
ATOM     27  C   UNL     1       3.711  -0.707  -0.038  0.00  0.00    +0.149 C 
BRANCH  27  31
ATOM     28  C   UNL     1      -0.017   1.378   0.010  0.00  0.00    +0.000 A 
ATOM     29  C   UNL     1       1.171   2.086   0.002  0.00  0.00    +0.000 A 
ATOM     30  C   UNL     1       2.377   1.411  -0.013  0.00  0.00    +0.005 A 
ATOM     31  C   UNL     1       2.396   0.029  -0.020  0.00  0.00    -0.028 A 
ATOM     32  C   UNL     1       1.208  -0.679  -0.012  0.00  0.00    +0.005 A 
ATOM     33  C   UNL     1       0.002  -0.004   0.002  0.00  0.00    +0.000 A 
ENDBRANCH  27  31
ENDBRANCH   1  27
TORSDOF 3
