REMARK  Name = ZINC04244017
REMARK  2 active torsions:
REMARK  status: ('A' for Active; 'I' for Inactive)
REMARK    1  A    between atoms: C_2  and  C_16
REMARK    2  A    between atoms: C_10  and  C_11
REMARK                            x       y       z     vdW  Elec       q    Type
REMARK                         _______ _______ _______ _____ _____    ______ ____
ROOT
ATOM      1  C   UNL     1      -0.017   1.383   0.010  0.00  0.00    +0.037 A 
ATOM      2  C   UNL     1       1.166   2.077   0.002  0.00  0.00    -0.028 A 
ATOM      3  C   UNL     1       2.359   1.349  -0.013  0.00  0.00    +0.063 A 
ATOM      4  C   UNL     1       3.776   1.711  -0.025  0.00  0.00    +0.147 A 
ATOM      5  N   UNL     1       4.465   0.601  -0.037  0.00  0.00    -0.157 NA
ATOM      6  N   UNL     1       3.603  -0.499  -0.035  0.00  0.00    -0.258 N 
ATOM      7  H   UNL     1       3.879  -1.429  -0.043  0.00  0.00    +0.191 HD
ATOM      8  C   UNL     1       2.307  -0.060  -0.020  0.00  0.00    +0.158 A 
ATOM      9  N   UNL     1       1.132  -0.678  -0.012  0.00  0.00    -0.224 NA
ATOM     10  C   UNL     1       0.002  -0.004   0.002  0.00  0.00    +0.146 A 
ATOM     11  N   UNL     1       4.298   3.007  -0.023  0.00  0.00    -0.341 N 
ATOM     12  H   UNL     1       3.699   3.770  -0.014  0.00  0.00    +0.144 HD
ATOM     13  H   UNL     1       5.258   3.143  -0.032  0.00  0.00    +0.144 HD
ENDROOT
BRANCH  10  14
ATOM     14  C   UNL     1      -1.303  -0.757   0.011  0.00  0.00    +0.434 C 
ATOM     15  F   UNL     1      -1.720  -0.983  -1.305  0.00  0.00    -0.164 F 
ATOM     16  F   UNL     1      -1.129  -1.983   0.662  0.00  0.00    -0.164 F 
ATOM     17  F   UNL     1      -2.271  -0.005   0.684  0.00  0.00    -0.164 F 
ENDBRANCH  10  14
BRANCH   2  18
ATOM     18  C   UNL     1       1.179   3.584   0.010  0.00  0.00    +0.020 C 
ATOM     19  C   UNL     1      -0.155   4.301   0.229  0.00  0.00    +0.009 C 
ATOM     20  C   UNL     1       0.496   4.302  -1.156  0.00  0.00    +0.009 C 
ENDBRANCH   2  18
TORSDOF 2
