REMARK  Name = ZINC49871937
REMARK  5 active torsions:
REMARK  status: ('A' for Active; 'I' for Inactive)
REMARK    1  A    between atoms: C_1  and  C_2
REMARK    2  A    between atoms: C_2  and  C_3
REMARK    3  A    between atoms: C_2  and  N_12
REMARK    4  A    between atoms: N_12  and  C_13
REMARK    5  A    between atoms: C_14  and  C_15
REMARK                            x       y       z     vdW  Elec       q    Type
REMARK                         _______ _______ _______ _____ _____    ______ ____
ROOT
ATOM      1  C   UNL     1      -0.013   1.086   0.008  0.00  0.00    +0.031 C 
ATOM      2  C   UNL     1      -0.753   1.593  -1.232  0.00  0.00    +0.091 C 
ENDROOT
BRANCH   2   3
ATOM      3  C   UNL     1      -2.167   1.071  -1.221  0.00  0.00    +0.099 A 
ATOM      4  C   UNL     1      -3.058   1.470  -0.233  0.00  0.00    +0.263 A 
ATOM      5  O   UNL     1      -2.670   2.322   0.719  0.00  0.00    -0.267 OA
ATOM      6  N   UNL     1      -4.329   0.986  -0.244  0.00  0.00    -0.275 N 
ATOM      7  C   UNL     1      -4.724   0.128  -1.202  0.00  0.00    +0.329 A 
ATOM      8  O   UNL     1      -5.865  -0.292  -1.194  0.00  0.00    -0.247 OA
ATOM      9  N   UNL     1      -3.879  -0.272  -2.169  0.00  0.00    -0.275 N 
ATOM     10  C   UNL     1      -2.600   0.188  -2.202  0.00  0.00    +0.263 A 
ATOM     11  O   UNL     1      -1.766  -0.208  -3.166  0.00  0.00    -0.267 OA
ATOM     12  H   UNL     1      -4.954   1.262   0.443  0.00  0.00    +0.173 HD
ATOM     13  H   UNL     1      -4.185  -0.891  -2.850  0.00  0.00    +0.173 HD
ENDBRANCH   2   3
BRANCH   2  14
ATOM     14  N   UNL     1      -0.773   3.062  -1.223  0.00  0.00    -0.405 NA
ATOM     15  H   UNL     1      -1.330   3.394  -1.996  0.00  0.00    +0.123 HD
ATOM     16  H   UNL     1      -1.171   3.388  -0.356  0.00  0.00    +0.123 HD
BRANCH  14  17
ATOM     17  C   UNL     1       0.533   3.546  -1.348  0.00  0.00    +0.050 C 
ATOM     18  C   UNL     1       0.835   4.399  -2.321  0.00  0.00    +0.016 C 
BRANCH  18  19
ATOM     19  C   UNL     1       2.208   4.909  -2.452  0.00  0.00    -0.050 C 
ATOM     20  C   UNL     1       2.464   5.755  -3.425  0.00  0.00    -0.023 C 
ATOM     21  C   UNL     1       3.819   6.347  -3.682  0.00  0.00    +0.027 C 
ATOM     22  C   UNL     1       4.710   6.178  -2.449  0.00  0.00    +0.004 C 
ATOM     23  C   UNL     1       4.644   4.714  -1.998  0.00  0.00    +0.005 C 
ATOM     24  C   UNL     1       3.235   4.437  -1.464  0.00  0.00    +0.035 C 
ENDBRANCH  18  19
ENDBRANCH  14  17
ENDBRANCH   2  14
TORSDOF 4
