REMARK  Name = ZINC13063788
REMARK  16 active torsions:
REMARK  status: ('A' for Active; 'I' for Inactive)
REMARK    1  A    between atoms: C_1  and  C_2
REMARK    2  A    between atoms: C_2  and  C_3
REMARK    3  A    between atoms: C_3  and  C_5
REMARK    4  A    between atoms: C_3  and  N_72
REMARK    5  A    between atoms: N_9  and  C_10
REMARK    6  A    between atoms: C_10  and  C_11
REMARK    7  A    between atoms: C_10  and  C_12
REMARK    8  A    between atoms: C_10  and  C_13
REMARK    9  A    between atoms: C_13  and  C_14
REMARK   10  A    between atoms: C_15  and  C_16
REMARK   11  A    between atoms: C_15  and  N_72
REMARK   12  A    between atoms: C_19  and  O_22
REMARK   13  A    between atoms: O_22  and  C_23
REMARK   14  A    between atoms: C_24  and  C_25
REMARK   15  A    between atoms: C_24  and  N_72
REMARK   16  A    between atoms: C_30  and  C_37
REMARK                            x       y       z     vdW  Elec       q    Type
REMARK                         _______ _______ _______ _____ _____    ______ ____
ROOT
ATOM      1  N   UNL     1      -0.007   0.016   0.009  0.00  0.00    +0.392 N 
ATOM      2  H   UNL     1       0.654   0.480  -0.625  0.00  0.00    -0.080 HD
ENDROOT
BRANCH   1   3
ATOM      3  C   UNL     1       0.649  -1.169   0.602  0.00  0.00    +0.003 C 
BRANCH   3   4
ATOM      4  C   UNL     1       2.131  -0.909   0.675  0.00  0.00    +0.139 A 
ATOM      5  N   UNL     1       2.713   0.224   0.983  0.00  0.00    -0.115 NA
ATOM      6  N   UNL     1       3.988   0.042   0.938  0.00  0.00    -0.023 NA
ATOM      7  N   UNL     1       4.234  -1.178   0.608  0.00  0.00    -0.043 NA
ATOM      8  N   UNL     1       3.115  -1.798   0.443  0.00  0.00    -0.225 N 
BRANCH   8   9
ATOM      9  C   UNL     1       2.947  -3.205   0.069  0.00  0.00    +0.061 C 
ATOM     10  C   UNL     1       2.033  -3.896   1.083  0.00  0.00    +0.036 C 
ATOM     11  C   UNL     1       2.320  -3.291  -1.324  0.00  0.00    +0.036 C 
BRANCH   9  12
ATOM     12  C   UNL     1       4.312  -3.896   0.058  0.00  0.00    +0.026 C 
ATOM     13  C   UNL     1       4.136  -5.365  -0.332  0.00  0.00    +0.006 C 
ENDBRANCH   9  12
ENDBRANCH   8   9
ENDBRANCH   3   4
BRANCH   3  15
ATOM     14  C   UNL     1      -1.395  -1.714   1.932  0.00  0.00    +0.002 C 
ATOM     15  C   UNL     1       0.106  -1.430   2.008  0.00  0.00    -0.011 C 
ENDBRANCH   3  15
ENDBRANCH   1   3
BRANCH   1  16
ATOM     16  C   UNL     1      -0.397   0.963   1.074  0.00  0.00    -0.042 C 
BRANCH  16  17
ATOM     17  C   UNL     1       0.835   1.689   1.550  0.00  0.00    -0.064 A 
ATOM     18  C   UNL     1       1.346   1.429   2.808  0.00  0.00    +0.005 A 
ATOM     19  C   UNL     1       2.479   2.088   3.245  0.00  0.00    +0.046 A 
ATOM     20  C   UNL     1       3.097   3.021   2.424  0.00  0.00    +0.120 A 
ATOM     21  C   UNL     1       2.579   3.284   1.164  0.00  0.00    +0.046 A 
ATOM     22  C   UNL     1       1.449   2.618   0.730  0.00  0.00    +0.005 A 
BRANCH  20  23
ATOM     23  O   UNL     1       4.208   3.674   2.853  0.00  0.00    -0.495 OA
ATOM     24  C   UNL     1       4.686   3.353   4.161  0.00  0.00    +0.277 C 
ENDBRANCH  20  23
ENDBRANCH  16  17
ENDBRANCH   1  16
BRANCH   1  25
ATOM     25  C   UNL     1      -1.200  -0.399  -0.760  0.00  0.00    -0.036 C 
BRANCH  25  26
ATOM     26  C   UNL     1      -0.747  -1.041  -2.046  0.00  0.00    +0.001 A 
ATOM     27  C   UNL     1      -0.697  -2.393  -2.145  0.00  0.00    +0.017 A 
ATOM     28  C   UNL     1      -0.253  -2.985  -3.408  0.00  0.00    -0.001 A 
ATOM     29  C   UNL     1      -0.181  -4.372  -3.571  0.00  0.00    +0.010 A 
ATOM     30  C   UNL     1       0.237  -4.894  -4.762  0.00  0.00    +0.004 A 
ATOM     31  C   UNL     1       0.591  -4.059  -5.814  0.00  0.00    -0.048 A 
ATOM     32  C   UNL     1       0.527  -2.689  -5.676  0.00  0.00    +0.029 A 
ATOM     33  C   UNL     1       0.105  -2.135  -4.472  0.00  0.00    +0.049 A 
ATOM     34  N   UNL     1       0.031  -0.768  -4.307  0.00  0.00    -0.322 N 
ATOM     35  H   UNL     1       0.278  -0.184  -5.041  0.00  0.00    +0.169 HD
ATOM     36  C   UNL     1      -0.383  -0.234  -3.145  0.00  0.00    +0.251 A 
ATOM     37  O   UNL     1      -0.440   0.979  -3.036  0.00  0.00    -0.268 OA
ATOM     38  C   UNL     1       1.049  -4.657  -7.119  0.00  0.00    +0.044 C 
ENDBRANCH  25  26
ENDBRANCH   1  25
TORSDOF 10
