REMARK  Name = ZINC36029728
REMARK  7 active torsions:
REMARK  status: ('A' for Active; 'I' for Inactive)
REMARK    1  A    between atoms: C_1  and  C_2
REMARK    2  A    between atoms: C_2  and  C_3
REMARK    3  A    between atoms: C_2  and  C_4
REMARK    4  A    between atoms: C_4  and  C_5
REMARK    5  A    between atoms: N_9  and  C_26
REMARK    6  A    between atoms: C_17  and  C_19
REMARK    7  A    between atoms: C_26  and  C_27
REMARK                            x       y       z     vdW  Elec       q    Type
REMARK                         _______ _______ _______ _____ _____    ______ ____
ROOT
ATOM      1  C   UNL     1      -0.945  -2.463   0.342  0.00  0.00    +0.019 C 
ATOM      2  C   UNL     1      -2.325  -2.931  -0.066  0.00  0.00    +0.201 C 
ATOM      3  O   UNL     1      -2.888  -2.657  -1.105  0.00  0.00    -0.277 OA
ATOM      4  N   UNL     1      -2.824  -3.705   0.920  0.00  0.00    -0.309 N 
ATOM      5  C   UNL     1      -1.844  -3.805   2.006  0.00  0.00    +0.006 C 
ATOM      6  N   UNL     1      -0.879  -2.702   1.804  0.00  0.00    +0.401 N 
ATOM      7  C   UNL     1      -1.115  -5.146   1.936  0.00  0.00    +0.025 C 
ATOM      8  C   UNL     1      -2.126  -6.284   2.105  0.00  0.00    +0.108 C 
ATOM      9  N   UNL     1      -2.884  -6.062   3.345  0.00  0.00    -0.297 N 
ATOM     10  C   UNL     1      -3.560  -4.773   3.539  0.00  0.00    +0.108 C 
ATOM     11  C   UNL     1      -2.536  -3.647   3.358  0.00  0.00    +0.025 C 
ATOM     12  C   UNL     1      -2.957  -7.025   4.285  0.00  0.00    +0.248 C 
ATOM     13  O   UNL     1      -3.652  -6.861   5.269  0.00  0.00    -0.270 OA
ATOM     14  H   UNL     1       0.050  -2.985   2.078  0.00  0.00    -0.082 HD
ATOM     15  H   UNL     1      -1.167  -1.880   2.313  0.00  0.00    -0.082 HD
ENDROOT
BRANCH  12  16
ATOM     16  C   UNL     1      -2.193  -8.279   4.120  0.00  0.00    +0.055 A 
ATOM     17  C   UNL     1      -2.346  -9.046   2.964  0.00  0.00    +0.014 A 
ATOM     18  C   UNL     1      -1.629 -10.216   2.816  0.00  0.00    +0.001 A 
ATOM     19  C   UNL     1      -0.760 -10.630   3.811  0.00  0.00    +0.001 A 
ATOM     20  C   UNL     1      -0.604  -9.876   4.959  0.00  0.00    +0.021 A 
ATOM     21  C   UNL     1      -1.310  -8.699   5.118  0.00  0.00    +0.053 A 
ATOM     22 CL   UNL     1      -1.107  -7.749   6.557  0.00  0.00    -0.083 Cl
ENDBRANCH  12  16
BRANCH   1  23
ATOM     23  C   UNL     1      -0.776  -0.973   0.038  0.00  0.00    -0.004 C 
BRANCH  23  25
ATOM     24  C   UNL     1       1.674  -1.219  -0.388  0.00  0.00    +0.007 C 
ATOM     25  C   UNL     1       0.619  -0.519   0.472  0.00  0.00    -0.018 C 
ATOM     26  C   UNL     1       0.741   0.996   0.295  0.00  0.00    +0.007 C 
ENDBRANCH  23  25
ENDBRANCH   1  23
BRANCH   4  27
ATOM     27  C   UNL     1      -4.141  -4.346   0.908  0.00  0.00    +0.141 C 
BRANCH  27  28
ATOM     28  C   UNL     1      -5.199  -3.325   1.238  0.00  0.00    -0.026 A 
ATOM     29  C   UNL     1      -5.420  -2.962   2.554  0.00  0.00    +0.009 A 
ATOM     30  C   UNL     1      -6.390  -2.026   2.861  0.00  0.00    +0.050 A 
ATOM     31  C   UNL     1      -7.143  -1.450   1.851  0.00  0.00    +0.166 A 
ATOM     32  C   UNL     1      -6.921  -1.816   0.526  0.00  0.00    +0.167 A 
ATOM     33  C   UNL     1      -5.944  -2.751   0.225  0.00  0.00    +0.054 A 
ATOM     34  O   UNL     1      -7.780  -1.116  -0.270  0.00  0.00    -0.453 OA
ATOM     35  C   UNL     1      -8.806  -0.623   0.612  0.00  0.00    +0.466 C 
ATOM     36  O   UNL     1      -8.142  -0.520   1.885  0.00  0.00    -0.453 OA
ENDBRANCH  27  28
ENDBRANCH   4  27
TORSDOF 5
