REMARK  Name = ZINC40903451
REMARK  8 active torsions:
REMARK  status: ('A' for Active; 'I' for Inactive)
REMARK    1  A    between atoms: C_1  and  C_2
REMARK    2  A    between atoms: C_2  and  C_3
REMARK    3  A    between atoms: C_5  and  C_8
REMARK    4  A    between atoms: C_11  and  N_15
REMARK    5  A    between atoms: C_18  and  C_21
REMARK    6  A    between atoms: N_23  and  C_24
REMARK    7  A    between atoms: C_24  and  C_25
REMARK    8  A    between atoms: C_28  and  N_31
REMARK                            x       y       z     vdW  Elec       q    Type
REMARK                         _______ _______ _______ _____ _____    ______ ____
ROOT
ATOM      1  N   UNL     1       0.224  -2.726   8.604  0.00  0.00    -0.328 N 
ATOM      2  C   UNL     1       0.285  -1.733   9.685  0.00  0.00    +0.106 C 
ATOM      3  C   UNL     1       1.264  -2.228  10.755  0.00  0.00    +0.031 C 
ATOM      4  C   UNL     1       0.849  -3.629  11.210  0.00  0.00    +0.078 C 
ATOM      5  C   UNL     1       0.905  -4.592  10.022  0.00  0.00    +0.031 C 
ATOM      6  C   UNL     1      -0.084  -4.122   8.943  0.00  0.00    +0.106 C 
ENDROOT
BRANCH   1  10
ATOM      7  C   UNL     1       0.892  -1.599   4.647  0.00  0.00    +0.025 A 
ATOM      8  C   UNL     1      -0.397  -1.562   5.177  0.00  0.00    +0.013 A 
ATOM      9  C   UNL     1      -0.616  -1.935   6.485  0.00  0.00    +0.027 A 
ATOM     10  C   UNL     1       0.448  -2.349   7.279  0.00  0.00    +0.065 A 
ATOM     11  C   UNL     1       1.736  -2.387   6.753  0.00  0.00    +0.145 A 
ATOM     12  C   UNL     1       1.958  -2.019   5.442  0.00  0.00    +0.052 A 
ATOM     13  F   UNL     1       2.769  -2.789   7.526  0.00  0.00    -0.204 F 
BRANCH   7  16
ATOM     14  C   UNL     1       0.731  -0.503   1.223  0.00  0.00    +0.227 A 
ATOM     15  N   UNL     1       0.188  -0.776   2.375  0.00  0.00    -0.191 NA
ATOM     16  C   UNL     1       1.129  -1.198   3.239  0.00  0.00    +0.202 A 
ATOM     17  N   UNL     1       2.289  -1.194   2.630  0.00  0.00    -0.056 NA
ATOM     18  O   UNL     1       2.045  -0.747   1.304  0.00  0.00    -0.338 OA
BRANCH  14  20
ATOM     19  C   UNL     1      -0.019   1.526   0.010  0.00  0.00    +0.014 C 
ATOM     20  C   UNL     1       0.002  -0.004   0.002  0.00  0.00    +0.095 C 
ENDBRANCH  14  20
ENDBRANCH   7  16
ENDBRANCH   1  10
BRANCH   4  21
ATOM     21  C   UNL     1       1.789  -4.106  12.287  0.00  0.00    +0.216 C 
ATOM     22  O   UNL     1       2.701  -3.396  12.653  0.00  0.00    -0.276 OA
ATOM     23  N   UNL     1       1.617  -5.322  12.842  0.00  0.00    -0.311 N 
ATOM     24  H   UNL     1       0.888  -5.890  12.549  0.00  0.00    +0.149 HD
BRANCH  23  25
ATOM     25  C   UNL     1       2.531  -5.785  13.889  0.00  0.00    +0.139 C 
BRANCH  25  26
ATOM     26  C   UNL     1       2.123  -7.165  14.338  0.00  0.00    -0.030 A 
ATOM     27  C   UNL     1       1.221  -7.314  15.375  0.00  0.00    +0.007 A 
ATOM     28  C   UNL     1       0.844  -8.577  15.789  0.00  0.00    +0.023 A 
ATOM     29  C   UNL     1       1.374  -9.698  15.162  0.00  0.00    +0.030 A 
ATOM     30  C   UNL     1       2.280  -9.544  14.121  0.00  0.00    +0.023 A 
ATOM     31  C   UNL     1       2.648  -8.279  13.708  0.00  0.00    +0.007 A 
BRANCH  29  32
ATOM     32  N   UNL     1       0.996 -10.976  15.579  0.00  0.00    -0.330 N 
ATOM     33  C   UNL     1       0.046 -11.280  16.659  0.00  0.00    +0.105 C 
ATOM     34  C   UNL     1      -0.038 -12.816  16.777  0.00  0.00    +0.020 C 
ATOM     35  C   UNL     1       1.294 -13.287  16.137  0.00  0.00    +0.020 C 
ATOM     36  C   UNL     1       1.478 -12.245  15.003  0.00  0.00    +0.105 C 
ENDBRANCH  29  32
ENDBRANCH  25  26
ENDBRANCH  23  25
ENDBRANCH   4  21
TORSDOF 7
