REMARK  Name = ZINC42747724
REMARK  7 active torsions:
REMARK  status: ('A' for Active; 'I' for Inactive)
REMARK    1  A    between atoms: C_1  and  C_2
REMARK    2  A    between atoms: C_4  and  N_24
REMARK    3  A    between atoms: C_6  and  S_9
REMARK    4  A    between atoms: C_7  and  C_8
REMARK    5  A    between atoms: S_9  and  N_12
REMARK    6  A    between atoms: C_14  and  C_21
REMARK    7  A    between atoms: C_18  and  C_20
REMARK                            x       y       z     vdW  Elec       q    Type
REMARK                         _______ _______ _______ _____ _____    ______ ____
ROOT
ATOM      1  S   UNL     1       0.093  -3.161   2.833  0.00  0.00    +0.061 S 
ATOM      2  O   UNL     1       0.527  -4.171   1.933  0.00  0.00    -0.153 OA
ATOM      3  O   UNL     1      -0.627  -2.014   2.402  0.00  0.00    -0.153 OA
ENDROOT
BRANCH   1   9
ATOM      4  C   UNL     1      -0.809  -7.055   6.201  0.00  0.00    +0.044 C 
ATOM      5  C   UNL     1      -1.273  -5.768   5.568  0.00  0.00    -0.044 A 
ATOM      6  C   UNL     1      -2.486  -5.215   5.936  0.00  0.00    +0.036 A 
ATOM      7  C   UNL     1      -2.911  -4.035   5.355  0.00  0.00    +0.128 A 
ATOM      8  C   UNL     1      -2.123  -3.408   4.408  0.00  0.00    +0.061 A 
ATOM      9  C   UNL     1      -0.910  -3.960   4.041  0.00  0.00    +0.111 A 
ATOM     10  C   UNL     1      -0.483  -5.138   4.625  0.00  0.00    -0.021 A 
ATOM     11  C   UNL     1       0.842  -5.738   4.229  0.00  0.00    +0.046 C 
BRANCH   7  12
ATOM     12  N   UNL     1      -4.209  -3.443   5.747  0.00  0.00    +0.056 N 
ATOM     13  O   UNL     1      -4.898  -3.992   6.575  0.00  0.00    -0.126 OA
ATOM     14  O   UNL     1      -4.581  -2.411   5.240  0.00  0.00    -0.126 OA
ENDBRANCH   7  12
ENDBRANCH   1   9
BRANCH   1  15
ATOM     15  N   UNL     1       1.446  -2.606   3.610  0.00  0.00    -0.173 NA
ATOM     16  C   UNL     1       2.736  -3.289   3.447  0.00  0.00    +0.122 C 
ATOM     17  C   UNL     1       3.293  -3.628   4.834  0.00  0.00    +0.090 C 
ATOM     18  C   UNL     1       3.360  -2.353   5.678  0.00  0.00    +0.015 C 
ATOM     19  C   UNL     1       1.951  -1.780   5.850  0.00  0.00    +0.021 C 
ATOM     20  C   UNL     1       1.380  -1.417   4.471  0.00  0.00    +0.077 C 
ATOM     21  C   UNL     1      -0.076  -0.970   4.618  0.00  0.00    +0.026 C 
BRANCH  17  22
ATOM     22  C   UNL     1       4.676  -4.210   4.692  0.00  0.00    +0.215 C 
ATOM     23  O   UNL     1       5.168  -4.342   3.591  0.00  0.00    -0.276 OA
ATOM     24  N   UNL     1       5.365  -4.585   5.788  0.00  0.00    -0.329 N 
ATOM     25  H   UNL     1       4.971  -4.479   6.668  0.00  0.00    +0.145 HD
ATOM     26  H   UNL     1       6.255  -4.960   5.696  0.00  0.00    +0.145 HD
ENDBRANCH  17  22
ENDBRANCH   1  15
TORSDOF 4
