REMARK  Name = ZINC63854623
REMARK  8 active torsions:
REMARK  status: ('A' for Active; 'I' for Inactive)
REMARK    1  A    between atoms: C_1  and  C_2
REMARK    2  A    between atoms: C_4  and  S_23
REMARK    3  A    between atoms: C_6  and  C_7
REMARK    4  A    between atoms: N_9  and  C_10
REMARK    5  A    between atoms: C_10  and  C_11
REMARK    6  A    between atoms: C_11  and  C_12
REMARK    7  A    between atoms: C_11  and  N_18
REMARK    8  A    between atoms: S_23  and  N_26
REMARK                            x       y       z     vdW  Elec       q    Type
REMARK                         _______ _______ _______ _____ _____    ______ ____
ROOT
ATOM      1  C   UNL     1       1.539   1.178   4.434  0.00  0.00    +0.251 C 
ATOM      2  O   UNL     1       0.824   1.438   3.483  0.00  0.00    -0.270 OA
ATOM      3  N   UNL     1       1.284   0.093   5.191  0.00  0.00    -0.312 N 
ATOM      4  H   UNL     1       1.853  -0.114   5.949  0.00  0.00    +0.149 HD
ENDROOT
BRANCH   1  10
ATOM      5  C   UNL     1       2.402   3.747   2.898  0.00  0.00    +0.045 C 
ATOM      6  C   UNL     1       3.107   3.195   4.110  0.00  0.00    -0.029 A 
ATOM      7  C   UNL     1       4.215   3.803   4.651  0.00  0.00    +0.040 A 
ATOM      8  C   UNL     1       4.801   3.253   5.744  0.00  0.00    +0.143 A 
ATOM      9  S   UNL     1       3.868   1.895   6.071  0.00  0.00    -0.064 S 
ATOM     10  C   UNL     1       2.676   2.045   4.754  0.00  0.00    +0.079 A 
BRANCH   8  11
ATOM     11  S   UNL     1       6.216   3.831   6.619  0.00  0.00    +0.062 S 
ATOM     12  O   UNL     1       6.770   2.704   7.284  0.00  0.00    -0.153 OA
ATOM     13  O   UNL     1       6.965   4.620   5.705  0.00  0.00    -0.153 OA
BRANCH  11  14
ATOM     14  N   UNL     1       5.676   4.859   7.800  0.00  0.00    -0.203 NA
ATOM     15  H   UNL     1       6.171   4.947   8.630  0.00  0.00    +0.144 HD
ATOM     16  H   UNL     1       4.866   5.373   7.661  0.00  0.00    +0.144 HD
ENDBRANCH  11  14
ENDBRANCH   8  11
ENDBRANCH   1  10
BRANCH   3  17
ATOM     17  C   UNL     1       0.147  -0.773   4.871  0.00  0.00    +0.094 C 
BRANCH  17  18
ATOM     18  C   UNL     1       0.145  -1.980   5.811  0.00  0.00    -0.020 C 
BRANCH  18  19
ATOM     19  C   UNL     1      -0.108  -1.517   7.223  0.00  0.00    -0.059 A 
ATOM     20  C   UNL     1      -1.397  -1.241   7.639  0.00  0.00    +0.002 A 
ATOM     21  C   UNL     1      -1.629  -0.816   8.934  0.00  0.00    +0.000 A 
ATOM     22  C   UNL     1      -0.572  -0.668   9.813  0.00  0.00    +0.000 A 
ATOM     23  C   UNL     1       0.717  -0.945   9.397  0.00  0.00    +0.000 A 
ATOM     24  C   UNL     1       0.948  -1.374   8.103  0.00  0.00    +0.002 A 
ENDBRANCH  18  19
BRANCH  18  25
ATOM     25  N   UNL     1      -0.913  -2.915   5.406  0.00  0.00    +0.385 N 
ATOM     26  C   UNL     1      -0.640  -3.438   4.043  0.00  0.00    -0.078 C 
ATOM     27  C   UNL     1      -1.455  -4.755   3.998  0.00  0.00    -0.020 C 
ATOM     28  C   UNL     1      -1.287  -5.314   5.430  0.00  0.00    -0.020 C 
ATOM     29  C   UNL     1      -0.920  -4.096   6.297  0.00  0.00    -0.078 C 
ATOM     30  H   UNL     1      -1.812  -2.456   5.430  0.00  0.00    -0.081 HD
ENDBRANCH  18  25
ENDBRANCH  17  18
ENDBRANCH   3  17
TORSDOF 7
