REMARK  Name = ZINC23327813
REMARK  7 active torsions:
REMARK  status: ('A' for Active; 'I' for Inactive)
REMARK    1  A    between atoms: C_1  and  C_2
REMARK    2  A    between atoms: C_2  and  C_4
REMARK    3  A    between atoms: C_2  and  N_14
REMARK    4  A    between atoms: C_15  and  C_17
REMARK    5  A    between atoms: C_17  and  N_18
REMARK    6  A    between atoms: C_21  and  C_25
REMARK    7  A    between atoms: C_21  and  C_26
REMARK                            x       y       z     vdW  Elec       q    Type
REMARK                         _______ _______ _______ _____ _____    ______ ____
ROOT
ATOM      1  N   UNL     1       2.856   2.200   4.483  0.00  0.00    -0.215 N 
ATOM      2  C   UNL     1       4.110   2.081   4.004  0.00  0.00    +0.251 C 
ATOM      3  O   UNL     1       4.528   1.227   3.252  0.00  0.00    -0.272 OA
ATOM      4  C   UNL     1       4.888   3.238   4.599  0.00  0.00    +0.135 C 
ATOM      5  N   UNL     1       3.891   3.936   5.428  0.00  0.00    -0.281 N 
ATOM      6  C   UNL     1       2.737   3.256   5.296  0.00  0.00    +0.310 C 
ATOM      7  O   UNL     1       1.702   3.567   5.853  0.00  0.00    -0.252 OA
ATOM      8  C   UNL     1       5.414   4.161   3.498  0.00  0.00    +0.047 C 
ATOM      9  H   UNL     1       4.178   4.834   5.995  0.00  0.00    +0.152 HD
ENDROOT
BRANCH   4  10
ATOM     10  C   UNL     1       6.023   2.730   5.450  0.00  0.00    -0.015 A 
ATOM     11  C   UNL     1       6.689   1.571   5.096  0.00  0.00    +0.006 A 
ATOM     12  C   UNL     1       7.729   1.108   5.878  0.00  0.00    +0.004 A 
ATOM     13  C   UNL     1       8.108   1.800   7.016  0.00  0.00    -0.044 A 
ATOM     14  C   UNL     1       7.442   2.959   7.370  0.00  0.00    -0.044 A 
ATOM     15  C   UNL     1       6.404   3.425   6.582  0.00  0.00    +0.010 A 
ATOM     16  C   UNL     1       8.039   3.524   8.641  0.00  0.00    +0.036 C 
ATOM     17  C   UNL     1       8.844   2.361   9.261  0.00  0.00    +0.009 C 
ATOM     18  C   UNL     1       9.198   1.507   8.025  0.00  0.00    +0.036 C 
ENDBRANCH   4  10
BRANCH   1  19
ATOM     19  C   UNL     1       1.761   1.283   4.160  0.00  0.00    +0.213 C 
BRANCH  19  21
ATOM     20  N   UNL     1      -0.020   1.094   2.454  0.00  0.00    -0.307 N 
ATOM     21  C   UNL     1       1.032   1.782   2.939  0.00  0.00    +0.231 C 
ATOM     22  O   UNL     1       1.392   2.804   2.393  0.00  0.00    -0.274 OA
ATOM     23  H   UNL     1      -0.347   0.168   2.949  0.00  0.00    +0.149 HD
BRANCH  20  25
ATOM     24  C   UNL     1      -0.013   1.086   0.008  0.00  0.00    +0.033 C 
ATOM     25  C   UNL     1      -0.729   1.579   1.267  0.00  0.00    +0.100 C 
BRANCH  25  26
ATOM     26  C   UNL     1      -2.143   1.058   1.278  0.00  0.00    -0.027 A 
ATOM     27  C   UNL     1      -2.400  -0.241   1.677  0.00  0.00    +0.006 A 
ATOM     28  C   UNL     1      -3.697  -0.710   1.687  0.00  0.00    +0.004 A 
ATOM     29  C   UNL     1      -4.747   0.108   1.288  0.00  0.00    -0.044 A 
ATOM     30  C   UNL     1      -4.490   1.400   0.889  0.00  0.00    -0.044 A 
ATOM     31  C   UNL     1      -3.184   1.872   0.884  0.00  0.00    +0.009 A 
ATOM     32  C   UNL     1      -5.579   2.345   0.453  0.00  0.00    +0.035 C 
ATOM     33  C   UNL     1      -6.851   1.575   0.105  0.00  0.00    +0.005 C 
ATOM     34  C   UNL     1      -7.184   0.638   1.272  0.00  0.00    +0.005 C 
ATOM     35  C   UNL     1      -6.136  -0.473   1.311  0.00  0.00    +0.035 C 
ENDBRANCH  25  26
ENDBRANCH  20  25
ENDBRANCH  19  21
ENDBRANCH   1  19
TORSDOF 5
