REMARK  Name = ZINC47614409
REMARK  8 active torsions:
REMARK  status: ('A' for Active; 'I' for Inactive)
REMARK    1  A    between atoms: C_8  and  C_11
REMARK    2  A    between atoms: C_11  and  N_12
REMARK    3  A    between atoms: N_12  and  C_13
REMARK    4  A    between atoms: N_12  and  C_22
REMARK    5  A    between atoms: C_13  and  C_14
REMARK    6  A    between atoms: N_16  and  C_17
REMARK    7  A    between atoms: C_22  and  C_23
REMARK    8  A    between atoms: N_25  and  C_26
REMARK                            x       y       z     vdW  Elec       q    Type
REMARK                         _______ _______ _______ _____ _____    ______ ____
ROOT
ATOM      1  N   UNL     1       5.062  -3.270   0.148  0.00  0.00    +0.393 N 
ATOM      2  H   UNL     1       5.228  -2.289  -0.025  0.00  0.00    -0.080 HD
ENDROOT
BRANCH   1   3
ATOM      3  C   UNL     1       3.722  -3.631  -0.334  0.00  0.00    -0.032 C 
BRANCH   3  11
ATOM      4  C   UNL     1       0.221  -8.143   1.520  0.00  0.00    +0.000 A 
ATOM      5  C   UNL     1       0.897  -7.893   2.700  0.00  0.00    +0.004 A 
ATOM      6  C   UNL     1       1.888  -6.934   2.745  0.00  0.00    +0.046 A 
ATOM      7  C   UNL     1       2.216  -6.210   1.601  0.00  0.00    +0.124 A 
ATOM      8  C   UNL     1       1.534  -6.475   0.421  0.00  0.00    -0.002 A 
ATOM      9  C   UNL     1       0.542  -7.430   0.379  0.00  0.00    +0.007 A 
ATOM     10  C   UNL     1       2.115  -5.564  -0.642  0.00  0.00    +0.081 C 
ATOM     11  C   UNL     1       3.428  -5.089   0.025  0.00  0.00    +0.161 C 
ATOM     12  O   UNL     1       3.138  -5.224   1.427  0.00  0.00    -0.490 OA
ENDBRANCH   3  11
ENDBRANCH   1   3
BRANCH   1  13
ATOM     13  C   UNL     1       5.152  -3.534   1.590  0.00  0.00    +0.019 C 
BRANCH  13  14
ATOM     14  C   UNL     1       4.236  -2.595   2.331  0.00  0.00    +0.197 C 
ATOM     15  O   UNL     1       3.563  -1.794   1.718  0.00  0.00    -0.278 OA
ATOM     16  N   UNL     1       4.164  -2.645   3.676  0.00  0.00    -0.314 N 
ATOM     17  H   UNL     1       4.703  -3.285   4.167  0.00  0.00    +0.149 HD
BRANCH  16  18
ATOM     18  C   UNL     1       3.274  -1.732   4.397  0.00  0.00    +0.073 C 
ATOM     19  C   UNL     1       4.007  -0.410   4.702  0.00  0.00    +0.022 C 
ATOM     20  C   UNL     1       3.493  -0.005   6.106  0.00  0.00    +0.002 C 
ATOM     21  C   UNL     1       3.390  -1.367   6.838  0.00  0.00    +0.002 C 
ATOM     22  C   UNL     1       2.882  -2.341   5.755  0.00  0.00    +0.022 C 
ENDBRANCH  16  18
ENDBRANCH  13  14
ENDBRANCH   1  13
BRANCH   1  23
ATOM     23  C   UNL     1       6.070  -4.070  -0.561  0.00  0.00    +0.019 C 
BRANCH  23  24
ATOM     24  C   UNL     1       6.095  -3.673  -2.014  0.00  0.00    +0.197 C 
ATOM     25  O   UNL     1       5.348  -2.808  -2.420  0.00  0.00    -0.278 OA
ATOM     26  N   UNL     1       6.949  -4.278  -2.863  0.00  0.00    -0.314 N 
ATOM     27  H   UNL     1       7.547  -4.970  -2.539  0.00  0.00    +0.149 HD
BRANCH  26  28
ATOM     28  C   UNL     1       6.974  -3.892  -4.276  0.00  0.00    +0.073 C 
ATOM     29  C   UNL     1       5.941  -4.720  -5.068  0.00  0.00    +0.022 C 
ATOM     30  C   UNL     1       6.630  -4.985  -6.430  0.00  0.00    +0.002 C 
ATOM     31  C   UNL     1       8.107  -5.218  -6.026  0.00  0.00    +0.002 C 
ATOM     32  C   UNL     1       8.351  -4.209  -4.885  0.00  0.00    +0.022 C 
ENDBRANCH  26  28
ENDBRANCH  23  24
ENDBRANCH   1  23
TORSDOF 8
