REMARK  Name = ZINC00661701
REMARK  6 active torsions:
REMARK  status: ('A' for Active; 'I' for Inactive)
REMARK    1  A    between atoms: C_1  and  S_2
REMARK    2  A    between atoms: S_2  and  C_3
REMARK    3  A    between atoms: C_6  and  N_9
REMARK    4  A    between atoms: C_10  and  C_12
REMARK    5  A    between atoms: C_13  and  N_28
REMARK    6  A    between atoms: C_17  and  C_21
REMARK                            x       y       z     vdW  Elec       q    Type
REMARK                         _______ _______ _______ _____ _____    ______ ____
ROOT
ATOM      1  C   UNL     1       5.833  -2.531   0.098  0.00  0.00    +0.097 A 
ATOM      2  C   UNL     1       6.068  -1.182   0.257  0.00  0.00    +0.053 A 
ATOM      3  C   UNL     1       4.931  -0.276   0.230  0.00  0.00    +0.029 A 
ATOM      4  C   UNL     1       4.923   1.136   0.369  0.00  0.00    +0.014 A 
ATOM      5  C   UNL     1       3.738   1.804   0.309  0.00  0.00    +0.029 A 
ATOM      6  C   UNL     1       2.541   1.106   0.122  0.00  0.00    +0.072 A 
ATOM      7  N   UNL     1       2.550  -0.214  -0.008  0.00  0.00    -0.239 NA
ATOM      8  C   UNL     1       3.674  -0.895   0.040  0.00  0.00    +0.111 A 
ATOM      9  S   UNL     1       4.064  -2.623  -0.092  0.00  0.00    -0.062 S 
ENDROOT
BRANCH   6  10
ATOM     10  C   UNL     1       1.257   1.845   0.063  0.00  0.00    +0.001 A 
ATOM     11  C   UNL     1       0.061   1.154  -0.129  0.00  0.00    +0.013 A 
ATOM     12  C   UNL     1      -1.131   1.846  -0.187  0.00  0.00    +0.039 A 
ATOM     13  C   UNL     1      -1.142   3.224  -0.046  0.00  0.00    +0.123 A 
ATOM     14  C   UNL     1       0.044   3.915   0.145  0.00  0.00    +0.039 A 
ATOM     15  C   UNL     1       1.241   3.232   0.200  0.00  0.00    +0.013 A 
ATOM     16  F   UNL     1      -2.312   3.898  -0.100  0.00  0.00    -0.205 F 
ENDBRANCH   6  10
BRANCH   1  18
ATOM     17  N   UNL     1       6.355  -4.861  -0.080  0.00  0.00    -0.281 N 
ATOM     18  C   UNL     1       6.773  -3.591   0.089  0.00  0.00    +0.257 C 
ATOM     19  O   UNL     1       7.959  -3.354   0.234  0.00  0.00    -0.269 OA
ATOM     20  H   UNL     1       5.407  -5.058  -0.119  0.00  0.00    +0.155 HD
BRANCH  17  24
ATOM     21  C   UNL     1       9.142  -7.943  -0.437  0.00  0.00    +0.008 A 
ATOM     22  C   UNL     1       7.920  -8.179   0.181  0.00  0.00    +0.016 A 
ATOM     23  C   UNL     1       6.998  -7.159   0.299  0.00  0.00    +0.024 A 
ATOM     24  C   UNL     1       7.291  -5.896  -0.200  0.00  0.00    +0.034 A 
ATOM     25  C   UNL     1       8.511  -5.661  -0.822  0.00  0.00    +0.024 A 
ATOM     26  C   UNL     1       9.435  -6.680  -0.936  0.00  0.00    +0.016 A 
BRANCH  21  28
ATOM     27  C   UNL     1      11.721  -8.473  -1.442  0.00  0.00    +0.090 C 
ATOM     28  S   UNL     1      10.320  -9.245  -0.588  0.00  0.00    -0.129 S 
ENDBRANCH  21  28
ENDBRANCH  17  24
ENDBRANCH   1  18
BRANCH   2  29
ATOM     29  N   UNL     1       7.357  -0.701   0.436  0.00  0.00    -0.356 N 
ATOM     30  H   UNL     1       7.509   0.251   0.546  0.00  0.00    +0.142 HD
ATOM     31  H   UNL     1       8.107  -1.316   0.452  0.00  0.00    +0.142 HD
ENDBRANCH   2  29
TORSDOF 5
