REMARK  Name = ZINC27549801
REMARK  11 active torsions:
REMARK  status: ('A' for Active; 'I' for Inactive)
REMARK    1  A    between atoms: C_1  and  C_2
REMARK    2  A    between atoms: C_2  and  C_3
REMARK    3  A    between atoms: C_3  and  C_5
REMARK    4  A    between atoms: C_3  and  C_6
REMARK    5  A    between atoms: C_11  and  O_12
REMARK    6  A    between atoms: O_12  and  C_13
REMARK    7  A    between atoms: C_13  and  C_14
REMARK    8  A    between atoms: C_14  and  O_15
REMARK    9  A    between atoms: O_15  and  C_16
REMARK   10  A    between atoms: C_19  and  C_22
REMARK   11  A    between atoms: C_32  and  C_34
REMARK                            x       y       z     vdW  Elec       q    Type
REMARK                         _______ _______ _______ _____ _____    ______ ____
ROOT
ATOM      1  C   UNL     1      -2.940  -0.108  -6.304  0.00  0.00    +0.121 A 
ATOM      2  C   UNL     1      -4.314   0.096  -6.228  0.00  0.00    +0.046 A 
ATOM      3  C   UNL     1      -4.888   1.149  -6.882  0.00  0.00    +0.011 A 
ATOM      4  C   UNL     1      -4.090   2.024  -7.632  0.00  0.00    -0.024 A 
ATOM      5  C   UNL     1      -2.705   1.813  -7.705  0.00  0.00    +0.011 A 
ATOM      6  C   UNL     1      -2.142   0.760  -7.042  0.00  0.00    +0.046 A 
ENDROOT
BRANCH   4   7
ATOM      7  C   UNL     1      -4.699   3.155  -8.337  0.00  0.00    +0.024 C 
ATOM      8  C   UNL     1      -4.032   4.356  -8.417  0.00  0.00    +0.081 C 
ATOM      9  C   UNL     1      -4.526   5.472  -9.273  0.00  0.00    +0.153 C 
ATOM     10  N   UNL     1      -5.793   5.702  -9.492  0.00  0.00    -0.283 NA
ATOM     11  N   UNL     1      -3.489   6.256  -9.823  0.00  0.00    -0.152 N 
ATOM     12  C   UNL     1      -2.275   6.254  -9.171  0.00  0.00    +0.181 C 
ATOM     13  N   UNL     1      -1.925   5.530  -8.137  0.00  0.00    -0.152 NA
ATOM     14  C   UNL     1      -2.787   4.612  -7.652  0.00  0.00    +0.273 C 
ATOM     15  O   UNL     1      -2.549   4.008  -6.618  0.00  0.00    -0.268 OA
ATOM     16  S   UNL     1      -1.350   7.445 -10.104  0.00  0.00    -0.029 S 
ATOM     17  C   UNL     1      -2.591   7.785 -11.345  0.00  0.00    +0.202 C 
ATOM     18  N   UNL     1      -3.584   7.039 -10.954  0.00  0.00    -0.160 NA
ATOM     19  H   UNL     1      -6.060   6.443 -10.058  0.00  0.00    +0.188 HD
BRANCH  17  20
ATOM     20  C   UNL     1      -2.509   8.703 -12.538  0.00  0.00    +0.442 C 
ATOM     21  F   UNL     1      -3.718   8.662 -13.241  0.00  0.00    -0.164 F 
ATOM     22  F   UNL     1      -2.265  10.010 -12.105  0.00  0.00    -0.164 F 
ATOM     23  F   UNL     1      -1.469   8.287 -13.375  0.00  0.00    -0.164 F 
ENDBRANCH  17  20
ENDBRANCH   4   7
BRANCH   1  24
ATOM     24  O   UNL     1      -2.375  -1.156  -5.652  0.00  0.00    -0.489 OA
BRANCH  24  25
ATOM     25  C   UNL     1      -3.252  -2.009  -4.913  0.00  0.00    +0.270 C 
BRANCH  25  26
ATOM     26  C   UNL     1      -2.440  -3.124  -4.252  0.00  0.00    +0.270 C 
BRANCH  26  27
ATOM     27  O   UNL     1      -1.556  -2.559  -3.282  0.00  0.00    -0.488 OA
BRANCH  27  33
ATOM     28  C   UNL     1       0.125  -2.941  -1.642  0.00  0.00    -0.003 A 
ATOM     29  C   UNL     1       0.931  -3.819  -0.944  0.00  0.00    +0.007 A 
ATOM     30  C   UNL     1       0.863  -5.176  -1.203  0.00  0.00    +0.001 A 
ATOM     31  C   UNL     1      -0.012  -5.656  -2.160  0.00  0.00    +0.004 A 
ATOM     32  C   UNL     1      -0.820  -4.782  -2.860  0.00  0.00    +0.046 A 
ATOM     33  C   UNL     1      -0.758  -3.421  -2.599  0.00  0.00    +0.124 A 
BRANCH  28  34
ATOM     34  C   UNL     1       0.200  -1.462  -1.360  0.00  0.00    +0.019 C 
ATOM     35  C   UNL     1      -0.148  -1.204   0.107  0.00  0.00    +0.012 C 
BRANCH  34  37
ATOM     36  C   UNL     1       1.662   0.560  -1.478  0.00  0.00    +0.004 C 
ATOM     37  C   UNL     1       1.617  -0.960  -1.644  0.00  0.00    +0.004 C 
ENDBRANCH  34  37
ENDBRANCH  28  34
ENDBRANCH  27  33
ENDBRANCH  26  27
ENDBRANCH  25  26
ENDBRANCH  24  25
ENDBRANCH   1  24
TORSDOF 9
