REMARK  Name = ZINC15791663
REMARK  5 active torsions:
REMARK  status: ('A' for Active; 'I' for Inactive)
REMARK    1  A    between atoms: C_1  and  C_2
REMARK    2  A    between atoms: C_7  and  N_12
REMARK    3  A    between atoms: C_9  and  C_11
REMARK    4  A    between atoms: C_13  and  C_15
REMARK    5  A    between atoms: C_19  and  N_21
REMARK                            x       y       z     vdW  Elec       q    Type
REMARK                         _______ _______ _______ _____ _____    ______ ____
ROOT
ATOM      1  N   UNL     1      -0.721   1.571  -1.179  0.00  0.00    -0.308 N 
ATOM      2  C   UNL     1      -0.620   0.902  -2.344  0.00  0.00    +0.244 C 
ATOM      3  O   UNL     1       0.059  -0.104  -2.411  0.00  0.00    -0.270 OA
ATOM      4  H   UNL     1      -1.263   2.374  -1.126  0.00  0.00    +0.149 HD
ENDROOT
BRANCH   1  10
ATOM      5  C   UNL     1      -1.466   3.603   2.534  0.00  0.00    +0.008 C 
ATOM      6  C   UNL     1      -0.750   3.109   1.275  0.00  0.00    -0.009 C 
ATOM      7  C   UNL     1       0.686   3.639   1.264  0.00  0.00    +0.003 C 
ATOM      8  C   UNL     1       1.402   3.145   0.006  0.00  0.00    +0.002 C 
ATOM      9  C   UNL     1       1.423   1.615  -0.003  0.00  0.00    +0.022 C 
ATOM     10  C   UNL     1      -0.013   1.086   0.008  0.00  0.00    +0.076 C 
ATOM     11  C   UNL     1      -0.729   1.579   1.267  0.00  0.00    +0.009 C 
ATOM     12  C   UNL     1      -2.164   1.050   1.278  0.00  0.00    +0.009 C 
ENDBRANCH   1  10
BRANCH   2  13
ATOM     13  C   UNL     1      -1.335   1.392  -3.542  0.00  0.00    +0.039 A 
ATOM     14  C   UNL     1      -2.116   2.547  -3.469  0.00  0.00    +0.014 A 
ATOM     15  C   UNL     1      -2.780   2.999  -4.589  0.00  0.00    +0.018 A 
ATOM     16  C   UNL     1      -2.674   2.310  -5.786  0.00  0.00    +0.048 A 
ATOM     17  C   UNL     1      -1.901   1.163  -5.865  0.00  0.00    +0.141 A 
ATOM     18  C   UNL     1      -1.228   0.704  -4.752  0.00  0.00    +0.047 A 
ATOM     19 BR   UNL     1      -3.587   2.937  -7.318  0.00  0.00    -0.048 Br
BRANCH  17  20
ATOM     20  N   UNL     1      -1.794   0.432  -7.147  0.00  0.00    +0.058 N 
ATOM     21  O   UNL     1      -1.114  -0.576  -7.218  0.00  0.00    -0.126 OA
ATOM     22  O   UNL     1      -2.384   0.839  -8.132  0.00  0.00    -0.126 OA
ENDBRANCH  17  20
ENDBRANCH   2  13
TORSDOF 3
