REMARK  Name = ZINC28253853
REMARK  7 active torsions:
REMARK  status: ('A' for Active; 'I' for Inactive)
REMARK    1  A    between atoms: C_1  and  C_2
REMARK    2  A    between atoms: C_2  and  C_24
REMARK    3  A    between atoms: N_5  and  C_9
REMARK    4  A    between atoms: C_9  and  C_10
REMARK    5  A    between atoms: N_12  and  C_13
REMARK    6  A    between atoms: C_13  and  C_15
REMARK    7  A    between atoms: C_13  and  C_21
REMARK                            x       y       z     vdW  Elec       q    Type
REMARK                         _______ _______ _______ _____ _____    ______ ____
ROOT
ATOM      1  C   UNL     1      -0.019   1.526   0.010  0.00  0.00    +0.047 C 
ATOM      2  C   UNL     1       0.002  -0.004   0.002  0.00  0.00    +0.135 C 
ATOM      3  C   UNL     1       0.815  -0.520  -1.169  0.00  0.00    +0.251 C 
ATOM      4  O   UNL     1       0.595  -0.342  -2.348  0.00  0.00    -0.272 OA
ATOM      5  N   UNL     1       1.833  -1.217  -0.627  0.00  0.00    -0.215 N 
ATOM      6  C   UNL     1       1.777  -1.214   0.710  0.00  0.00    +0.310 C 
ATOM      7  O   UNL     1       2.586  -1.776   1.421  0.00  0.00    -0.252 OA
ATOM      8  N   UNL     1       0.724  -0.519   1.178  0.00  0.00    -0.281 N 
ATOM      9  H   UNL     1       0.487  -0.383   2.109  0.00  0.00    +0.152 HD
ENDROOT
BRANCH   2  10
ATOM     10  C   UNL     1      -1.401  -0.551  -0.040  0.00  0.00    -0.014 A 
ATOM     11  C   UNL     1      -2.004  -0.815  -1.256  0.00  0.00    +0.008 A 
ATOM     12  C   UNL     1      -3.292  -1.316  -1.296  0.00  0.00    +0.022 A 
ATOM     13  C   UNL     1      -3.977  -1.556  -0.119  0.00  0.00    +0.059 A 
ATOM     14  C   UNL     1      -3.373  -1.293   1.099  0.00  0.00    +0.060 A 
ATOM     15  C   UNL     1      -2.083  -0.796   1.137  0.00  0.00    +0.027 A 
ATOM     16 CL   UNL     1      -4.233  -1.593   2.577  0.00  0.00    -0.082 Cl
ATOM     17 CL   UNL     1      -5.594  -2.186  -0.168  0.00  0.00    -0.082 Cl
ENDBRANCH   2  10
BRANCH   5  18
ATOM     18  C   UNL     1       2.871  -1.896  -1.406  0.00  0.00    +0.213 C 
BRANCH  18  19
ATOM     19  C   UNL     1       4.020  -0.950  -1.644  0.00  0.00    +0.231 C 
ATOM     20  O   UNL     1       3.975   0.180  -1.206  0.00  0.00    -0.274 OA
ATOM     21  N   UNL     1       5.097  -1.360  -2.343  0.00  0.00    -0.307 N 
ATOM     22  H   UNL     1       5.133  -2.264  -2.693  0.00  0.00    +0.149 HD
BRANCH  21  23
ATOM     23  C   UNL     1       6.213  -0.440  -2.574  0.00  0.00    +0.106 C 
BRANCH  23  24
ATOM     24  C   UNL     1       6.959  -0.857  -3.816  0.00  0.00    -0.027 A 
ATOM     25  C   UNL     1       7.172  -2.197  -4.076  0.00  0.00    +0.005 A 
ATOM     26  C   UNL     1       7.856  -2.579  -5.215  0.00  0.00    +0.000 A 
ATOM     27  C   UNL     1       8.325  -1.621  -6.094  0.00  0.00    +0.000 A 
ATOM     28  C   UNL     1       8.111  -0.280  -5.834  0.00  0.00    +0.000 A 
ATOM     29  C   UNL     1       7.423   0.102  -4.697  0.00  0.00    +0.005 A 
ENDBRANCH  23  24
BRANCH  23  30
ATOM     30  C   UNL     1       7.161  -0.477  -1.374  0.00  0.00    +0.014 C 
ATOM     31  C   UNL     1       6.914  -1.549  -0.311  0.00  0.00    +0.006 C 
ATOM     32  C   UNL     1       6.590  -0.084  -0.010  0.00  0.00    +0.006 C 
ENDBRANCH  23  30
ENDBRANCH  21  23
ENDBRANCH  18  19
ENDBRANCH   5  18
TORSDOF 6
