REMARK  Name = ZINC32123785
REMARK  13 active torsions:
REMARK  status: ('A' for Active; 'I' for Inactive)
REMARK    1  A    between atoms: C_1  and  O_2
REMARK    2  A    between atoms: O_2  and  C_3
REMARK    3  A    between atoms: C_6  and  O_33
REMARK    4  A    between atoms: C_7  and  C_9
REMARK    5  A    between atoms: N_22  and  C_23
REMARK    6  A    between atoms: C_23  and  C_25
REMARK    7  A    between atoms: C_23  and  C_29
REMARK    8  A    between atoms: C_25  and  C_26
REMARK    9  A    between atoms: C_26  and  S_27
REMARK   10  A    between atoms: S_27  and  C_28
REMARK   11  A    between atoms: C_29  and  O_31
REMARK   12  A    between atoms: O_31  and  C_32
REMARK   13  A    between atoms: O_33  and  C_34
REMARK                            x       y       z     vdW  Elec       q    Type
REMARK                         _______ _______ _______ _____ _____    ______ ____
ROOT
ATOM      1  C   UNL     1      -2.535  -4.173   0.016  0.00  0.00    +0.160 C 
ATOM      2  C   UNL     1      -2.638  -4.682   1.434  0.00  0.00    +0.062 A 
ATOM      3  C   UNL     1      -1.629  -5.301   2.083  0.00  0.00    +0.040 A 
ATOM      4  N   UNL     1      -2.087  -5.608   3.329  0.00  0.00    -0.349 N 
ATOM      5  H   UNL     1      -1.590  -6.056   4.032  0.00  0.00    +0.166 HD
ATOM      6  C   UNL     1      -3.365  -5.169   3.401  0.00  0.00    +0.171 A 
ATOM      7  N   UNL     1      -3.684  -4.616   2.260  0.00  0.00    -0.348 N 
ATOM      8  C   UNL     1      -0.271  -5.582   1.495  0.00  0.00    +0.074 C 
ATOM      9  C   UNL     1      -0.072  -4.690   0.263  0.00  0.00    +0.116 C 
ATOM     10  N   UNL     1      -1.293  -4.721  -0.558  0.00  0.00    -0.273 N 
ATOM     11  C   UNL     1      -1.277  -5.238  -1.803  0.00  0.00    +0.304 C 
ATOM     12  O   UNL     1      -2.270  -5.173  -2.501  0.00  0.00    -0.253 OA
ATOM     13  N   UNL     1      -0.160  -5.827  -2.273  0.00  0.00    -0.286 N 
ATOM     14  H   UNL     1       0.608  -5.945  -1.692  0.00  0.00    +0.151 HD
ATOM     15  H   UNL     1      -4.545  -4.221   2.048  0.00  0.00    +0.167 HD
ENDROOT
BRANCH   1  20
ATOM     16  C   UNL     1      -2.170  -0.598   1.184  0.00  0.00    +0.121 A 
ATOM     17  C   UNL     1      -2.382   0.102   0.006  0.00  0.00    +0.049 A 
ATOM     18  C   UNL     1      -2.643  -0.581  -1.166  0.00  0.00    +0.049 A 
ATOM     19  C   UNL     1      -2.692  -1.967  -1.164  0.00  0.00    +0.126 A 
ATOM     20  C   UNL     1      -2.481  -2.667   0.014  0.00  0.00    +0.024 A 
ATOM     21  C   UNL     1      -2.215  -1.984   1.185  0.00  0.00    +0.055 A 
BRANCH  16  23
ATOM     22  C   UNL     1      -1.883   1.502   2.264  0.00  0.00    +0.277 C 
ATOM     23  O   UNL     1      -1.914   0.075   2.338  0.00  0.00    -0.495 OA
ENDBRANCH  16  23
BRANCH  19  24
ATOM     24  O   UNL     1      -2.950  -2.639  -2.318  0.00  0.00    -0.495 OA
ATOM     25  C   UNL     1      -3.159  -1.855  -3.494  0.00  0.00    +0.277 C 
ENDBRANCH  19  24
ENDBRANCH   1  20
BRANCH  13  26
ATOM     26  C   UNL     1      -0.105  -6.288  -3.663  0.00  0.00    +0.184 C 
BRANCH  26  27
ATOM     27  C   UNL     1      -0.699  -7.670  -3.757  0.00  0.00    +0.327 C 
ATOM     28  O   UNL     1      -1.125  -8.213  -2.766  0.00  0.00    -0.249 OA
BRANCH  27  29
ATOM     29  O   UNL     1      -0.756  -8.296  -4.943  0.00  0.00    -0.467 OA
ATOM     30  C   UNL     1      -1.332  -9.604  -4.959  0.00  0.00    +0.280 C 
ENDBRANCH  27  29
ENDBRANCH  26  27
BRANCH  26  31
ATOM     31  C   UNL     1       1.352  -6.327  -4.130  0.00  0.00    +0.044 C 
BRANCH  31  32
ATOM     32  C   UNL     1       1.918  -4.905  -4.153  0.00  0.00    +0.071 C 
BRANCH  32  33
ATOM     33  S   UNL     1       3.645  -4.951  -4.707  0.00  0.00    -0.164 S 
ATOM     34  C   UNL     1       4.161  -3.212  -4.678  0.00  0.00    +0.084 C 
ENDBRANCH  32  33
ENDBRANCH  31  32
ENDBRANCH  26  31
ENDBRANCH  13  26
TORSDOF 9
