REMARK  Name = ZINC39443517
REMARK  10 active torsions:
REMARK  status: ('A' for Active; 'I' for Inactive)
REMARK    1  A    between atoms: C_1  and  C_2
REMARK    2  A    between atoms: C_2  and  C_3
REMARK    3  A    between atoms: C_8  and  C_12
REMARK    4  A    between atoms: C_12  and  C_14
REMARK    5  A    between atoms: C_14  and  N_15
REMARK    6  A    between atoms: N_18  and  S_21
REMARK    7  A    between atoms: S_21  and  C_24
REMARK    8  A    between atoms: C_27  and  O_33
REMARK    9  A    between atoms: C_28  and  N_30
REMARK   10  A    between atoms: O_33  and  C_34
REMARK                            x       y       z     vdW  Elec       q    Type
REMARK                         _______ _______ _______ _____ _____    ______ ____
ROOT
ATOM      1  N   UNL     1       7.409  -2.015  -4.025  0.00  0.00    -0.293 NA
ATOM      2  C   UNL     1       7.127  -3.423  -4.332  0.00  0.00    +0.102 C 
ATOM      3  C   UNL     1       7.844  -3.812  -5.630  0.00  0.00    +0.125 C 
ATOM      4  N   UNL     1       9.270  -3.478  -5.494  0.00  0.00    -0.174 NA
ATOM      5  C   UNL     1       9.628  -2.121  -5.055  0.00  0.00    +0.125 C 
ATOM      6  C   UNL     1       8.841  -1.799  -3.780  0.00  0.00    +0.102 C 
ENDROOT
BRANCH   4   7
ATOM      7  S   UNL     1      10.441  -4.601  -5.827  0.00  0.00    +0.061 S 
ATOM      8  O   UNL     1      11.598  -4.209  -5.100  0.00  0.00    -0.153 OA
ATOM      9  O   UNL     1       9.838  -5.877  -5.668  0.00  0.00    -0.153 OA
BRANCH   7  10
ATOM     10  C   UNL     1      10.843  -4.443  -7.536  0.00  0.00    +0.108 A 
ATOM     11  C   UNL     1      10.149  -5.179  -8.479  0.00  0.00    +0.032 A 
ATOM     12  C   UNL     1      10.462  -5.057  -9.819  0.00  0.00    +0.050 A 
ATOM     13  C   UNL     1      11.473  -4.194 -10.218  0.00  0.00    +0.150 A 
ATOM     14  C   UNL     1      12.166  -3.456  -9.270  0.00  0.00    +0.169 A 
ATOM     15  C   UNL     1      11.847  -3.578  -7.932  0.00  0.00    +0.065 A 
BRANCH  14  16
ATOM     16  N   UNL     1      13.245  -2.535  -9.693  0.00  0.00    +0.060 N 
ATOM     17  O   UNL     1      13.850  -1.892  -8.866  0.00  0.00    -0.126 OA
ATOM     18  O   UNL     1      13.522  -2.426 -10.864  0.00  0.00    -0.126 OA
ENDBRANCH  14  16
BRANCH  13  19
ATOM     19  O   UNL     1      11.783  -4.073 -11.536  0.00  0.00    -0.493 OA
ATOM     20  C   UNL     1      11.027  -4.864 -12.455  0.00  0.00    +0.277 C 
ENDBRANCH  13  19
ENDBRANCH   7  10
ENDBRANCH   4   7
BRANCH   1  21
ATOM     21  C   UNL     1       6.604  -1.554  -2.885  0.00  0.00    +0.164 C 
BRANCH  21  22
ATOM     22  C   UNL     1       5.146  -1.561  -3.264  0.00  0.00    +0.175 C 
ATOM     23  O   UNL     1       4.809  -1.916  -4.375  0.00  0.00    -0.291 OA
BRANCH  22  29
ATOM     24  C   UNL     1       0.707  -0.490  -1.238  0.00  0.00    -0.024 A 
ATOM     25  C   UNL     1       0.003  -0.812  -2.344  0.00  0.00    +0.005 A 
ATOM     26  C   UNL     1       0.628  -1.268  -3.517  0.00  0.00    +0.001 A 
ATOM     27  C   UNL     1       1.968  -1.413  -3.615  0.00  0.00    +0.010 A 
ATOM     28  C   UNL     1       2.802  -1.105  -2.514  0.00  0.00    +0.006 A 
ATOM     29  C   UNL     1       4.172  -1.156  -2.327  0.00  0.00    +0.024 C 
ATOM     30  C   UNL     1       4.406  -0.688  -0.908  0.00  0.00    +0.152 C 
ATOM     31  N   UNL     1       3.082  -0.386  -0.356  0.00  0.00    -0.380 N 
ATOM     32  C   UNL     1       2.174  -0.615  -1.262  0.00  0.00    +0.046 A 
ATOM     33  H   UNL     1       2.908  -0.062   0.542  0.00  0.00    +0.160 HD
BRANCH  24  35
ATOM     34  C   UNL     1      -0.019   1.526   0.010  0.00  0.00    +0.009 C 
ATOM     35  C   UNL     1       0.002  -0.004   0.002  0.00  0.00    +0.034 C 
ENDBRANCH  24  35
ENDBRANCH  22  29
ENDBRANCH  21  22
ENDBRANCH   1  21
TORSDOF 8
