REMARK  Name = ZINC21309237
REMARK  12 active torsions:
REMARK  status: ('A' for Active; 'I' for Inactive)
REMARK    1  A    between atoms: C_1  and  C_2
REMARK    2  A    between atoms: C_2  and  C_4
REMARK    3  A    between atoms: C_2  and  S_18
REMARK    4  A    between atoms: N_6  and  C_7
REMARK    5  A    between atoms: C_7  and  C_8
REMARK    6  A    between atoms: C_8  and  C_10
REMARK    7  A    between atoms: C_8  and  N_15
REMARK    8  A    between atoms: N_15  and  C_16
REMARK    9  A    between atoms: N_15  and  C_17
REMARK   10  A    between atoms: S_18  and  C_19
REMARK   11  A    between atoms: C_19  and  C_20
REMARK   12  A    between atoms: C_26  and  C_31
REMARK                            x       y       z     vdW  Elec       q    Type
REMARK                         _______ _______ _______ _____ _____    ______ ____
ROOT
ATOM      1  S   UNL     1       1.694   0.251   0.854  0.00  0.00    -0.141 S 
ENDROOT
BRANCH   1   3
ATOM      2  C   UNL     1       0.780   2.176  -0.861  0.00  0.00    +0.029 C 
ATOM      3  C   UNL     1       0.677   0.674  -0.588  0.00  0.00    +0.129 C 
BRANCH   3   4
ATOM      4  C   UNL     1       1.169  -0.090  -1.790  0.00  0.00    +0.226 C 
ATOM      5  O   UNL     1       2.291  -0.549  -1.800  0.00  0.00    -0.275 OA
ATOM      6  N   UNL     1       0.360  -0.263  -2.855  0.00  0.00    -0.316 N 
ATOM      7  H   UNL     1      -0.537   0.104  -2.847  0.00  0.00    +0.149 HD
BRANCH   6   8
ATOM      8  C   UNL     1       0.838  -1.006  -4.024  0.00  0.00    +0.096 C 
BRANCH   8   9
ATOM      9  C   UNL     1      -0.306  -1.166  -5.028  0.00  0.00    +0.016 C 
BRANCH   9  10
ATOM     10  C   UNL     1      -0.699   0.187  -5.561  0.00  0.00    +0.093 A 
ATOM     11  C   UNL     1      -0.328   0.704  -6.746  0.00  0.00    +0.043 A 
ATOM     12  C   UNL     1      -0.920   1.984  -6.838  0.00  0.00    +0.041 A 
ATOM     13  C   UNL     1      -1.618   2.173  -5.704  0.00  0.00    +0.195 A 
ATOM     14  O   UNL     1      -1.485   1.079  -4.937  0.00  0.00    -0.469 OA
ENDBRANCH   9  10
BRANCH   9  15
ATOM     15  N   UNL     1      -1.460  -1.784  -4.361  0.00  0.00    +0.384 N 
ATOM     16  C   UNL     1      -2.561  -1.930  -5.323  0.00  0.00    -0.096 C 
ATOM     17  C   UNL     1      -1.078  -3.108  -3.849  0.00  0.00    -0.096 C 
ATOM     18  H   UNL     1      -1.758  -1.200  -3.594  0.00  0.00    -0.082 HD
ENDBRANCH   9  15
ENDBRANCH   8   9
ENDBRANCH   6   8
ENDBRANCH   3   4
ENDBRANCH   1   3
BRANCH   1  19
ATOM     19  C   UNL     1       0.891   1.122   2.228  0.00  0.00    +0.144 C 
BRANCH  19  20
ATOM     20  C   UNL     1       1.646   0.851   3.504  0.00  0.00    +0.121 A 
ATOM     21  N   UNL     1       1.213   1.404   4.666  0.00  0.00    -0.310 N 
ATOM     22  H   UNL     1       0.422   1.966   4.659  0.00  0.00    +0.170 HD
ATOM     23  C   UNL     1       1.858   1.187   5.827  0.00  0.00    +0.260 A 
ATOM     24  O   UNL     1       1.455   1.690   6.862  0.00  0.00    -0.267 OA
ATOM     25  C   UNL     1       3.024   0.357   5.828  0.00  0.00    +0.080 A 
ATOM     26  C   UNL     1       3.885  -0.023   6.941  0.00  0.00    +0.004 A 
ATOM     27  C   UNL     1       4.946  -0.830   6.699  0.00  0.00    +0.056 A 
ATOM     28  S   UNL     1       4.846  -1.126   4.944  0.00  0.00    -0.076 S 
ATOM     29  C   UNL     1       3.397  -0.170   4.580  0.00  0.00    +0.116 A 
ATOM     30  N   UNL     1       2.704   0.085   3.474  0.00  0.00    -0.226 NA
BRANCH  26  31
ATOM     31  C   UNL     1       3.605   0.464   8.313  0.00  0.00    -0.017 A 
ATOM     32  C   UNL     1       3.377   1.820   8.541  0.00  0.00    +0.008 A 
ATOM     33  C   UNL     1       3.116   2.268   9.820  0.00  0.00    +0.001 A 
ATOM     34  C   UNL     1       3.080   1.373  10.875  0.00  0.00    +0.000 A 
ATOM     35  C   UNL     1       3.305   0.026  10.655  0.00  0.00    +0.001 A 
ATOM     36  C   UNL     1       3.562  -0.434   9.379  0.00  0.00    +0.008 A 
ENDBRANCH  26  31
ENDBRANCH  19  20
ENDBRANCH   1  19
TORSDOF 9
