REMARK  Name = ZINC35966552
REMARK  11 active torsions:
REMARK  status: ('A' for Active; 'I' for Inactive)
REMARK    1  A    between atoms: C_1  and  C_2
REMARK    2  A    between atoms: C_2  and  N_3
REMARK    3  A    between atoms: C_6  and  C_11
REMARK    4  A    between atoms: C_16  and  C_17
REMARK    5  A    between atoms: N_23  and  C_25
REMARK    6  A    between atoms: C_25  and  C_27
REMARK    7  A    between atoms: C_25  and  C_30
REMARK    8  A    between atoms: C_27  and  C_28
REMARK    9  A    between atoms: C_27  and  C_29
REMARK   10  A    between atoms: N_32  and  C_33
REMARK   11  A    between atoms: C_33  and  C_34
REMARK                            x       y       z     vdW  Elec       q    Type
REMARK                         _______ _______ _______ _____ _____    ______ ____
ROOT
ATOM      1  N   UNL     1      -0.583  -0.734   0.723  0.00  0.00    -0.257 N 
ATOM      2  C   UNL     1      -1.467  -0.883   1.753  0.00  0.00    +0.042 C 
ATOM      3  C   UNL     1      -2.650  -1.505   1.575  0.00  0.00    +0.058 C 
ATOM      4  C   UNL     1      -2.966  -2.034   0.190  0.00  0.00    +0.142 C 
ATOM      5  N   UNL     1      -1.948  -1.823  -0.852  0.00  0.00    -0.288 N 
ATOM      6  C   UNL     1      -0.813  -1.177  -0.520  0.00  0.00    +0.307 C 
ATOM      7  O   UNL     1       0.032  -0.994  -1.375  0.00  0.00    -0.252 OA
ATOM      8  C   UNL     1      -3.378  -1.531   2.782  0.00  0.00    +0.247 C 
ATOM      9  O   UNL     1      -4.480  -2.032   2.910  0.00  0.00    -0.270 OA
ATOM     10  N   UNL     1      -2.695  -0.931   3.774  0.00  0.00    -0.280 N 
ATOM     11  C   UNL     1      -1.421  -0.467   3.206  0.00  0.00    +0.160 C 
ATOM     12  H   UNL     1      -2.092  -2.139  -1.758  0.00  0.00    +0.151 HD
ENDROOT
BRANCH   4  13
ATOM     13  C   UNL     1      -3.213  -3.517   0.304  0.00  0.00    -0.011 A 
ATOM     14  C   UNL     1      -2.161  -4.374   0.569  0.00  0.00    +0.006 A 
ATOM     15  C   UNL     1      -2.387  -5.734   0.673  0.00  0.00    +0.000 A 
ATOM     16  C   UNL     1      -3.666  -6.236   0.514  0.00  0.00    +0.001 A 
ATOM     17  C   UNL     1      -4.717  -5.378   0.251  0.00  0.00    +0.013 A 
ATOM     18  C   UNL     1      -4.492  -4.018   0.150  0.00  0.00    +0.060 A 
BRANCH  18  19
ATOM     19  C   UNL     1      -5.639  -3.083  -0.131  0.00  0.00    +0.418 C 
ATOM     20  F   UNL     1      -6.836  -3.807  -0.155  0.00  0.00    -0.166 F 
ATOM     21  F   UNL     1      -5.703  -2.109   0.871  0.00  0.00    -0.166 F 
ATOM     22  F   UNL     1      -5.443  -2.464  -1.371  0.00  0.00    -0.166 F 
ENDBRANCH  18  19
ENDBRANCH   4  13
BRANCH   1  24
ATOM     23  C   UNL     1       0.509   1.454   0.748  0.00  0.00    +0.025 C 
ATOM     24  C   UNL     1       0.682  -0.046   0.991  0.00  0.00    +0.111 C 
ENDBRANCH   1  24
BRANCH  10  25
ATOM     25  C   UNL     1      -3.139  -0.770   5.161  0.00  0.00    +0.165 C 
BRANCH  25  26
ATOM     26  C   UNL     1      -3.375  -2.127   5.773  0.00  0.00    +0.234 C 
ATOM     27  O   UNL     1      -3.496  -3.101   5.061  0.00  0.00    -0.274 OA
ATOM     28  N   UNL     1      -3.453  -2.257   7.112  0.00  0.00    -0.311 N 
ATOM     29  H   UNL     1      -3.433  -1.470   7.678  0.00  0.00    +0.149 HD
BRANCH  28  30
ATOM     30  C   UNL     1      -3.567  -3.589   7.713  0.00  0.00    +0.135 C 
BRANCH  30  31
ATOM     31  C   UNL     1      -3.637  -3.457   9.236  0.00  0.00    +0.135 C 
ATOM     32  C   UNL     1      -3.636  -4.858   9.884  0.00  0.00    +0.035 C 
ATOM     33  C   UNL     1      -4.650  -4.684  11.047  0.00  0.00    +0.031 C 
ATOM     34  C   UNL     1      -5.657  -3.691  10.413  0.00  0.00    +0.160 C 
ATOM     35  O   UNL     1      -4.857  -2.805   9.611  0.00  0.00    -0.375 OA
ENDBRANCH  30  31
ENDBRANCH  28  30
ENDBRANCH  25  26
BRANCH  25  36
ATOM     36  C   UNL     1      -4.439   0.036   5.190  0.00  0.00    +0.012 C 
ATOM     37  C   UNL     1      -4.848   0.291   6.642  0.00  0.00    +0.009 C 
ATOM     38  C   UNL     1      -4.226   1.373   4.477  0.00  0.00    +0.009 C 
ENDBRANCH  25  36
ENDBRANCH  10  25
TORSDOF 8
