REMARK  Name = ZINC12642571
REMARK  13 active torsions:
REMARK  status: ('A' for Active; 'I' for Inactive)
REMARK    1  A    between atoms: C_1  and  C_2
REMARK    2  A    between atoms: C_8  and  C_10
REMARK    3  A    between atoms: N_16  and  C_32
REMARK    4  A    between atoms: C_17  and  C_25
REMARK    5  A    between atoms: C_22  and  C_24
REMARK    6  A    between atoms: N_27  and  C_28
REMARK    7  A    between atoms: C_28  and  C_29
REMARK    8  A    between atoms: C_28  and  C_30
REMARK    9  A    between atoms: C_28  and  C_31
REMARK   10  A    between atoms: C_32  and  C_33
REMARK   11  A    between atoms: C_33  and  C_34
REMARK   12  A    between atoms: C_34  and  C_35
REMARK   13  A    between atoms: C_34  and  C_36
REMARK                            x       y       z     vdW  Elec       q    Type
REMARK                         _______ _______ _______ _____ _____    ______ ____
ROOT
ATOM      1  C   UNL     1       3.228   4.865  -0.004  0.00  0.00    +0.126 C 
ATOM      2  C   UNL     1       4.756   5.035  -0.095  0.00  0.00    +0.128 C 
ATOM      3  C   UNL     1       5.348   5.980   0.912  0.00  0.00    +0.223 C 
ATOM      4  O   UNL     1       5.105   5.982   2.100  0.00  0.00    -0.275 OA
ATOM      5  N   UNL     1       6.198   6.830   0.283  0.00  0.00    -0.287 N 
ATOM      6  C   UNL     1       6.152   6.631  -1.186  0.00  0.00    +0.198 C 
ATOM      7  C   UNL     1       4.871   5.890  -1.410  0.00  0.00    +0.127 C 
ATOM      8  C   UNL     1       4.612   4.976  -2.554  0.00  0.00    +0.009 C 
ATOM      9  C   UNL     1       3.292   4.751  -2.488  0.00  0.00    +0.007 C 
ATOM     10  C   UNL     1       2.748   5.572  -1.313  0.00  0.00    +0.098 C 
ATOM     11  O   UNL     1       3.677   6.716  -1.338  0.00  0.00    -0.355 OA
ATOM     12  C   UNL     1       1.258   5.915  -1.367  0.00  0.00    +0.047 C 
ENDROOT
BRANCH   1  20
ATOM     13  C   UNL     1       1.663  -1.934  -0.025  0.00  0.00    +0.089 C 
ATOM     14  C   UNL     1       1.254  -0.484  -0.013  0.00  0.00    +0.136 A 
ATOM     15  C   UNL     1       2.079   0.588  -0.015  0.00  0.00    +0.091 A 
ATOM     16  C   UNL     1       1.196   1.700  -0.000  0.00  0.00    +0.168 A 
ATOM     17  N   UNL     1      -0.014   1.205   0.009  0.00  0.00    -0.063 NA
ATOM     18  O   UNL     1       0.002  -0.004   0.002  0.00  0.00    -0.358 OA
ATOM     19  N   UNL     1       1.548   3.050   0.003  0.00  0.00    -0.267 N 
ATOM     20  C   UNL     1       2.848   3.407  -0.008  0.00  0.00    +0.225 C 
ATOM     21  O   UNL     1       3.711   2.555  -0.021  0.00  0.00    -0.275 OA
ATOM     22  H   UNL     1       0.858   3.731   0.013  0.00  0.00    +0.156 HD
ENDBRANCH   1  20
BRANCH   6  23
ATOM     23  C   UNL     1       6.126   7.959  -1.898  0.00  0.00    +0.237 C 
ATOM     24  O   UNL     1       5.809   8.964  -1.297  0.00  0.00    -0.274 OA
ATOM     25  N   UNL     1       6.455   8.030  -3.203  0.00  0.00    -0.309 N 
ATOM     26  H   UNL     1       6.709   7.226  -3.684  0.00  0.00    +0.149 HD
BRANCH  25  27
ATOM     27  C   UNL     1       6.430   9.321  -3.896  0.00  0.00    +0.026 C 
ATOM     28  C   UNL     1       7.405  10.284  -3.216  0.00  0.00    +0.031 C 
ATOM     29  C   UNL     1       6.843   9.124  -5.356  0.00  0.00    +0.031 C 
ATOM     30  C   UNL     1       5.016   9.902  -3.839  0.00  0.00    +0.031 C 
ENDBRANCH  25  27
ENDBRANCH   6  23
BRANCH   5  31
ATOM     31  C   UNL     1       7.047   7.812   0.962  0.00  0.00    +0.109 C 
BRANCH  31  32
ATOM     32  C   UNL     1       8.396   7.174   1.298  0.00  0.00    +0.022 C 
BRANCH  32  33
ATOM     33  C   UNL     1       9.283   8.200   2.008  0.00  0.00    -0.016 C 
ATOM     34  C   UNL     1      10.583   7.528   2.454  0.00  0.00    +0.007 C 
ATOM     35  C   UNL     1       9.605   9.347   1.048  0.00  0.00    +0.007 C 
ENDBRANCH  32  33
ENDBRANCH  31  32
ENDBRANCH   5  31
TORSDOF 6
