REMARK  Name = ZINC12636144
REMARK  11 active torsions:
REMARK  status: ('A' for Active; 'I' for Inactive)
REMARK    1  A    between atoms: C_1  and  C_2
REMARK    2  A    between atoms: C_2  and  O_3
REMARK    3  A    between atoms: O_3  and  C_4
REMARK    4  A    between atoms: C_7  and  S_10
REMARK    5  A    between atoms: S_10  and  N_13
REMARK    6  A    between atoms: N_13  and  N_14
REMARK    7  A    between atoms: N_14  and  C_15
REMARK    8  A    between atoms: N_25  and  C_28
REMARK    9  A    between atoms: C_28  and  C_29
REMARK   10  A    between atoms: C_32  and  O_35
REMARK   11  A    between atoms: O_35  and  C_36
REMARK                            x       y       z     vdW  Elec       q    Type
REMARK                         _______ _______ _______ _____ _____    ______ ____
ROOT
ATOM      1  C   UNL     1      -1.197   1.629   0.017  0.00  0.00    +0.099 C 
ATOM      2  C   UNL     1      -2.378   0.929  -0.086  0.00  0.00    +0.060 C 
ATOM      3  C   UNL     1      -3.674   1.633  -0.188  0.00  0.00    +0.000 A 
ATOM      4  C   UNL     1      -3.754   3.021  -0.186  0.00  0.00    +0.009 A 
ATOM      5  C   UNL     1      -4.988   3.631  -0.285  0.00  0.00    +0.001 A 
ATOM      6  C   UNL     1      -6.144   2.871  -0.385  0.00  0.00    +0.001 A 
ATOM      7  C   UNL     1      -6.084   1.495  -0.388  0.00  0.00    +0.013 A 
ATOM      8  C   UNL     1      -4.847   0.857  -0.290  0.00  0.00    +0.045 A 
ATOM      9  C   UNL     1      -4.739  -0.607  -0.290  0.00  0.00    +0.254 C 
ATOM     10  O   UNL     1      -5.747  -1.282  -0.378  0.00  0.00    -0.270 OA
ATOM     11  N   UNL     1      -3.545  -1.215  -0.196  0.00  0.00    -0.230 N 
ATOM     12  C   UNL     1      -2.388  -0.539  -0.102  0.00  0.00    +0.255 C 
ATOM     13  O   UNL     1      -1.338  -1.149  -0.024  0.00  0.00    -0.269 OA
ENDROOT
BRANCH   1  14
ATOM     14  N   UNL     1      -0.032   0.967   0.241  0.00  0.00    -0.268 N 
ATOM     15  H   UNL     1      -0.040   0.009   0.395  0.00  0.00    +0.167 HD
BRANCH  14  16
ATOM     16  N   UNL     1       1.182   1.666   0.244  0.00  0.00    -0.110 NA
ATOM     17  H   UNL     1       1.431   2.209  -0.520  0.00  0.00    +0.171 HD
BRANCH  16  18
ATOM     18  S   UNL     1       2.192   1.565   1.552  0.00  0.00    +0.073 S 
ATOM     19  O   UNL     1       3.384   2.254   1.199  0.00  0.00    -0.152 OA
ATOM     20  O   UNL     1       1.418   1.917   2.691  0.00  0.00    -0.152 OA
BRANCH  18  24
ATOM     21  C   UNL     1       3.313  -2.794   2.046  0.00  0.00    +0.121 A 
ATOM     22  C   UNL     1       4.089  -1.963   1.251  0.00  0.00    +0.047 A 
ATOM     23  C   UNL     1       3.745  -0.633   1.102  0.00  0.00    +0.032 A 
ATOM     24  C   UNL     1       2.628  -0.131   1.744  0.00  0.00    +0.107 A 
ATOM     25  C   UNL     1       1.857  -0.956   2.542  0.00  0.00    +0.032 A 
ATOM     26  C   UNL     1       2.194  -2.288   2.690  0.00  0.00    +0.047 A 
BRANCH  21  27
ATOM     27  O   UNL     1       3.650  -4.103   2.194  0.00  0.00    -0.492 OA
BRANCH  27  29
ATOM     28  C   UNL     1       3.339  -6.332   3.072  0.00  0.00    +0.048 C 
ATOM     29  C   UNL     1       2.805  -4.899   3.027  0.00  0.00    +0.225 C 
ENDBRANCH  27  29
ENDBRANCH  21  27
ENDBRANCH  18  24
ENDBRANCH  16  18
ENDBRANCH  14  16
ENDBRANCH   1  14
BRANCH  11  30
ATOM     30  C   UNL     1      -3.501  -2.679  -0.202  0.00  0.00    +0.152 C 
BRANCH  30  31
ATOM     31  C   UNL     1      -3.369  -3.172  -1.620  0.00  0.00    -0.029 A 
ATOM     32  C   UNL     1      -4.502  -3.438  -2.366  0.00  0.00    +0.009 A 
ATOM     33  C   UNL     1      -4.384  -3.885  -3.668  0.00  0.00    +0.046 A 
ATOM     34  C   UNL     1      -3.127  -4.077  -4.223  0.00  0.00    +0.120 A 
ATOM     35  C   UNL     1      -1.992  -3.815  -3.470  0.00  0.00    +0.046 A 
ATOM     36  C   UNL     1      -2.115  -3.363  -2.170  0.00  0.00    +0.009 A 
BRANCH  34  37
ATOM     37  O   UNL     1      -3.008  -4.521  -5.501  0.00  0.00    -0.495 OA
ATOM     38  C   UNL     1      -4.220  -4.771  -6.217  0.00  0.00    +0.277 C 
ENDBRANCH  34  37
ENDBRANCH  30  31
ENDBRANCH  11  30
TORSDOF 9
