REMARK  Name = ZINC09492492
REMARK  9 active torsions:
REMARK  status: ('A' for Active; 'I' for Inactive)
REMARK    1  A    between atoms: C_1  and  C_2
REMARK    2  A    between atoms: C_4  and  C_14
REMARK    3  A    between atoms: C_5  and  C_13
REMARK    4  A    between atoms: N_6  and  C_7
REMARK    5  A    between atoms: N_20  and  C_21
REMARK    6  A    between atoms: C_25  and  S_27
REMARK    7  A    between atoms: S_27  and  N_30
REMARK    8  A    between atoms: N_30  and  C_31
REMARK    9  A    between atoms: N_30  and  C_32
REMARK                            x       y       z     vdW  Elec       q    Type
REMARK                         _______ _______ _______ _____ _____    ______ ____
ROOT
ATOM      1  C   UNL     1       2.013  -1.833  -0.523  0.00  0.00    +0.083 C 
ATOM      2  N   UNL     1       1.113  -2.760  -0.504  0.00  0.00    -0.150 NA
ATOM      3  N   UNL     1       1.373  -4.117  -0.363  0.00  0.00    -0.127 NA
ATOM      4  C   UNL     1       2.459  -4.589   0.198  0.00  0.00    +0.180 C 
ATOM      5  S   UNL     1       3.690  -3.486   0.814  0.00  0.00    -0.082 S 
ATOM      6  C   UNL     1       3.480  -2.126  -0.364  0.00  0.00    +0.135 C 
ATOM      7  N   UNL     1       2.640  -5.949   0.307  0.00  0.00    -0.293 N 
ATOM      8  H   UNL     1       3.477  -6.301   0.648  0.00  0.00    +0.154 HD
ENDROOT
BRANCH   1  12
ATOM      9  C   UNL     1       2.081   3.245  -1.022  0.00  0.00    +0.064 C 
ATOM     10  C   UNL     1       1.636   1.809  -0.919  0.00  0.00    +0.022 A 
ATOM     11  C   UNL     1       2.447   0.750  -0.742  0.00  0.00    +0.033 A 
ATOM     12  C   UNL     1       1.585  -0.436  -0.700  0.00  0.00    +0.020 A 
ATOM     13  C   UNL     1       0.305   0.016  -0.858  0.00  0.00    +0.030 A 
ATOM     14  N   UNL     1       0.345   1.371  -0.989  0.00  0.00    -0.317 N 
ATOM     15  C   UNL     1      -0.937  -0.838  -0.883  0.00  0.00    +0.064 C 
BRANCH  14  16
ATOM     16  C   UNL     1      -0.774   2.194  -1.175  0.00  0.00    +0.047 A 
ATOM     17  C   UNL     1      -1.528   2.091  -2.337  0.00  0.00    +0.026 A 
ATOM     18  C   UNL     1      -2.633   2.900  -2.515  0.00  0.00    +0.002 A 
ATOM     19  C   UNL     1      -2.983   3.820  -1.543  0.00  0.00    +0.000 A 
ATOM     20  C   UNL     1      -2.231   3.928  -0.387  0.00  0.00    +0.002 A 
ATOM     21  C   UNL     1      -1.128   3.118  -0.201  0.00  0.00    +0.026 A 
ENDBRANCH  14  16
ENDBRANCH   1  12
BRANCH   7  22
ATOM     22  C   UNL     1       1.617  -6.822  -0.072  0.00  0.00    +0.035 A 
ATOM     23  C   UNL     1       0.288  -6.458   0.105  0.00  0.00    +0.023 A 
ATOM     24  C   UNL     1      -0.720  -7.321  -0.276  0.00  0.00    +0.004 A 
ATOM     25  C   UNL     1      -0.408  -8.552  -0.824  0.00  0.00    +0.028 A 
ATOM     26  C   UNL     1       0.913  -8.920  -0.997  0.00  0.00    +0.107 A 
ATOM     27  C   UNL     1       1.926  -8.059  -0.623  0.00  0.00    +0.051 A 
BRANCH  26  28
ATOM     28  S   UNL     1       1.305 -10.490  -1.695  0.00  0.00    +0.060 S 
ATOM     29  O   UNL     1       0.177 -10.885  -2.465  0.00  0.00    -0.153 OA
ATOM     30  O   UNL     1       2.606 -10.372  -2.255  0.00  0.00    -0.153 OA
BRANCH  28  31
ATOM     31  N   UNL     1       1.424 -11.567  -0.443  0.00  0.00    -0.183 NA
ATOM     32  C   UNL     1       0.240 -12.304   0.004  0.00  0.00    +0.131 C 
ATOM     33  C   UNL     1       2.713 -11.782   0.218  0.00  0.00    +0.131 C 
ENDBRANCH  28  31
ENDBRANCH  26  28
ENDBRANCH   7  22
TORSDOF 5
