REMARK  Name = ZINC09018077
REMARK  8 active torsions:
REMARK  status: ('A' for Active; 'I' for Inactive)
REMARK    1  A    between atoms: C_1  and  C_2
REMARK    2  A    between atoms: C_4  and  N_19
REMARK    3  A    between atoms: C_20  and  C_22
REMARK    4  A    between atoms: C_22  and  C_23
REMARK    5  A    between atoms: C_26  and  C_29
REMARK    6  A    between atoms: C_29  and  C_30
REMARK    7  A    between atoms: C_29  and  C_31
REMARK    8  A    between atoms: C_29  and  C_32
REMARK                            x       y       z     vdW  Elec       q    Type
REMARK                         _______ _______ _______ _____ _____    ______ ____
ROOT
ATOM      1  C   UNL     1       1.188   5.519   6.675  0.00  0.00    +0.067 C 
ATOM      2  C   UNL     1       1.167   5.952   5.231  0.00  0.00    +0.062 A 
ATOM      3  C   UNL     1       1.169   5.098   4.122  0.00  0.00    +0.068 A 
ATOM      4  C   UNL     1       1.147   5.869   3.002  0.00  0.00    +0.132 A 
ATOM      5  N   UNL     1       1.139   7.173   3.404  0.00  0.00    -0.185 N 
ATOM      6  N   UNL     1       1.146   7.188   4.805  0.00  0.00    -0.167 NA
ATOM      7  C   UNL     1       1.123   8.281   2.577  0.00  0.00    +0.234 A 
ATOM      8  N   UNL     1       1.116   9.525   3.125  0.00  0.00    -0.291 N 
ATOM      9  H   UNL     1       1.125   9.634   4.089  0.00  0.00    +0.172 HD
ATOM     10  C   UNL     1       1.098  10.605   2.320  0.00  0.00    +0.256 A 
ATOM     11  O   UNL     1       1.093  11.730   2.793  0.00  0.00    -0.267 OA
ATOM     12  C   UNL     1       1.084  10.418   0.919  0.00  0.00    +0.038 A 
ATOM     13  C   UNL     1       1.099   9.153   0.429  0.00  0.00    +0.053 A 
ATOM     14  N   UNL     1       1.121   8.115   1.276  0.00  0.00    -0.217 NA
ATOM     15  C   UNL     1       1.100   8.854  -1.048  0.00  0.00    +0.056 C 
ATOM     16  C   UNL     1       0.639  10.074  -1.843  0.00  0.00    +0.006 C 
ATOM     17  C   UNL     1       1.460  11.286  -1.387  0.00  0.00    +0.005 C 
ATOM     18  C   UNL     1       1.044  11.638   0.041  0.00  0.00    +0.042 C 
ENDROOT
BRANCH   4  19
ATOM     19  N   UNL     1       1.141   5.411   1.686  0.00  0.00    -0.270 N 
ATOM     20  C   UNL     1       1.157   4.087   1.433  0.00  0.00    +0.223 C 
ATOM     21  O   UNL     1       1.176   3.295   2.351  0.00  0.00    -0.275 OA
ATOM     22  H   UNL     1       1.126   6.045   0.953  0.00  0.00    +0.156 HD
BRANCH  20  23
ATOM     23  C   UNL     1       1.151   3.592   0.010  0.00  0.00    +0.131 C 
BRANCH  23  24
ATOM     24  C   UNL     1       1.171   2.086   0.002  0.00  0.00    -0.039 A 
ATOM     25  C   UNL     1      -0.017   1.378   0.010  0.00  0.00    +0.004 A 
ATOM     26  C   UNL     1       0.002  -0.004   0.002  0.00  0.00    +0.004 A 
ATOM     27  C   UNL     1       1.208  -0.679  -0.014  0.00  0.00    -0.042 A 
ATOM     28  C   UNL     1       2.396   0.029  -0.021  0.00  0.00    +0.004 A 
ATOM     29  C   UNL     1       2.377   1.411  -0.014  0.00  0.00    +0.004 A 
BRANCH  27  30
ATOM     30  C   UNL     1       1.229  -2.186  -0.022  0.00  0.00    -0.013 C 
ATOM     31  C   UNL     1       0.502  -2.699  -1.267  0.00  0.00    +0.015 C 
ATOM     32  C   UNL     1       2.678  -2.676  -0.039  0.00  0.00    +0.015 C 
ATOM     33  C   UNL     1       0.527  -2.712   1.232  0.00  0.00    +0.015 C 
ENDBRANCH  27  30
ENDBRANCH  23  24
ENDBRANCH  20  23
ENDBRANCH   4  19
TORSDOF 4
