REMARK  Name = ZINC44235144
REMARK  12 active torsions:
REMARK  status: ('A' for Active; 'I' for Inactive)
REMARK    1  A    between atoms: C_1  and  C_2
REMARK    2  A    between atoms: C_2  and  C_3
REMARK    3  A    between atoms: C_3  and  C_4
REMARK    4  A    between atoms: C_4  and  C_5
REMARK    5  A    between atoms: C_5  and  C_6
REMARK    6  A    between atoms: C_9  and  C_12
REMARK    7  A    between atoms: C_12  and  C_14
REMARK    8  A    between atoms: C_18  and  C_23
REMARK    9  A    between atoms: C_23  and  C_25
REMARK   10  A    between atoms: C_23  and  N_28
REMARK   11  A    between atoms: C_25  and  C_26
REMARK   12  A    between atoms: C_26  and  O_27
REMARK                            x       y       z     vdW  Elec       q    Type
REMARK                         _______ _______ _______ _____ _____    ______ ____
ROOT
ATOM      1  C   UNL     1       0.389  -9.021  -3.092  0.00  0.00    +0.176 A 
ATOM      2  C   UNL     1       0.252 -10.375  -3.059  0.00  0.00    +0.061 A 
ATOM      3  C   UNL     1      -1.029 -10.667  -3.700  0.00  0.00    +0.021 A 
ATOM      4  C   UNL     1      -1.734 -11.842  -3.975  0.00  0.00    +0.013 A 
ATOM      5  C   UNL     1      -2.944 -11.773  -4.607  0.00  0.00    -0.061 A 
ATOM      6  C   UNL     1      -3.475 -10.544  -4.978  0.00  0.00    +0.005 A 
ATOM      7  C   UNL     1      -2.795  -9.375  -4.716  0.00  0.00    +0.047 A 
ATOM      8  C   UNL     1      -1.563  -9.419  -4.073  0.00  0.00    +0.136 A 
ATOM      9  O   UNL     1      -0.689  -8.469  -3.687  0.00  0.00    -0.452 OA
ENDROOT
BRANCH   1  10
ATOM     10  C   UNL     1       1.533  -8.275  -2.556  0.00  0.00    +0.228 C 
ATOM     11  O   UNL     1       2.500  -8.873  -2.120  0.00  0.00    -0.283 OA
BRANCH  10  15
ATOM     12  C   UNL     1       1.473  -4.028  -2.527  0.00  0.00    -0.047 A 
ATOM     13  C   UNL     1       2.514  -4.706  -1.918  0.00  0.00    +0.004 A 
ATOM     14  C   UNL     1       2.540  -6.085  -1.923  0.00  0.00    +0.012 A 
ATOM     15  C   UNL     1       1.512  -6.797  -2.546  0.00  0.00    +0.025 A 
ATOM     16  C   UNL     1       0.465  -6.106  -3.158  0.00  0.00    +0.012 A 
ATOM     17  C   UNL     1       0.449  -4.727  -3.140  0.00  0.00    +0.004 A 
BRANCH  12  18
ATOM     18  C   UNL     1       1.452  -2.521  -2.517  0.00  0.00    +0.035 C 
BRANCH  18  19
ATOM     19  C   UNL     1       0.713  -2.030  -1.270  0.00  0.00    +0.005 C 
BRANCH  19  20
ATOM     20  C   UNL     1       0.691  -0.500  -1.260  0.00  0.00    +0.000 C 
BRANCH  20  22
ATOM     21  C   UNL     1      -0.069   1.521  -0.003  0.00  0.00    +0.004 C 
ATOM     22  C   UNL     1      -0.047  -0.009  -0.013  0.00  0.00    -0.003 C 
ENDBRANCH  20  22
ENDBRANCH  19  20
ENDBRANCH  18  19
ENDBRANCH  12  18
ENDBRANCH  10  15
ENDBRANCH   1  10
BRANCH   5  23
ATOM     23  C   UNL     1      -3.706 -13.038  -4.905  0.00  0.00    -0.042 C 
BRANCH  23  24
ATOM     24  N   UNL     1      -4.319 -12.938  -6.236  0.00  0.00    +0.383 N 
ATOM     25  H   UNL     1      -4.952 -12.152  -6.257  0.00  0.00    -0.089 HD
ATOM     26  H   UNL     1      -3.599 -12.809  -6.930  0.00  0.00    -0.089 HD
ATOM     27  H   UNL     1      -4.830 -13.786  -6.435  0.00  0.00    -0.089 HD
ENDBRANCH  23  24
BRANCH  23  28
ATOM     28  C   UNL     1      -4.799 -13.234  -3.853  0.00  0.00    +0.016 C 
BRANCH  28  29
ATOM     29  C   UNL     1      -5.491 -14.580  -4.081  0.00  0.00    +0.154 C 
BRANCH  29  30
ATOM     30  O   UNL     1      -6.512 -14.763  -3.098  0.00  0.00    -0.395 OA
ATOM     31  H   UNL     1      -6.994 -15.597  -3.183  0.00  0.00    +0.209 HD
ENDBRANCH  29  30
ENDBRANCH  28  29
ENDBRANCH  23  28
ENDBRANCH   5  23
TORSDOF 11
