REMARK  Name = ZINC01405497
REMARK  12 active torsions:
REMARK  status: ('A' for Active; 'I' for Inactive)
REMARK    1  A    between atoms: C_1  and  C_2
REMARK    2  A    between atoms: C_5  and  C_8
REMARK    3  A    between atoms: C_8  and  C_10
REMARK    4  A    between atoms: C_8  and  N_22
REMARK    5  A    between atoms: N_12  and  C_13
REMARK    6  A    between atoms: N_22  and  C_23
REMARK    7  A    between atoms: C_23  and  C_24
REMARK    8  A    between atoms: C_30  and  C_32
REMARK    9  A    between atoms: C_32  and  S_33
REMARK   10  A    between atoms: S_33  and  C_34
REMARK   11  A    between atoms: C_36  and  C_41
REMARK   12  A    between atoms: C_38  and  C_40
REMARK                            x       y       z     vdW  Elec       q    Type
REMARK                         _______ _______ _______ _____ _____    ______ ____
ROOT
ATOM      1  C   UNL     1       3.082   6.190  -0.292  0.00  0.00    +0.193 C 
ENDROOT
BRANCH   1   6
ATOM      2  C   UNL     1       1.304   5.386   5.147  0.00  0.00    +0.044 C 
ATOM      3  C   UNL     1       1.768   5.596   3.729  0.00  0.00    -0.050 A 
ATOM      4  C   UNL     1       0.842   5.789   2.720  0.00  0.00    +0.004 A 
ATOM      5  C   UNL     1       1.267   5.981   1.419  0.00  0.00    +0.006 A 
ATOM      6  C   UNL     1       2.618   5.981   1.126  0.00  0.00    -0.018 A 
ATOM      7  C   UNL     1       3.544   5.783   2.134  0.00  0.00    +0.006 A 
ATOM      8  C   UNL     1       3.119   5.596   3.436  0.00  0.00    +0.004 A 
ENDBRANCH   1   6
BRANCH   1   9
ATOM      9  C   UNL     1       3.661   7.574  -0.433  0.00  0.00    +0.242 C 
ATOM     10  O   UNL     1       4.722   7.733  -0.998  0.00  0.00    -0.273 OA
ATOM     11  N   UNL     1       2.999   8.635   0.070  0.00  0.00    -0.284 N 
ATOM     12  H   UNL     1       2.146   8.509   0.513  0.00  0.00    +0.155 HD
BRANCH  11  13
ATOM     13  C   UNL     1       3.544   9.920  -0.049  0.00  0.00    +0.037 A 
ATOM     14  C   UNL     1       4.873  10.145   0.285  0.00  0.00    +0.027 A 
ATOM     15  C   UNL     1       5.412  11.411   0.164  0.00  0.00    +0.051 A 
ATOM     16  C   UNL     1       4.627  12.462  -0.281  0.00  0.00    +0.166 A 
ATOM     17  C   UNL     1       3.292  12.241  -0.612  0.00  0.00    +0.168 A 
ATOM     18  C   UNL     1       2.753  10.971  -0.495  0.00  0.00    +0.072 A 
ATOM     19  O   UNL     1       2.742  13.423  -1.018  0.00  0.00    -0.453 OA
ATOM     20  C   UNL     1       3.637  14.447  -0.544  0.00  0.00    +0.466 C 
ATOM     21  O   UNL     1       4.913  13.783  -0.480  0.00  0.00    -0.453 OA
ENDBRANCH  11  13
ENDBRANCH   1   9
BRANCH   1  22
ATOM     22  N   UNL     1       4.106   5.196  -0.623  0.00  0.00    -0.281 N 
ATOM     23  C   UNL     1       3.802   3.883  -0.605  0.00  0.00    +0.227 C 
ATOM     24  O   UNL     1       2.643   3.530  -0.547  0.00  0.00    -0.275 OA
BRANCH  22  25
ATOM     25  C   UNL     1       5.461   5.629  -0.972  0.00  0.00    +0.145 C 
BRANCH  25  26
ATOM     26  C   UNL     1       5.525   5.941  -2.445  0.00  0.00    -0.012 A 
ATOM     27  C   UNL     1       4.901   5.112  -3.366  0.00  0.00    +0.008 A 
ATOM     28  C   UNL     1       4.982   5.441  -4.710  0.00  0.00    +0.020 A 
ATOM     29  C   UNL     1       5.684   6.571  -5.086  0.00  0.00    +0.111 A 
ATOM     30  N   UNL     1       6.269   7.333  -4.184  0.00  0.00    -0.263 NA
ATOM     31  C   UNL     1       6.209   7.054  -2.896  0.00  0.00    +0.115 A 
ENDBRANCH  25  26
ENDBRANCH  22  25
BRANCH  23  32
ATOM     32  C   UNL     1       4.902   2.854  -0.657  0.00  0.00    +0.173 C 
BRANCH  32  33
ATOM     33  S   UNL     1       4.204   1.210  -0.363  0.00  0.00    -0.077 S 
BRANCH  33  34
ATOM     34  C   UNL     1       5.666   0.233  -0.477  0.00  0.00    +0.189 A 
ATOM     35  N   UNL     1       5.581  -1.080  -0.315  0.00  0.00    -0.227 NA
ATOM     36  C   UNL     1       6.659  -1.842  -0.394  0.00  0.00    +0.043 A 
ATOM     37  C   UNL     1       7.887  -1.252  -0.649  0.00  0.00    +0.046 A 
ATOM     38  C   UNL     1       7.941   0.123  -0.813  0.00  0.00    +0.043 A 
ATOM     39  N   UNL     1       6.825   0.828  -0.722  0.00  0.00    -0.227 NA
ATOM     40  C   UNL     1       9.254   0.807  -1.092  0.00  0.00    +0.066 C 
ATOM     41  C   UNL     1       6.554  -3.334  -0.208  0.00  0.00    +0.066 C 
ENDBRANCH  33  34
ENDBRANCH  32  33
ENDBRANCH  23  32
ENDBRANCH   1  22
TORSDOF 9
