REMARK  Name = ZINC08747579
REMARK  7 active torsions:
REMARK  status: ('A' for Active; 'I' for Inactive)
REMARK    1  A    between atoms: C_6  and  C_7
REMARK    2  A    between atoms: C_10  and  C_12
REMARK    3  A    between atoms: C_12  and  N_13
REMARK    4  A    between atoms: N_13  and  C_14
REMARK    5  A    between atoms: C_17  and  S_23
REMARK    6  A    between atoms: C_19  and  N_20
REMARK    7  A    between atoms: S_23  and  N_26
REMARK                            x       y       z     vdW  Elec       q    Type
REMARK                         _______ _______ _______ _____ _____    ______ ____
ROOT
ATOM      1  N   UNL     1      -2.667   2.817   5.090  0.00  0.00    -0.335 N 
ATOM      2  H   UNL     1      -3.249   2.174   5.523  0.00  0.00    +0.147 HD
ENDROOT
BRANCH   1   3
ATOM      3  C   UNL     1      -2.151   2.547   3.820  0.00  0.00    +0.058 A 
ATOM      4  C   UNL     1      -1.221   3.407   3.249  0.00  0.00    +0.027 A 
ATOM      5  C   UNL     1      -0.710   3.134   1.996  0.00  0.00    +0.030 A 
ATOM      6  C   UNL     1      -1.130   2.012   1.304  0.00  0.00    +0.107 A 
ATOM      7  C   UNL     1      -2.055   1.154   1.870  0.00  0.00    +0.063 A 
ATOM      8  C   UNL     1      -2.567   1.418   3.126  0.00  0.00    +0.149 A 
BRANCH   8   9
ATOM      9  N   UNL     1      -3.556   0.499   3.730  0.00  0.00    +0.058 N 
ATOM     10  O   UNL     1      -3.453  -0.703   3.563  0.00  0.00    -0.126 OA
ATOM     11  O   UNL     1      -4.474   0.944   4.396  0.00  0.00    -0.126 OA
ENDBRANCH   8   9
BRANCH   6  12
ATOM     12  S   UNL     1      -0.480   1.672  -0.298  0.00  0.00    +0.056 S 
ATOM     13  O   UNL     1      -0.618   0.273  -0.503  0.00  0.00    -0.153 OA
ATOM     14  O   UNL     1       0.776   2.333  -0.375  0.00  0.00    -0.153 OA
BRANCH  12  15
ATOM     15  N   UNL     1      -1.473   2.412  -1.397  0.00  0.00    -0.204 NA
ATOM     16  H   UNL     1      -2.244   2.915  -1.091  0.00  0.00    +0.144 HD
ATOM     17  H   UNL     1      -1.284   2.343  -2.345  0.00  0.00    +0.144 HD
ENDBRANCH  12  15
ENDBRANCH   6  12
ENDBRANCH   1   3
BRANCH   1  18
ATOM     18  C   UNL     1      -2.327   4.071   5.766  0.00  0.00    +0.176 C 
BRANCH  18  22
ATOM     19  C   UNL     1      -4.511   4.492   8.665  0.00  0.00    +0.135 A 
ATOM     20  C   UNL     1      -3.450   3.896   9.272  0.00  0.00    +0.050 A 
ATOM     21  C   UNL     1      -2.492   3.653   8.267  0.00  0.00    +0.047 A 
ATOM     22  C   UNL     1      -3.007   4.116   7.111  0.00  0.00    +0.123 A 
ATOM     23  O   UNL     1      -4.228   4.619   7.355  0.00  0.00    -0.458 OA
BRANCH  19  29
ATOM     24  C   UNL     1      -5.928   4.728  10.700  0.00  0.00    +0.012 A 
ATOM     25  C   UNL     1      -7.093   5.137  11.315  0.00  0.00    +0.016 A 
ATOM     26  C   UNL     1      -8.097   5.734  10.572  0.00  0.00    +0.018 A 
ATOM     27  C   UNL     1      -7.938   5.928   9.211  0.00  0.00    +0.016 A 
ATOM     28  C   UNL     1      -6.775   5.527   8.586  0.00  0.00    +0.012 A 
ATOM     29  C   UNL     1      -5.759   4.925   9.329  0.00  0.00    +0.017 A 
ATOM     30 BR   UNL     1      -9.694   6.286  11.421  0.00  0.00    -0.050 Br
ENDBRANCH  19  29
ENDBRANCH  18  22
ENDBRANCH   1  18
TORSDOF 7
