REMARK  Name = ZINC00870476
REMARK  6 active torsions:
REMARK  status: ('A' for Active; 'I' for Inactive)
REMARK    1  A    between atoms: C_1  and  C_2
REMARK    2  A    between atoms: C_3  and  C_25
REMARK    3  A    between atoms: C_10  and  S_14
REMARK    4  A    between atoms: S_14  and  C_15
REMARK    5  A    between atoms: C_15  and  C_16
REMARK    6  A    between atoms: N_18  and  C_19
REMARK                            x       y       z     vdW  Elec       q    Type
REMARK                         _______ _______ _______ _____ _____    ______ ____
ROOT
ATOM      1  C   UNL     1      11.010   3.282   1.135  0.00  0.00    +0.045 C 
ATOM      2  C   UNL     1      11.078   2.026   1.965  0.00  0.00    -0.028 A 
ATOM      3  C   UNL     1      12.253   1.631   2.491  0.00  0.00    -0.008 A 
ATOM      4  S   UNL     1      11.814   0.135   3.360  0.00  0.00    -0.074 S 
ATOM      5  C   UNL     1      10.081   0.115   2.973  0.00  0.00    +0.114 A 
ATOM      6  C   UNL     1       9.916   1.268   2.187  0.00  0.00    +0.055 A 
ATOM      7  C   UNL     1       8.534   1.504   1.715  0.00  0.00    +0.173 A 
ATOM      8  N   UNL     1       7.967   2.432   0.983  0.00  0.00    -0.128 NA
ATOM      9  N   UNL     1       6.712   2.174   0.853  0.00  0.00    -0.122 NA
ATOM     10  C   UNL     1       6.403   1.074   1.501  0.00  0.00    +0.198 A 
ATOM     11  N   UNL     1       7.554   0.604   2.071  0.00  0.00    -0.260 N 
ATOM     12  C   UNL     1       7.855  -0.480   2.844  0.00  0.00    +0.208 A 
ATOM     13  N   UNL     1       9.069  -0.697   3.265  0.00  0.00    -0.230 NA
ATOM     14  C   UNL     1      13.603   2.291   2.377  0.00  0.00    +0.052 C 
ENDROOT
BRANCH  10  15
ATOM     15  S   UNL     1       4.806   0.337   1.609  0.00  0.00    -0.076 S 
BRANCH  15  16
ATOM     16  C   UNL     1       3.745   1.447   0.644  0.00  0.00    +0.173 C 
BRANCH  16  17
ATOM     17  C   UNL     1       2.331   0.926   0.654  0.00  0.00    +0.224 C 
ATOM     18  O   UNL     1       2.066  -0.095   1.254  0.00  0.00    -0.275 OA
ATOM     19  N   UNL     1       1.362   1.593  -0.002  0.00  0.00    -0.312 N 
ATOM     20  H   UNL     1       1.602   2.518  -0.546  0.00  0.00    +0.149 HD
BRANCH  19  21
ATOM     21  C   UNL     1      -0.013   1.086   0.008  0.00  0.00    +0.073 C 
ATOM     22  C   UNL     1      -0.729   1.579   1.267  0.00  0.00    +0.022 C 
ATOM     23  C   UNL     1      -2.164   1.050   1.278  0.00  0.00    +0.002 C 
ATOM     24  C   UNL     1      -2.904   1.556   0.038  0.00  0.00    +0.000 C 
ATOM     25  C   UNL     1      -2.188   1.063  -1.221  0.00  0.00    +0.002 C 
ATOM     26  C   UNL     1      -0.753   1.593  -1.232  0.00  0.00    +0.022 C 
ENDBRANCH  19  21
ENDBRANCH  16  17
ENDBRANCH  15  16
ENDBRANCH  10  15
TORSDOF 4
