REMARK  Name = ZINC36490739
REMARK  8 active torsions:
REMARK  status: ('A' for Active; 'I' for Inactive)
REMARK    1  A    between atoms: C_1  and  C_2
REMARK    2  A    between atoms: C_2  and  C_4
REMARK    3  A    between atoms: C_2  and  C_10
REMARK    4  A    between atoms: C_10  and  C_12
REMARK    5  A    between atoms: C_10  and  N_21
REMARK    6  A    between atoms: N_14  and  C_15
REMARK    7  A    between atoms: N_21  and  C_22
REMARK    8  A    between atoms: C_28  and  C_30
REMARK                            x       y       z     vdW  Elec       q    Type
REMARK                         _______ _______ _______ _____ _____    ______ ____
ROOT
ATOM      1  C   UNL     1       0.656  -1.005  -1.800  0.00  0.00    +0.169 C 
ENDROOT
BRANCH   1   2
ATOM      2  C   UNL     1       0.551  -2.435  -2.266  0.00  0.00    +0.234 C 
ATOM      3  O   UNL     1      -0.105  -2.705  -3.249  0.00  0.00    -0.274 OA
ATOM      4  N   UNL     1       1.185  -3.413  -1.589  0.00  0.00    -0.311 N 
ATOM      5  H   UNL     1       1.710  -3.196  -0.802  0.00  0.00    +0.149 HD
BRANCH   4   6
ATOM      6  C   UNL     1       1.082  -4.802  -2.042  0.00  0.00    +0.073 C 
ATOM      7  C   UNL     1      -0.189  -5.432  -1.469  0.00  0.00    +0.022 C 
ATOM      8  C   UNL     1      -0.296  -6.883  -1.942  0.00  0.00    +0.002 C 
ATOM      9  C   UNL     1       0.925  -7.669  -1.458  0.00  0.00    +0.000 C 
ATOM     10  C   UNL     1       2.196  -7.039  -2.030  0.00  0.00    +0.002 C 
ATOM     11  C   UNL     1       2.303  -5.587  -1.558  0.00  0.00    +0.022 C 
ENDBRANCH   4   6
ENDBRANCH   1   2
BRANCH   1  12
ATOM     12  N   UNL     1      -0.116  -0.142  -2.697  0.00  0.00    -0.285 N 
ATOM     13  C   UNL     1       0.510   0.800  -3.430  0.00  0.00    +0.237 C 
ATOM     14  O   UNL     1      -0.138   1.579  -4.098  0.00  0.00    -0.274 OA
BRANCH  13  15
ATOM     15  C   UNL     1       2.014   0.887  -3.420  0.00  0.00    +0.159 C 
ATOM     16  C   UNL     1       2.488   1.837  -2.297  0.00  0.00    +0.041 C 
ATOM     17  C   UNL     1       2.614   3.180  -3.053  0.00  0.00    +0.098 C 
ATOM     18  C   UNL     1       2.836   2.775  -4.494  0.00  0.00    +0.214 C 
ATOM     19  O   UNL     1       3.258   3.507  -5.364  0.00  0.00    -0.276 OA
ATOM     20  N   UNL     1       2.497   1.484  -4.670  0.00  0.00    -0.304 N 
ATOM     21  H   UNL     1       2.564   1.010  -5.513  0.00  0.00    +0.149 HD
ENDBRANCH  13  15
BRANCH  12  22
ATOM     22  C   UNL     1      -1.569  -0.302  -2.796  0.00  0.00    +0.077 C 
ATOM     23  C   UNL     1      -1.952  -0.591  -4.249  0.00  0.00    +0.022 C 
ATOM     24  C   UNL     1      -3.469  -0.758  -4.354  0.00  0.00    +0.002 C 
ATOM     25  C   UNL     1      -4.157   0.528  -3.891  0.00  0.00    +0.000 C 
ATOM     26  C   UNL     1      -3.774   0.817  -2.438  0.00  0.00    +0.002 C 
ATOM     27  C   UNL     1      -2.257   0.984  -2.334  0.00  0.00    +0.022 C 
ENDBRANCH  12  22
ENDBRANCH   1  12
BRANCH   1  29
ATOM     28  C   UNL     1       0.125   0.576   0.060  0.00  0.00    +0.015 C 
ATOM     29  C   UNL     1       0.103  -0.890  -0.379  0.00  0.00    +0.045 C 
BRANCH  29  30
ATOM     30  C   UNL     1       0.953  -1.708   0.559  0.00  0.00    -0.042 A 
ATOM     31  C   UNL     1       2.297  -1.418   0.704  0.00  0.00    +0.004 A 
ATOM     32  C   UNL     1       3.076  -2.168   1.565  0.00  0.00    +0.000 A 
ATOM     33  C   UNL     1       2.512  -3.208   2.280  0.00  0.00    +0.000 A 
ATOM     34  C   UNL     1       1.168  -3.497   2.136  0.00  0.00    +0.000 A 
ATOM     35  C   UNL     1       0.387  -2.744   1.279  0.00  0.00    +0.004 A 
ENDBRANCH  29  30
ENDBRANCH   1  29
TORSDOF 7
