REMARK  Name = ZINC05753345
REMARK  6 active torsions:
REMARK  status: ('A' for Active; 'I' for Inactive)
REMARK    1  A    between atoms: C_7  and  C_15
REMARK    2  A    between atoms: C_15  and  O_17
REMARK    3  A    between atoms: O_17  and  C_18
REMARK    4  A    between atoms: C_18  and  C_19
REMARK    5  A    between atoms: N_21  and  C_22
REMARK    6  A    between atoms: C_23  and  C_27
REMARK                            x       y       z     vdW  Elec       q    Type
REMARK                         _______ _______ _______ _____ _____    ______ ____
ROOT
ATOM      1  C   UNL     1      -1.426   3.053  -3.581  0.00  0.00    +0.341 C 
ATOM      2  O   UNL     1      -2.491   2.585  -3.930  0.00  0.00    -0.245 OA
ENDROOT
BRANCH   1   9
ATOM      3  C   UNL     1      -2.089   7.258  -3.217  0.00  0.00    +0.001 A 
ATOM      4  C   UNL     1      -1.980   7.886  -1.978  0.00  0.00    +0.002 A 
ATOM      5  C   UNL     1      -1.658   7.181  -0.860  0.00  0.00    +0.028 A 
ATOM      6  C   UNL     1      -1.431   5.795  -0.949  0.00  0.00    +0.072 A 
ATOM      7  C   UNL     1      -1.546   5.161  -2.211  0.00  0.00    +0.015 A 
ATOM      8  C   UNL     1      -1.877   5.918  -3.342  0.00  0.00    +0.011 A 
ATOM      9  C   UNL     1      -1.319   3.766  -2.291  0.00  0.00    +0.073 A 
ATOM     10  C   UNL     1      -0.994   3.081  -1.120  0.00  0.00    -0.012 A 
ATOM     11  C   UNL     1      -0.896   3.777   0.077  0.00  0.00    +0.046 A 
ATOM     12  N   UNL     1      -1.115   5.077   0.126  0.00  0.00    -0.251 NA
ATOM     13  C   UNL     1      -0.533   3.094   1.372  0.00  0.00    +0.056 C 
ATOM     14  C   UNL     1      -0.741   1.585   1.261  0.00  0.00    +0.006 C 
ATOM     15  C   UNL     1      -0.013   1.086   0.008  0.00  0.00    +0.005 C 
ATOM     16  C   UNL     1      -0.762   1.597  -1.221  0.00  0.00    +0.038 C 
ENDBRANCH   1   9
BRANCH   1  17
ATOM     17  O   UNL     1      -0.343   2.923  -4.371  0.00  0.00    -0.452 OA
BRANCH  17  18
ATOM     18  C   UNL     1      -0.521   2.211  -5.623  0.00  0.00    +0.328 C 
BRANCH  18  19
ATOM     19  C   UNL     1       0.789   2.166  -6.367  0.00  0.00    +0.255 C 
ATOM     20  O   UNL     1       1.776   2.683  -5.888  0.00  0.00    -0.272 OA
ATOM     21  N   UNL     1       0.864   1.551  -7.564  0.00  0.00    -0.277 N 
ATOM     22  H   UNL     1       0.074   1.138  -7.947  0.00  0.00    +0.155 HD
BRANCH  21  23
ATOM     23  C   UNL     1       2.069   1.509  -8.248  0.00  0.00    +0.084 A 
ATOM     24  C   UNL     1       2.344   0.924  -9.478  0.00  0.00    +0.065 A 
ATOM     25  C   UNL     1       3.700   1.034  -9.961  0.00  0.00    +0.022 A 
ATOM     26  C   UNL     1       4.580   1.684  -9.178  0.00  0.00    +0.048 A 
ATOM     27  S   UNL     1       3.599   2.168  -7.773  0.00  0.00    -0.081 S 
BRANCH  24  28
ATOM     28  C   UNL     1       1.308   0.231 -10.248  0.00  0.00    +0.244 C 
ATOM     29  O   UNL     1       0.173   0.158  -9.814  0.00  0.00    -0.270 OA
ATOM     30  N   UNL     1       1.611  -0.326 -11.438  0.00  0.00    -0.325 N 
ATOM     31  H   UNL     1       2.515  -0.268 -11.784  0.00  0.00    +0.145 HD
ATOM     32  H   UNL     1       0.925  -0.784 -11.948  0.00  0.00    +0.145 HD
ENDBRANCH  24  28
ENDBRANCH  21  23
ENDBRANCH  18  19
ENDBRANCH  17  18
ENDBRANCH   1  17
TORSDOF 6
