REMARK  Name = ZINC19972995
REMARK  13 active torsions:
REMARK  status: ('A' for Active; 'I' for Inactive)
REMARK    1  A    between atoms: C_1  and  C_2
REMARK    2  A    between atoms: C_2  and  C_3
REMARK    3  A    between atoms: C_10  and  C_15
REMARK    4  A    between atoms: C_15  and  C_17
REMARK    5  A    between atoms: C_15  and  N_26
REMARK    6  A    between atoms: N_21  and  C_22
REMARK    7  A    between atoms: C_22  and  C_23
REMARK    8  A    between atoms: C_22  and  C_24
REMARK    9  A    between atoms: C_22  and  C_25
REMARK   10  A    between atoms: N_26  and  C_27
REMARK   11  A    between atoms: N_26  and  C_35
REMARK   12  A    between atoms: C_27  and  C_28
REMARK   13  A    between atoms: C_35  and  C_36
REMARK                            x       y       z     vdW  Elec       q    Type
REMARK                         _______ _______ _______ _____ _____    ______ ____
ROOT
ATOM      1  C   UNL     1       1.230   6.440   0.370  0.00  0.00    +0.163 C 
ENDROOT
BRANCH   1   9
ATOM      2  C   UNL     1      -1.104   0.750  -0.310  0.00  0.00    -0.047 A 
ATOM      3  C   UNL     1       0.099   0.071  -0.171  0.00  0.00    +0.005 A 
ATOM      4  C   UNL     1       1.275   0.758   0.039  0.00  0.00    +0.026 A 
ATOM      5  C   UNL     1       1.258   2.147   0.119  0.00  0.00    +0.049 A 
ATOM      6  C   UNL     1       0.035   2.832  -0.017  0.00  0.00    -0.001 A 
ATOM      7  C   UNL     1      -1.146   2.113  -0.229  0.00  0.00    +0.013 A 
ATOM      8  C   UNL     1       0.027   4.293   0.069  0.00  0.00    +0.021 A 
ATOM      9  C   UNL     1       1.203   4.936   0.276  0.00  0.00    +0.042 A 
ATOM     10  C   UNL     1       2.402   4.202   0.404  0.00  0.00    +0.254 A 
ATOM     11  O   UNL     1       3.447   4.800   0.590  0.00  0.00    -0.268 OA
ATOM     12  N   UNL     1       2.419   2.860   0.328  0.00  0.00    -0.322 N 
ATOM     13  H   UNL     1       3.377   2.332   0.434  0.00  0.00    +0.169 HD
BRANCH   2  15
ATOM     14  C   UNL     1      -3.018  -0.371   0.799  0.00  0.00    +0.009 C 
ATOM     15  C   UNL     1      -2.376  -0.024  -0.545  0.00  0.00    +0.032 C 
ENDBRANCH   2  15
ENDBRANCH   1   9
BRANCH   1  16
ATOM     16  C   UNL     1       1.650   6.850   1.758  0.00  0.00    +0.174 A 
ATOM     17  N   UNL     1       2.857   6.778   2.263  0.00  0.00    -0.111 NA
ATOM     18  N   UNL     1       2.810   7.223   3.471  0.00  0.00    -0.023 NA
ATOM     19  N   UNL     1       1.603   7.570   3.752  0.00  0.00    -0.043 NA
ATOM     20  N   UNL     1       0.858   7.354   2.721  0.00  0.00    -0.222 N 
BRANCH  20  21
ATOM     21  C   UNL     1      -0.581   7.611   2.619  0.00  0.00    +0.059 C 
ATOM     22  C   UNL     1      -1.305   6.316   2.244  0.00  0.00    +0.036 C 
ATOM     23  C   UNL     1      -1.106   8.117   3.964  0.00  0.00    +0.036 C 
ATOM     24  C   UNL     1      -0.836   8.668   1.543  0.00  0.00    +0.036 C 
ENDBRANCH  20  21
ENDBRANCH   1  16
BRANCH   1  25
ATOM     25  N   UNL     1       2.186   6.975  -0.609  0.00  0.00    -0.282 NA
BRANCH  25  26
ATOM     26  C   UNL     1       2.142   8.443  -0.640  0.00  0.00    +0.120 C 
BRANCH  26  27
ATOM     27  C   UNL     1       3.015   8.995   0.457  0.00  0.00    -0.033 A 
ATOM     28  C   UNL     1       2.454   9.372   1.663  0.00  0.00    +0.006 A 
ATOM     29  C   UNL     1       3.255   9.873   2.672  0.00  0.00    +0.020 A 
ATOM     30  C   UNL     1       4.617  10.007   2.471  0.00  0.00    +0.041 A 
ATOM     31  C   UNL     1       5.178   9.635   1.262  0.00  0.00    +0.020 A 
ATOM     32  C   UNL     1       4.376   9.129   0.256  0.00  0.00    +0.006 A 
ATOM     33 CL   UNL     1       5.623  10.643   3.735  0.00  0.00    -0.084 Cl
ENDBRANCH  26  27
ENDBRANCH  25  26
BRANCH  25  34
ATOM     34  C   UNL     1       1.942   6.413  -1.944  0.00  0.00    +0.117 C 
BRANCH  34  35
ATOM     35  C   UNL     1       3.161   6.664  -2.834  0.00  0.00    +0.132 C 
ATOM     36  C   UNL     1       2.883   6.184  -4.276  0.00  0.00    +0.035 C 
ATOM     37  C   UNL     1       4.233   5.594  -4.742  0.00  0.00    +0.031 C 
ATOM     38  C   UNL     1       5.167   5.788  -3.527  0.00  0.00    +0.160 C 
ATOM     39  O   UNL     1       4.282   5.870  -2.387  0.00  0.00    -0.375 OA
ENDBRANCH  34  35
ENDBRANCH  25  34
ENDBRANCH   1  25
TORSDOF 9
