REMARK  Name = ZINC10629882
REMARK  8 active torsions:
REMARK  status: ('A' for Active; 'I' for Inactive)
REMARK    1  A    between atoms: C_1  and  C_2
REMARK    2  A    between atoms: C_3  and  C_9
REMARK    3  A    between atoms: C_4  and  C_8
REMARK    4  A    between atoms: N_5  and  C_7
REMARK    5  A    between atoms: C_9  and  C_10
REMARK    6  A    between atoms: N_12  and  N_13
REMARK    7  A    between atoms: C_14  and  C_16
REMARK    8  A    between atoms: C_18  and  C_26
REMARK                            x       y       z     vdW  Elec       q    Type
REMARK                         _______ _______ _______ _____ _____    ______ ____
ROOT
ATOM      1  N   UNL     1       2.526  -3.970  -3.031  0.00  0.00    -0.230 N 
ATOM      2  C   UNL     1       2.940  -5.226  -3.288  0.00  0.00    +0.261 C 
ATOM      3  O   UNL     1       3.192  -5.983  -2.371  0.00  0.00    -0.269 OA
ATOM      4  H   UNL     1       2.325  -3.366  -3.764  0.00  0.00    +0.173 HD
ENDROOT
BRANCH   2   5
ATOM      5  C   UNL     1       3.088  -5.685  -4.687  0.00  0.00    +0.049 A 
ATOM      6  C   UNL     1       2.693  -4.884  -5.747  0.00  0.00    +0.042 A 
ATOM      7  C   UNL     1       2.853  -5.350  -7.062  0.00  0.00    +0.072 A 
ATOM      8  N   UNL     1       3.361  -6.539  -7.317  0.00  0.00    -0.247 NA
ATOM      9  C   UNL     1       3.755  -7.359  -6.340  0.00  0.00    +0.072 A 
ATOM     10  C   UNL     1       3.633  -6.961  -4.985  0.00  0.00    +0.013 A 
ATOM     11  C   UNL     1       4.049  -7.829  -3.968  0.00  0.00    +0.011 A 
ATOM     12  C   UNL     1       4.567  -9.048  -4.290  0.00  0.00    +0.001 A 
ATOM     13  C   UNL     1       4.689  -9.443  -5.621  0.00  0.00    +0.002 A 
ATOM     14  C   UNL     1       4.295  -8.625  -6.634  0.00  0.00    +0.028 A 
BRANCH   7  15
ATOM     15  C   UNL     1       2.434  -4.485  -8.191  0.00  0.00    +0.000 A 
ATOM     16  C   UNL     1       1.888  -3.226  -7.943  0.00  0.00    +0.011 A 
ATOM     17  C   UNL     1       1.504  -2.424  -8.998  0.00  0.00    +0.020 A 
ATOM     18  C   UNL     1       1.650  -2.871 -10.300  0.00  0.00    +0.041 A 
ATOM     19  C   UNL     1       2.187  -4.122 -10.551  0.00  0.00    +0.020 A 
ATOM     20  C   UNL     1       2.579  -4.931  -9.504  0.00  0.00    +0.011 A 
ATOM     21 CL   UNL     1       1.158  -1.859 -11.622  0.00  0.00    -0.084 Cl
ENDBRANCH   7  15
ENDBRANCH   2   5
BRANCH   1  24
ATOM     22  C   UNL     1       1.972  -2.279  -1.450  0.00  0.00    +0.234 C 
ATOM     23  O   UNL     1       1.721  -1.524  -2.365  0.00  0.00    -0.274 OA
ATOM     24  N   UNL     1       2.386  -3.536  -1.707  0.00  0.00    -0.234 N 
ATOM     25  H   UNL     1       2.587  -4.139  -0.975  0.00  0.00    +0.173 HD
BRANCH  22  26
ATOM     26  C   UNL     1       1.822  -1.812  -0.025  0.00  0.00    +0.136 C 
BRANCH  26  29
ATOM     27  C   UNL     1       3.672   0.760  -0.016  0.00  0.00    +0.068 C 
ATOM     28  C   UNL     1       2.166   0.755  -0.009  0.00  0.00    +0.064 A 
ATOM     29  C   UNL     1       1.349  -0.381  -0.013  0.00  0.00    +0.005 A 
ATOM     30  C   UNL     1       0.061   0.032  -0.004  0.00  0.00    +0.040 A 
ATOM     31  N   UNL     1       0.061   1.381   0.006  0.00  0.00    -0.271 N 
ATOM     32  N   UNL     1       1.395   1.812   0.002  0.00  0.00    -0.176 NA
ATOM     33  C   UNL     1      -1.123   2.244   0.012  0.00  0.00    +0.172 C 
ATOM     34  C   UNL     1      -1.157  -0.856  -0.004  0.00  0.00    +0.065 C 
ENDBRANCH  26  29
ENDBRANCH  22  26
ENDBRANCH   1  24
TORSDOF 5
