REMARK  Name = ZINC39540253
REMARK  11 active torsions:
REMARK  status: ('A' for Active; 'I' for Inactive)
REMARK    1  A    between atoms: C_1  and  C_2
REMARK    2  A    between atoms: C_2  and  C_3
REMARK    3  A    between atoms: C_2  and  S_4
REMARK    4  A    between atoms: S_4  and  C_7
REMARK    5  A    between atoms: C_10  and  C_13
REMARK    6  A    between atoms: C_13  and  C_15
REMARK    7  A    between atoms: C_13  and  N_18
REMARK    8  A    between atoms: C_15  and  N_16
REMARK    9  A    between atoms: C_22  and  S_25
REMARK   10  A    between atoms: S_25  and  O_28
REMARK   11  A    between atoms: O_28  and  C_29
REMARK                            x       y       z     vdW  Elec       q    Type
REMARK                         _______ _______ _______ _____ _____    ______ ____
ROOT
ATOM      1  N   UNL     1      -0.265  -6.844   1.644  0.00  0.00    -0.296 NA
ATOM      2  C   UNL     1       0.570  -8.039   1.452  0.00  0.00    +0.066 C 
ATOM      3  C   UNL     1       1.506  -8.202   2.651  0.00  0.00    -0.064 C 
ATOM      4  N   UNL     1       0.712  -8.332   3.879  0.00  0.00    +0.398 N 
ATOM      5  C   UNL     1      -0.098  -7.121   4.071  0.00  0.00    +0.130 C 
ATOM      6  C   UNL     1      -1.048  -6.949   2.883  0.00  0.00    +0.095 C 
ATOM      7  H   UNL     1       0.104  -9.133   3.803  0.00  0.00    -0.083 HD
ATOM      8  H   UNL     1       1.329  -8.451   4.668  0.00  0.00    -0.083 HD
ENDROOT
BRANCH   5   9
ATOM      9  S   UNL     1      -1.062  -7.274   5.599  0.00  0.00    +0.109 S 
ATOM     10  O   UNL     1      -1.712  -6.045   5.893  0.00  0.00    -0.138 OA
ATOM     11  O   UNL     1      -1.788  -8.495   5.600  0.00  0.00    -0.138 OA
BRANCH   9  12
ATOM     12  O   UNL     1      -0.025  -7.438   6.701  0.00  0.00    -0.347 OA
BRANCH  12  13
ATOM     13  C   UNL     1       0.623  -6.289   7.026  0.00  0.00    +0.156 A 
ATOM     14  C   UNL     1       1.790  -5.939   6.362  0.00  0.00    +0.048 A 
ATOM     15  C   UNL     1       2.448  -4.770   6.694  0.00  0.00    +0.004 A 
ATOM     16  C   UNL     1       1.943  -3.949   7.686  0.00  0.00    +0.000 A 
ATOM     17  C   UNL     1       0.780  -4.296   8.348  0.00  0.00    +0.004 A 
ATOM     18  C   UNL     1       0.116  -5.461   8.017  0.00  0.00    +0.048 A 
ENDBRANCH  12  13
ENDBRANCH   9  12
ENDBRANCH   5   9
BRANCH   1  19
ATOM     19  C   UNL     1      -1.140  -6.621   0.486  0.00  0.00    +0.103 C 
BRANCH  19  23
ATOM     20  C   UNL     1      -1.620  -2.425  -0.150  0.00  0.00    +0.088 A 
ATOM     21  C   UNL     1      -1.374  -3.262  -1.222  0.00  0.00    +0.027 A 
ATOM     22  C   UNL     1      -1.219  -4.620  -1.016  0.00  0.00    +0.007 A 
ATOM     23  C   UNL     1      -1.309  -5.141   0.261  0.00  0.00    -0.029 A 
ATOM     24  C   UNL     1      -1.554  -4.303   1.333  0.00  0.00    +0.007 A 
ATOM     25  C   UNL     1      -1.705  -2.944   1.128  0.00  0.00    +0.027 A 
BRANCH  20  26
ATOM     26  S   UNL     1      -1.819  -0.693  -0.413  0.00  0.00    -0.001 S 
ATOM     27  O   UNL     1      -2.621  -0.252   0.674  0.00  0.00    -0.169 OA
ATOM     28  O   UNL     1      -2.285  -0.581  -1.750  0.00  0.00    -0.169 OA
BRANCH  26  30
ATOM     29  C   UNL     1      -0.212   1.520  -0.363  0.00  0.00    +0.032 C 
ATOM     30  C   UNL     1      -0.146  -0.006  -0.275  0.00  0.00    +0.130 C 
ATOM     31  C   UNL     1       0.464  -0.413   1.068  0.00  0.00    +0.032 C 
ENDBRANCH  26  30
ENDBRANCH  20  26
ENDBRANCH  19  23
BRANCH  19  32
ATOM     32  C   UNL     1      -2.507  -7.256   0.749  0.00  0.00    +0.140 C 
BRANCH  32  33
ATOM     33  N   UNL     1      -2.336  -8.688   1.028  0.00  0.00    -0.157 NA
ATOM     34  F   UNL     1      -3.482  -9.258   1.257  0.00  0.00    -0.136 F 
ATOM     35  H   UNL     1      -1.847  -9.148   0.274  0.00  0.00    +0.159 HD
ENDBRANCH  32  33
ENDBRANCH  19  32
ENDBRANCH   1  19
TORSDOF 9
