REMARK  Name = ZINC55633418
REMARK  7 active torsions:
REMARK  status: ('A' for Active; 'I' for Inactive)
REMARK    1  A    between atoms: C_1  and  C_2
REMARK    2  A    between atoms: C_2  and  C_3
REMARK    3  A    between atoms: C_2  and  C_4
REMARK    4  A    between atoms: C_6  and  C_10
REMARK    5  A    between atoms: C_15  and  N_16
REMARK    6  A    between atoms: N_16  and  S_17
REMARK    7  A    between atoms: S_17  and  C_20
REMARK                            x       y       z     vdW  Elec       q    Type
REMARK                         _______ _______ _______ _____ _____    ______ ____
ROOT
ATOM      1  C   UNL     1      -4.295  -2.431  -1.522  0.00  0.00    +0.041 A 
ATOM      2  C   UNL     1      -3.998  -2.989  -2.765  0.00  0.00    +0.013 A 
ATOM      3  C   UNL     1      -4.890  -3.855  -3.361  0.00  0.00    +0.001 A 
ATOM      4  C   UNL     1      -6.082  -4.174  -2.731  0.00  0.00    +0.002 A 
ATOM      5  C   UNL     1      -6.388  -3.628  -1.500  0.00  0.00    +0.025 A 
ATOM      6  C   UNL     1      -5.498  -2.760  -0.883  0.00  0.00    +0.059 A 
ENDROOT
BRANCH   1   9
ATOM      7  C   UNL     1      -1.576  -0.304  -0.504  0.00  0.00    +0.154 A 
ATOM      8  N   UNL     1      -2.158  -1.157  -1.344  0.00  0.00    -0.211 NA
ATOM      9  C   UNL     1      -3.342  -1.502  -0.878  0.00  0.00    +0.158 A 
ATOM     10  N   UNL     1      -3.529  -0.854   0.295  0.00  0.00    -0.258 N 
ATOM     11  H   UNL     1      -4.307  -0.908   0.872  0.00  0.00    +0.191 HD
ATOM     12  N   UNL     1      -2.370  -0.092   0.513  0.00  0.00    -0.157 NA
BRANCH   7  14
ATOM     13  C   UNL     1      -0.349   1.837  -0.740  0.00  0.00    +0.015 C 
ATOM     14  C   UNL     1      -0.215   0.314  -0.693  0.00  0.00    +0.053 C 
ATOM     15  C   UNL     1       0.692  -0.083   0.473  0.00  0.00    +0.015 C 
ENDBRANCH   7  14
ENDBRANCH   1   9
BRANCH   6  16
ATOM     16  N   UNL     1      -5.803  -2.213   0.361  0.00  0.00    -0.216 N 
ATOM     17  H   UNL     1      -5.452  -2.620   1.169  0.00  0.00    +0.174 HD
BRANCH  16  18
ATOM     18  S   UNL     1      -6.764  -0.869   0.462  0.00  0.00    +0.072 S 
ATOM     19  O   UNL     1      -6.907  -0.575   1.845  0.00  0.00    -0.150 OA
ATOM     20  O   UNL     1      -6.244   0.073  -0.467  0.00  0.00    -0.150 OA
BRANCH  18  21
ATOM     21  C   UNL     1      -8.362  -1.325  -0.124  0.00  0.00    +0.108 A 
ATOM     22  C   UNL     1      -8.668  -1.198  -1.466  0.00  0.00    +0.029 A 
ATOM     23  C   UNL     1      -9.922  -1.556  -1.925  0.00  0.00    +0.002 A 
ATOM     24  C   UNL     1     -10.869  -2.042  -1.043  0.00  0.00    +0.000 A 
ATOM     25  C   UNL     1     -10.562  -2.170   0.299  0.00  0.00    +0.002 A 
ATOM     26  C   UNL     1      -9.307  -1.815   0.758  0.00  0.00    +0.029 A 
ENDBRANCH  18  21
ENDBRANCH  16  18
ENDBRANCH   6  16
TORSDOF 5
