REMARK  Name = ZINC15879094
REMARK  7 active torsions:
REMARK  status: ('A' for Active; 'I' for Inactive)
REMARK    1  A    between atoms: C_1  and  C_2
REMARK    2  A    between atoms: C_2  and  N_3
REMARK    3  A    between atoms: N_3  and  C_4
REMARK    4  A    between atoms: C_14  and  N_15
REMARK    5  A    between atoms: N_15  and  S_16
REMARK    6  A    between atoms: S_16  and  C_19
REMARK    7  A    between atoms: C_22  and  C_25
REMARK                            x       y       z     vdW  Elec       q    Type
REMARK                         _______ _______ _______ _____ _____    ______ ____
ROOT
ATOM      1  N   UNL     1       1.673  -2.211  -0.117  0.00  0.00    -0.208 N 
ATOM      2  H   UNL     1       2.617  -2.429  -0.173  0.00  0.00    +0.174 HD
ENDROOT
BRANCH   1  13
ATOM      3  C   UNL     1       1.165  -4.450   0.644  0.00  0.00    +0.068 A 
ATOM      4  C   UNL     1       0.172  -5.386   1.194  0.00  0.00    +0.040 A 
ATOM      5  C   UNL     1       0.509  -6.713   1.468  0.00  0.00    +0.013 A 
ATOM      6  C   UNL     1      -0.443  -7.565   1.982  0.00  0.00    +0.001 A 
ATOM      7  C   UNL     1      -1.730  -7.110   2.228  0.00  0.00    +0.004 A 
ATOM      8  C   UNL     1      -2.076  -5.801   1.962  0.00  0.00    +0.047 A 
ATOM      9  C   UNL     1      -1.131  -4.926   1.442  0.00  0.00    +0.141 A 
ATOM     10  O   UNL     1      -1.456  -3.642   1.177  0.00  0.00    -0.421 OA
ATOM     11  C   UNL     1      -0.564  -2.773   0.675  0.00  0.00    +0.362 A 
ATOM     12  O   UNL     1      -0.913  -1.626   0.455  0.00  0.00    -0.243 OA
ATOM     13  C   UNL     1       0.764  -3.149   0.403  0.00  0.00    +0.154 A 
BRANCH   3  14
ATOM     14  N   UNL     1       2.462  -4.857   0.383  0.00  0.00    -0.342 N 
ATOM     15  H   UNL     1       2.760  -5.736   0.664  0.00  0.00    +0.146 HD
BRANCH  14  17
ATOM     16  C   UNL     1       4.626  -4.741  -0.750  0.00  0.00    +0.024 C 
ATOM     17  C   UNL     1       3.384  -3.960  -0.317  0.00  0.00    +0.098 C 
ENDBRANCH  14  17
ENDBRANCH   3  14
ENDBRANCH   1  13
BRANCH   1  18
ATOM     18  S   UNL     1       1.134  -0.733  -0.635  0.00  0.00    +0.073 S 
ATOM     19  O   UNL     1       2.268  -0.039  -1.136  0.00  0.00    -0.150 OA
ATOM     20  O   UNL     1      -0.021  -0.977  -1.427  0.00  0.00    -0.150 OA
BRANCH  18  21
ATOM     21  C   UNL     1       0.591   0.151   0.789  0.00  0.00    +0.109 A 
ATOM     22  C   UNL     1      -0.729   0.549   0.893  0.00  0.00    +0.029 A 
ATOM     23  C   UNL     1      -1.155   1.243   2.010  0.00  0.00    +0.006 A 
ATOM     24  C   UNL     1      -0.262   1.539   3.023  0.00  0.00    -0.044 A 
ATOM     25  C   UNL     1       1.058   1.140   2.919  0.00  0.00    +0.006 A 
ATOM     26  C   UNL     1       1.483   0.443   1.804  0.00  0.00    +0.029 A 
BRANCH  24  27
ATOM     27  C   UNL     1      -0.726   2.296   4.240  0.00  0.00    +0.019 C 
ATOM     28  C   UNL     1       0.065   3.600   4.362  0.00  0.00    +0.008 C 
ATOM     29  C   UNL     1      -0.406   4.369   5.598  0.00  0.00    +0.001 C 
ATOM     30  C   UNL     1      -0.178   3.515   6.847  0.00  0.00    +0.000 C 
ATOM     31  C   UNL     1      -0.970   2.211   6.725  0.00  0.00    +0.001 C 
ATOM     32  C   UNL     1      -0.498   1.442   5.489  0.00  0.00    +0.008 C 
ENDBRANCH  24  27
ENDBRANCH  18  21
ENDBRANCH   1  18
TORSDOF 6
