REMARK  Name = ZINC14663900
REMARK  14 active torsions:
REMARK  status: ('A' for Active; 'I' for Inactive)
REMARK    1  A    between atoms: C_1  and  C_2
REMARK    2  A    between atoms: C_2  and  C_3
REMARK    3  A    between atoms: C_3  and  O_4
REMARK    4  A    between atoms: O_4  and  C_5
REMARK    5  A    between atoms: C_10  and  C_11
REMARK    6  A    between atoms: N_13  and  C_14
REMARK    7  A    between atoms: C_14  and  N_16
REMARK    8  A    between atoms: C_22  and  C_24
REMARK    9  A    between atoms: C_24  and  C_25
REMARK   10  A    between atoms: C_25  and  O_27
REMARK   11  A    between atoms: O_27  and  C_28
REMARK   12  A    between atoms: C_28  and  C_29
REMARK   13  A    between atoms: C_29  and  C_30
REMARK   14  A    between atoms: C_29  and  C_31
REMARK                            x       y       z     vdW  Elec       q    Type
REMARK                         _______ _______ _______ _____ _____    ______ ____
ROOT
ATOM      1  C   UNL     1      -4.864   4.310   0.057  0.00  0.00    +0.140 C 
ATOM      2  S   UNL     1      -3.493   3.294  -0.084  0.00  0.00    -0.018 S 
ENDROOT
BRANCH   1   3
ATOM      3  N   UNL     1      -6.091   3.769   0.190  0.00  0.00    -0.299 N 
ATOM      4  C   UNL     1      -6.277   2.316   0.337  0.00  0.00    +0.126 C 
ATOM      5  C   UNL     1      -6.937   2.053   1.692  0.00  0.00    +0.123 C 
ATOM      6  N   UNL     1      -8.062   2.953   1.902  0.00  0.00    -0.312 N 
ATOM      7  C   UNL     1      -8.226   4.120   1.276  0.00  0.00    +0.234 C 
ATOM      8  O   UNL     1      -9.165   4.819   1.593  0.00  0.00    -0.274 OA
ATOM      9  C   UNL     1      -7.299   4.608   0.201  0.00  0.00    +0.171 C 
ATOM     10  H   UNL     1      -8.741   2.686   2.541  0.00  0.00    +0.149 HD
BRANCH   9  11
ATOM     11  C   UNL     1      -8.001   4.514  -1.155  0.00  0.00    +0.152 C 
BRANCH  11  12
ATOM     12  C   UNL     1      -7.128   5.133  -2.216  0.00  0.00    +0.309 C 
ATOM     13  O   UNL     1      -6.115   5.713  -1.903  0.00  0.00    -0.251 OA
BRANCH  12  14
ATOM     14  O   UNL     1      -7.476   5.042  -3.509  0.00  0.00    -0.464 OA
BRANCH  14  15
ATOM     15  C   UNL     1      -6.588   5.661  -4.477  0.00  0.00    +0.235 C 
BRANCH  15  16
ATOM     16  C   UNL     1      -7.145   5.454  -5.886  0.00  0.00    +0.020 C 
ATOM     17  C   UNL     1      -8.475   6.198  -6.023  0.00  0.00    +0.010 C 
ATOM     18  C   UNL     1      -6.149   5.997  -6.913  0.00  0.00    +0.010 C 
ENDBRANCH  15  16
ENDBRANCH  14  15
ENDBRANCH  12  14
ENDBRANCH  11  12
ENDBRANCH   9  11
ENDBRANCH   1   3
BRANCH   1  21
ATOM     19  C   UNL     1      -3.482   6.190   0.006  0.00  0.00    +0.253 C 
ATOM     20  O   UNL     1      -2.502   5.470   0.001  0.00  0.00    -0.270 OA
ATOM     21  N   UNL     1      -4.716   5.649   0.034  0.00  0.00    -0.264 N 
ATOM     22  H   UNL     1      -5.498   6.223   0.037  0.00  0.00    +0.157 HD
BRANCH  19  28
ATOM     23  C   UNL     1      -2.039   8.223  -0.049  0.00  0.00    +0.133 A 
ATOM     24  C   UNL     1      -1.898   9.602  -0.072  0.00  0.00    +0.047 A 
ATOM     25  C   UNL     1      -3.015  10.413  -0.067  0.00  0.00    +0.019 A 
ATOM     26  C   UNL     1      -4.285   9.856  -0.039  0.00  0.00    +0.019 A 
ATOM     27  C   UNL     1      -4.443   8.487  -0.009  0.00  0.00    +0.032 A 
ATOM     28  C   UNL     1      -3.320   7.656  -0.019  0.00  0.00    +0.080 A 
ATOM     29 BR   UNL     1      -5.806  10.980  -0.033  0.00  0.00    -0.050 Br
BRANCH  23  30
ATOM     30  O   UNL     1      -0.941   7.426  -0.054  0.00  0.00    -0.491 OA
BRANCH  30  31
ATOM     31  C   UNL     1       0.332   8.075  -0.085  0.00  0.00    +0.229 C 
BRANCH  31  33
ATOM     32  C   UNL     1       2.804   7.716  -0.120  0.00  0.00    +0.007 C 
ATOM     33  C   UNL     1       1.442   7.021  -0.087  0.00  0.00    +0.038 C 
ENDBRANCH  31  33
ENDBRANCH  30  31
ENDBRANCH  23  30
ENDBRANCH  19  28
ENDBRANCH   1  21
TORSDOF 11
