REMARK  Name = ZINC09881745
REMARK  9 active torsions:
REMARK  status: ('A' for Active; 'I' for Inactive)
REMARK    1  A    between atoms: C_1  and  C_2
REMARK    2  A    between atoms: C_2  and  C_3
REMARK    3  A    between atoms: C_6  and  C_15
REMARK    4  A    between atoms: C_13  and  O_14
REMARK    5  A    between atoms: C_15  and  S_16
REMARK    6  A    between atoms: S_16  and  C_17
REMARK    7  A    between atoms: C_20  and  C_29
REMARK    8  A    between atoms: N_21  and  C_22
REMARK    9  A    between atoms: C_29  and  N_62
REMARK                            x       y       z     vdW  Elec       q    Type
REMARK                         _______ _______ _______ _____ _____    ______ ____
ROOT
ATOM      1  C   UNL     1       0.174   0.961   2.735  0.00  0.00    +0.196 A 
ATOM      2  N   UNL     1       1.240   0.221   2.533  0.00  0.00    -0.122 NA
ATOM      3  N   UNL     1       1.754  -0.123   3.659  0.00  0.00    -0.135 NA
ATOM      4  C   UNL     1       1.049   0.362   4.642  0.00  0.00    +0.122 A 
ATOM      5  N   UNL     1       0.015   1.071   4.089  0.00  0.00    -0.276 N 
ENDROOT
BRANCH   5   6
ATOM      6  C   UNL     1      -0.996   1.766   4.770  0.00  0.00    +0.050 A 
ATOM      7  C   UNL     1      -0.676   2.865   5.555  0.00  0.00    +0.029 A 
ATOM      8  C   UNL     1      -1.673   3.551   6.221  0.00  0.00    +0.040 A 
ATOM      9  C   UNL     1      -2.990   3.137   6.114  0.00  0.00    +0.124 A 
ATOM     10  C   UNL     1      -3.310   2.037   5.335  0.00  0.00    +0.040 A 
ATOM     11  C   UNL     1      -2.316   1.352   4.664  0.00  0.00    +0.029 A 
ATOM     12  F   UNL     1      -3.963   3.806   6.769  0.00  0.00    -0.205 F 
ENDBRANCH   5   6
BRANCH   1  13
ATOM     13  S   UNL     1      -0.860   1.669   1.497  0.00  0.00    -0.081 S 
BRANCH  13  14
ATOM     14  C   UNL     1      -0.013   1.086   0.008  0.00  0.00    +0.113 C 
BRANCH  14  18
ATOM     15  C   UNL     1      -3.190  -1.159  -1.883  0.00  0.00    -0.005 A 
ATOM     16  C   UNL     1      -2.189  -0.443  -1.293  0.00  0.00    +0.019 A 
ATOM     17  C   UNL     1      -1.813   0.796  -1.825  0.00  0.00    +0.022 A 
ATOM     18  C   UNL     1      -0.742   1.585  -1.213  0.00  0.00    -0.020 A 
ATOM     19  C   UNL     1      -0.419   2.777  -1.779  0.00  0.00    +0.097 A 
ATOM     20  C   UNL     1      -1.116   3.222  -2.922  0.00  0.00    +0.338 A 
ATOM     21  O   UNL     1      -0.817   4.293  -3.419  0.00  0.00    -0.245 OA
ATOM     22  O   UNL     1      -2.100   2.496  -3.475  0.00  0.00    -0.422 OA
ATOM     23  C   UNL     1      -2.470   1.303  -2.961  0.00  0.00    +0.143 A 
ATOM     24  C   UNL     1      -3.488   0.566  -3.545  0.00  0.00    +0.092 A 
ATOM     25  C   UNL     1      -3.840  -0.664  -3.012  0.00  0.00    +0.124 A 
BRANCH  15  27
ATOM     26  C   UNL     1      -4.858  -2.321  -0.463  0.00  0.00    +0.009 C 
ATOM     27  C   UNL     1      -3.595  -2.492  -1.310  0.00  0.00    +0.035 C 
ENDBRANCH  15  27
BRANCH  25  28
ATOM     28  O   UNL     1      -4.835  -1.387  -3.587  0.00  0.00    -0.506 OA
ATOM     29  H   UNL     1      -5.715  -1.194  -3.236  0.00  0.00    +0.292 HD
ENDBRANCH  25  28
ENDBRANCH  14  18
ENDBRANCH  13  14
ENDBRANCH   1  13
BRANCH   4  30
ATOM     30  C   UNL     1       1.319   0.177   6.113  0.00  0.00    -0.001 C 
BRANCH  30  36
ATOM     31  C   UNL     1      -0.833  -0.853   6.518  0.00  0.00    -0.078 C 
ATOM     32  C   UNL     1      -1.522  -2.170   6.885  0.00  0.00    -0.019 C 
ATOM     33  C   UNL     1      -1.108  -2.579   8.301  0.00  0.00    -0.004 C 
ATOM     34  C   UNL     1       0.417  -2.703   8.363  0.00  0.00    -0.019 C 
ATOM     35  C   UNL     1       1.049  -1.371   7.953  0.00  0.00    -0.078 C 
ATOM     36  N   UNL     1       0.632  -1.046   6.573  0.00  0.00    +0.384 N 
ATOM     37  H   UNL     1       0.888  -1.825   5.955  0.00  0.00    -0.081 HD
ENDBRANCH  30  36
ENDBRANCH   4  30
TORSDOF 8
