REMARK  Name = ZINC10810214
REMARK  10 active torsions:
REMARK  status: ('A' for Active; 'I' for Inactive)
REMARK    1  A    between atoms: C_1  and  C_2
REMARK    2  A    between atoms: C_7  and  C_8
REMARK    3  A    between atoms: C_8  and  C_10
REMARK    4  A    between atoms: C_8  and  N_11
REMARK    5  A    between atoms: N_11  and  C_12
REMARK    6  A    between atoms: C_13  and  N_24
REMARK    7  A    between atoms: C_15  and  C_22
REMARK    8  A    between atoms: C_16  and  C_21
REMARK    9  A    between atoms: C_17  and  N_18
REMARK   10  A    between atoms: C_22  and  O_23
REMARK                            x       y       z     vdW  Elec       q    Type
REMARK                         _______ _______ _______ _____ _____    ______ ____
ROOT
ATOM      1  C   UNL     1      -1.828   2.304  -1.143  0.00  0.00    +0.089 A 
ATOM      2  C   UNL     1      -2.250   3.593  -0.843  0.00  0.00    +0.149 A 
ATOM      3  C   UNL     1      -2.919   3.841   0.340  0.00  0.00    +0.041 A 
ATOM      4  C   UNL     1      -3.174   2.807   1.222  0.00  0.00    -0.015 A 
ATOM      5  C   UNL     1      -2.760   1.522   0.923  0.00  0.00    -0.013 A 
ATOM      6  C   UNL     1      -2.090   1.267  -0.258  0.00  0.00    +0.152 A 
ATOM      7  C   UNL     1      -3.039   0.398   1.888  0.00  0.00    +0.046 C 
ENDROOT
BRANCH   6   8
ATOM      8  N   UNL     1      -1.647  -0.109  -0.576  0.00  0.00    +0.059 N 
ATOM      9  O   UNL     1      -2.420  -0.892  -1.100  0.00  0.00    -0.126 OA
ATOM     10  O   UNL     1      -0.509  -0.457  -0.319  0.00  0.00    -0.126 OA
ENDBRANCH   6   8
BRANCH   2  11
ATOM     11  N   UNL     1      -1.978   4.701  -1.786  0.00  0.00    +0.058 N 
ATOM     12  O   UNL     1      -2.272   5.844  -1.485  0.00  0.00    -0.126 OA
ATOM     13  O   UNL     1      -1.461   4.469  -2.864  0.00  0.00    -0.126 OA
ENDBRANCH   2  11
BRANCH   1  14
ATOM     14  N   UNL     1      -1.146   2.051  -2.336  0.00  0.00    -0.334 N 
ATOM     15  H   UNL     1      -0.296   1.535  -2.164  0.00  0.00    +0.147 HD
BRANCH  14  16
ATOM     16  C   UNL     1      -2.006   1.344  -3.294  0.00  0.00    +0.098 C 
ATOM     17  C   UNL     1      -2.915   2.350  -4.003  0.00  0.00    +0.033 C 
BRANCH  16  24
ATOM     18  C   UNL     1      -3.096  -0.848  -4.829  0.00  0.00    +0.044 C 
ATOM     19  C   UNL     1      -1.670  -0.411  -5.047  0.00  0.00    -0.046 A 
ATOM     20  C   UNL     1      -0.885  -1.056  -5.984  0.00  0.00    +0.004 A 
ATOM     21  C   UNL     1       0.424  -0.659  -6.180  0.00  0.00    +0.000 A 
ATOM     22  C   UNL     1       0.947   0.386  -5.442  0.00  0.00    +0.000 A 
ATOM     23  C   UNL     1       0.161   1.034  -4.508  0.00  0.00    +0.006 A 
ATOM     24  C   UNL     1      -1.149   0.637  -4.312  0.00  0.00    -0.025 A 
ENDBRANCH  16  24
ENDBRANCH  14  16
ENDBRANCH   1  14
BRANCH   4  25
ATOM     25  C   UNL     1      -3.904   3.081   2.511  0.00  0.00    +0.191 C 
BRANCH  25  26
ATOM     26  O   UNL     1      -4.225   4.471   2.591  0.00  0.00    -0.390 OA
ATOM     27  H   UNL     1      -4.697   4.721   3.397  0.00  0.00    +0.210 HD
ENDBRANCH  25  26
ENDBRANCH   4  25
TORSDOF 7
