REMARK  Name = ZINC36154602
REMARK  16 active torsions:
REMARK  status: ('A' for Active; 'I' for Inactive)
REMARK    1  A    between atoms: C_1  and  C_2
REMARK    2  A    between atoms: C_2  and  C_3
REMARK    3  A    between atoms: C_3  and  N_4
REMARK    4  A    between atoms: N_4  and  C_5
REMARK    5  A    between atoms: N_4  and  C_29
REMARK    6  A    between atoms: C_5  and  C_6
REMARK    7  A    between atoms: C_9  and  C_11
REMARK    8  A    between atoms: C_11  and  C_12
REMARK    9  A    between atoms: C_11  and  C_20
REMARK   10  A    between atoms: C_11  and  O_28
REMARK   11  A    between atoms: C_15  and  O_18
REMARK   12  A    between atoms: O_18  and  C_19
REMARK   13  A    between atoms: C_23  and  O_26
REMARK   14  A    between atoms: O_26  and  C_27
REMARK   15  A    between atoms: C_29  and  C_30
REMARK   16  A    between atoms: C_33  and  C_35
REMARK                            x       y       z     vdW  Elec       q    Type
REMARK                         _______ _______ _______ _____ _____    ______ ____
ROOT
ATOM      1  C   UNL     1      -2.514  -1.932   3.397  0.00  0.00    +0.174 C 
ENDROOT
BRANCH   1   2
ATOM      2  C   UNL     1      -2.337  -3.425   3.305  0.00  0.00    -0.004 A 
ATOM      3  C   UNL     1      -3.394  -4.266   3.603  0.00  0.00    +0.011 A 
ATOM      4  C   UNL     1      -3.234  -5.635   3.520  0.00  0.00    +0.046 A 
ATOM      5  C   UNL     1      -2.011  -6.167   3.137  0.00  0.00    +0.120 A 
ATOM      6  C   UNL     1      -0.952  -5.322   2.839  0.00  0.00    +0.046 A 
ATOM      7  C   UNL     1      -1.119  -3.953   2.918  0.00  0.00    +0.011 A 
BRANCH   5   8
ATOM      8  O   UNL     1      -1.851  -7.514   3.056  0.00  0.00    -0.495 OA
ATOM      9  C   UNL     1      -0.565  -7.992   2.655  0.00  0.00    +0.277 C 
ENDBRANCH   5   8
ENDBRANCH   1   2
BRANCH   1  10
ATOM     10  C   UNL     1      -1.450  -1.353   4.294  0.00  0.00    -0.004 A 
ATOM     11  C   UNL     1      -0.171  -1.155   3.808  0.00  0.00    +0.011 A 
ATOM     12  C   UNL     1       0.807  -0.626   4.628  0.00  0.00    +0.046 A 
ATOM     13  C   UNL     1       0.504  -0.293   5.940  0.00  0.00    +0.120 A 
ATOM     14  C   UNL     1      -0.780  -0.492   6.426  0.00  0.00    +0.046 A 
ATOM     15  C   UNL     1      -1.756  -1.017   5.600  0.00  0.00    +0.011 A 
BRANCH  13  16
ATOM     16  O   UNL     1       1.464   0.228   6.749  0.00  0.00    -0.495 OA
ATOM     17  C   UNL     1       1.081   0.547   8.088  0.00  0.00    +0.277 C 
ENDBRANCH  13  16
ENDBRANCH   1  10
BRANCH   1  21
ATOM     18  C   UNL     1      -1.786  -1.014  -0.062  0.00  0.00    +0.089 A 
ATOM     19  C   UNL     1      -2.623  -0.009   0.255  0.00  0.00    +0.043 A 
ATOM     20  C   UNL     1      -3.015  -0.210   1.598  0.00  0.00    +0.048 A 
ATOM     21  C   UNL     1      -2.396  -1.326   2.022  0.00  0.00    +0.146 A 
ATOM     22  O   UNL     1      -1.657  -1.812   1.011  0.00  0.00    -0.463 OA
BRANCH  18  23
ATOM     23  C   UNL     1      -1.114  -1.215  -1.395  0.00  0.00    -0.003 C 
BRANCH  23  24
ATOM     24  N   UNL     1       0.118  -0.416  -1.448  0.00  0.00    +0.387 N 
ATOM     25  H   UNL     1      -0.097   0.547  -1.238  0.00  0.00    -0.081 HD
BRANCH  24  26
ATOM     26  C   UNL     1       0.703  -0.506  -2.792  0.00  0.00    -0.078 C 
BRANCH  26  28
ATOM     27  C   UNL     1       0.439   0.194  -5.176  0.00  0.00    +0.002 C 
ATOM     28  C   UNL     1      -0.233   0.160  -3.802  0.00  0.00    -0.022 C 
ENDBRANCH  26  28
ENDBRANCH  24  26
BRANCH  24  29
ATOM     29  C   UNL     1       1.077  -0.929  -0.460  0.00  0.00    -0.035 C 
BRANCH  29  30
ATOM     30  C   UNL     1       2.290  -0.036  -0.427  0.00  0.00    -0.026 A 
ATOM     31  C   UNL     1       2.526   1.055   0.342  0.00  0.00    +0.009 A 
ATOM     32  C   UNL     1       3.726   1.727   0.201  0.00  0.00    +0.011 A 
ATOM     33  C   UNL     1       4.630   1.276  -0.702  0.00  0.00    -0.013 A 
ATOM     34  S   UNL     1       3.793  -0.145  -1.385  0.00  0.00    -0.100 S 
ATOM     35  C   UNL     1       5.992   1.827  -1.039  0.00  0.00    +0.051 C 
ENDBRANCH  29  30
ENDBRANCH  24  29
ENDBRANCH  23  24
ENDBRANCH  18  23
ENDBRANCH   1  21
BRANCH   1  36
ATOM     36  O   UNL     1      -3.804  -1.637   3.938  0.00  0.00    -0.372 OA
ATOM     37  H   UNL     1      -4.539  -1.980   3.411  0.00  0.00    +0.212 HD
ENDBRANCH   1  36
TORSDOF 12
