REMARK  Name = ZINC38814643
REMARK  5 active torsions:
REMARK  status: ('A' for Active; 'I' for Inactive)
REMARK    1  A    between atoms: C_3  and  C_10
REMARK    2  A    between atoms: C_5  and  N_7
REMARK    3  A    between atoms: N_11  and  N_12
REMARK    4  A    between atoms: C_13  and  C_15
REMARK    5  A    between atoms: C_18  and  C_21
REMARK                            x       y       z     vdW  Elec       q    Type
REMARK                         _______ _______ _______ _____ _____    ______ ____
ROOT
ATOM      1  N   UNL     1       4.846   4.169  -0.023  0.00  0.00    -0.205 N 
ATOM      2  C   UNL     1       4.832   5.517  -0.016  0.00  0.00    +0.263 C 
ATOM      3  O   UNL     1       3.775   6.112  -0.003  0.00  0.00    -0.271 OA
ATOM      4  H   UNL     1       5.691   3.693  -0.034  0.00  0.00    +0.177 HD
ENDROOT
BRANCH   2   5
ATOM      5  C   UNL     1       6.128   6.284  -0.025  0.00  0.00    +0.240 C 
ATOM      6  C   UNL     1       6.673   6.401  -1.438  0.00  0.00    +0.041 C 
ATOM      7  C   UNL     1       6.695   7.731  -1.667  0.00  0.00    +0.098 C 
ATOM      8  N   UNL     1       6.237   8.406  -0.578  0.00  0.00    -0.153 NA
ATOM      9  N   UNL     1       5.906   7.685   0.370  0.00  0.00    -0.170 NA
BRANCH   7  10
ATOM     10  C   UNL     1       7.152   8.364  -2.921  0.00  0.00    +0.039 A 
ATOM     11  C   UNL     1       7.217   9.694  -3.243  0.00  0.00    +0.018 A 
ATOM     12  C   UNL     1       7.683  10.051  -4.489  0.00  0.00    +0.008 A 
ATOM     13  C   UNL     1       8.064   9.079  -5.357  0.00  0.00    +0.046 A 
ATOM     14  S   UNL     1       7.772   7.595  -4.409  0.00  0.00    -0.095 S 
ENDBRANCH   7  10
ENDBRANCH   2   5
BRANCH   1  16
ATOM     15  C   UNL     1       3.655   2.158  -0.022  0.00  0.00    +0.138 C 
ATOM     16  N   UNL     1       3.641   3.455  -0.015  0.00  0.00    -0.188 NA
BRANCH  15  19
ATOM     17  C   UNL     1      -0.017   1.379   0.010  0.00  0.00    +0.003 A 
ATOM     18  C   UNL     1       1.167   2.088   0.002  0.00  0.00    +0.009 A 
ATOM     19  C   UNL     1       2.385   1.407  -0.013  0.00  0.00    -0.003 A 
ATOM     20  C   UNL     1       2.397   0.010  -0.021  0.00  0.00    +0.042 A 
ATOM     21  C   UNL     1       1.206  -0.686  -0.013  0.00  0.00    +0.127 A 
ATOM     22  C   UNL     1       0.002  -0.004   0.002  0.00  0.00    +0.033 A 
BRANCH  21  23
ATOM     23  N   UNL     1       1.216  -2.166  -0.021  0.00  0.00    +0.056 N 
ATOM     24  O   UNL     1       2.267  -2.764  -0.035  0.00  0.00    -0.126 OA
ATOM     25  O   UNL     1       0.173  -2.778  -0.015  0.00  0.00    -0.126 OA
ENDBRANCH  21  23
ENDBRANCH  15  19
ENDBRANCH   1  16
TORSDOF 5
