REMARK  Name = ZINC51649078
REMARK  4 active torsions:
REMARK  status: ('A' for Active; 'I' for Inactive)
REMARK    1  A    between atoms: C_1  and  C_2
REMARK    2  A    between atoms: C_4  and  N_22
REMARK    3  A    between atoms: C_7  and  N_8
REMARK    4  A    between atoms: C_15  and  C_17
REMARK                            x       y       z     vdW  Elec       q    Type
REMARK                         _______ _______ _______ _____ _____    ______ ____
ROOT
ATOM      1  N   UNL     1       0.350   0.504   2.578  0.00  0.00    -0.269 N 
ATOM      2  C   UNL     1       0.385  -0.412   3.566  0.00  0.00    +0.307 C 
ATOM      3  O   UNL     1       0.615  -1.577   3.307  0.00  0.00    -0.252 OA
ATOM      4  N   UNL     1       0.165  -0.036   4.841  0.00  0.00    -0.282 N 
ATOM      5  C   UNL     1      -0.029   1.349   5.307  0.00  0.00    +0.110 C 
ATOM      6  C   UNL     1      -0.831   1.215   6.626  0.00  0.00    +0.021 C 
ATOM      7  C   UNL     1      -0.211  -0.068   7.239  0.00  0.00    +0.024 C 
ATOM      8  C   UNL     1       0.071  -0.940   5.997  0.00  0.00    +0.081 C 
ATOM      9  H   UNL     1       0.230   1.443   2.790  0.00  0.00    +0.156 HD
ENDROOT
BRANCH   1  16
ATOM     10  C   UNL     1      -0.817   2.129   0.557  0.00  0.00    +0.046 C 
ATOM     11  C   UNL     1      -0.067   0.865   0.225  0.00  0.00    -0.027 A 
ATOM     12  C   UNL     1       0.073   0.470  -1.091  0.00  0.00    +0.028 A 
ATOM     13  C   UNL     1       0.765  -0.695  -1.396  0.00  0.00    +0.030 A 
ATOM     14  C   UNL     1       1.315  -1.463  -0.378  0.00  0.00    +0.025 A 
ATOM     15  C   UNL     1       1.175  -1.068   0.937  0.00  0.00    +0.025 A 
ATOM     16  C   UNL     1       0.488   0.100   1.242  0.00  0.00    +0.038 A 
BRANCH  13  17
ATOM     17  N   UNL     1       0.907  -1.095  -2.729  0.00  0.00    -0.328 N 
ATOM     18  C   UNL     1       1.744  -2.252  -3.052  0.00  0.00    +0.116 C 
ATOM     19  C   UNL     1       0.866  -3.377  -3.612  0.00  0.00    +0.088 C 
ATOM     20  S   UNL     1      -0.028  -2.748  -5.065  0.00  0.00    -0.158 S 
ATOM     21  C   UNL     1      -0.844  -1.251  -4.432  0.00  0.00    +0.088 C 
ATOM     22  C   UNL     1       0.212  -0.356  -3.784  0.00  0.00    +0.116 C 
ENDBRANCH  13  17
ENDBRANCH   1  16
BRANCH   8  23
ATOM     23  C   UNL     1       1.393  -1.688   6.180  0.00  0.00    +0.010 C 
ATOM     24  C   UNL     1       1.321  -2.590   7.430  0.00  0.00    +0.005 C 
ATOM     25  C   UNL     1       2.740  -2.500   8.045  0.00  0.00    +0.000 C 
ATOM     26  C   UNL     1       3.119  -1.016   7.816  0.00  0.00    +0.000 C 
ATOM     27  C   UNL     1       2.536  -0.687   6.425  0.00  0.00    +0.005 C 
ENDBRANCH   8  23
TORSDOF 3
