REMARK  Name = ZINC10232781
REMARK  6 active torsions:
REMARK  status: ('A' for Active; 'I' for Inactive)
REMARK    1  A    between atoms: C_4  and  C_7
REMARK    2  A    between atoms: C_9  and  C_12
REMARK    3  A    between atoms: N_14  and  C_15
REMARK    4  A    between atoms: C_16  and  C_23
REMARK    5  A    between atoms: N_25  and  C_26
REMARK    6  A    between atoms: C_26  and  C_27
REMARK                            x       y       z     vdW  Elec       q    Type
REMARK                         _______ _______ _______ _____ _____    ______ ____
ROOT
ATOM      1  C   UNL     1      -0.342   6.399  -2.780  0.00  0.00    +0.085 A 
ATOM      2  C   UNL     1      -1.364   5.665  -2.202  0.00  0.00    +0.069 A 
ATOM      3  C   UNL     1      -2.455   6.404  -1.569  0.00  0.00    -0.023 A 
ATOM      4  C   UNL     1      -2.345   7.744  -1.626  0.00  0.00    -0.004 A 
ATOM      5  S   UNL     1      -0.826   8.037  -2.498  0.00  0.00    -0.077 S 
ATOM      6  C   UNL     1      -3.504   8.433  -0.957  0.00  0.00    +0.043 C 
ATOM      7  C   UNL     1      -4.591   7.342  -0.839  0.00  0.00    +0.010 C 
ATOM      8  C   UNL     1      -3.743   6.055  -0.823  0.00  0.00    +0.037 C 
ENDROOT
BRANCH   1  11
ATOM      9  C   UNL     1       1.684   6.811  -3.933  0.00  0.00    +0.270 C 
ATOM     10  O   UNL     1       1.495   8.005  -3.818  0.00  0.00    -0.268 OA
ATOM     11  N   UNL     1       0.791   5.936  -3.429  0.00  0.00    -0.274 N 
ATOM     12  H   UNL     1       0.942   4.982  -3.520  0.00  0.00    +0.156 HD
BRANCH   9  15
ATOM     13  C   UNL     1       4.798   6.176  -5.712  0.00  0.00    +0.168 A 
ATOM     14  C   UNL     1       3.923   7.101  -5.213  0.00  0.00    +0.086 A 
ATOM     15  C   UNL     1       2.897   6.315  -4.626  0.00  0.00    +0.169 A 
ATOM     16  N   UNL     1       3.233   5.063  -4.825  0.00  0.00    -0.073 NA
ATOM     17  O   UNL     1       4.279   4.969  -5.423  0.00  0.00    -0.354 OA
BRANCH  13  21
ATOM     18  C   UNL     1       8.426   6.958  -7.778  0.00  0.00    +0.000 A 
ATOM     19  C   UNL     1       8.027   5.652  -7.556  0.00  0.00    +0.001 A 
ATOM     20  C   UNL     1       6.850   5.391  -6.886  0.00  0.00    +0.011 A 
ATOM     21  C   UNL     1       6.061   6.448  -6.430  0.00  0.00    +0.020 A 
ATOM     22  C   UNL     1       6.466   7.764  -6.661  0.00  0.00    +0.011 A 
ATOM     23  C   UNL     1       7.648   8.011  -7.329  0.00  0.00    +0.001 A 
ENDBRANCH  13  21
ENDBRANCH   9  15
ENDBRANCH   1  11
BRANCH   2  24
ATOM     24  C   UNL     1      -1.349   4.199  -2.219  0.00  0.00    +0.247 C 
ATOM     25  O   UNL     1      -1.870   3.595  -3.139  0.00  0.00    -0.270 OA
ATOM     26  N   UNL     1      -0.759   3.519  -1.216  0.00  0.00    -0.309 N 
ATOM     27  H   UNL     1      -0.344   4.000  -0.483  0.00  0.00    +0.149 HD
BRANCH  26  28
ATOM     28  C   UNL     1      -0.745   2.054  -1.233  0.00  0.00    +0.136 C 
BRANCH  28  29
ATOM     29  C   UNL     1      -0.019   1.537   0.011  0.00  0.00    +0.135 C 
ATOM     30  C   UNL     1       0.002  -0.004   0.002  0.00  0.00    +0.035 C 
ATOM     31  C   UNL     1       1.508  -0.363   0.039  0.00  0.00    +0.031 C 
ATOM     32  C   UNL     1       2.138   0.935   0.603  0.00  0.00    +0.160 C 
ATOM     33  O   UNL     1       1.348   1.983  -0.000  0.00  0.00    -0.375 OA
ENDBRANCH  28  29
ENDBRANCH  26  28
ENDBRANCH   2  24
TORSDOF 6
