REMARK  Name = ZINC01798449
REMARK  10 active torsions:
REMARK  status: ('A' for Active; 'I' for Inactive)
REMARK    1  A    between atoms: C_2  and  C_3
REMARK    2  A    between atoms: C_2  and  N_12
REMARK    3  A    between atoms: C_7  and  N_9
REMARK    4  A    between atoms: N_12  and  N_13
REMARK    5  A    between atoms: C_14  and  C_16
REMARK    6  A    between atoms: C_16  and  S_17
REMARK    7  A    between atoms: S_17  and  C_18
REMARK    8  A    between atoms: C_21  and  S_23
REMARK    9  A    between atoms: S_23  and  C_24
REMARK   10  A    between atoms: C_24  and  C_25
REMARK                            x       y       z     vdW  Elec       q    Type
REMARK                         _______ _______ _______ _____ _____    ______ ____
ROOT
ATOM      1  N   UNL     1       1.110   7.440   0.033  0.00  0.00    -0.236 N 
ATOM      2  C   UNL     1       2.268   8.130   0.026  0.00  0.00    +0.239 C 
ATOM      3  O   UNL     1       3.326   7.538   0.013  0.00  0.00    -0.273 OA
ATOM      4  H   UNL     1       0.150   7.977   0.045  0.00  0.00    +0.173 HD
ENDROOT
BRANCH   1   5
ATOM      5  N   UNL     1       1.129   6.039   0.025  0.00  0.00    -0.264 N 
ATOM      6  H   UNL     1       2.089   5.502   0.013  0.00  0.00    +0.170 HD
BRANCH   5   8
ATOM      7  C   UNL     1      -1.234   5.976   0.046  0.00  0.00    +0.035 C 
ATOM      8  C   UNL     1      -0.070   5.325   0.032  0.00  0.00    +0.045 C 
BRANCH   8   9
ATOM      9  C   UNL     1      -0.050   3.844   0.023  0.00  0.00    -0.001 A 
ATOM     10  C   UNL     1       1.165   3.161   0.008  0.00  0.00    +0.010 A 
ATOM     11  C   UNL     1       1.178   1.781   0.000  0.00  0.00    +0.003 A 
ATOM     12  C   UNL     1      -0.013   1.076   0.008  0.00  0.00    +0.033 A 
ATOM     13  C   UNL     1      -1.221   1.748   0.017  0.00  0.00    +0.127 A 
ATOM     14  C   UNL     1      -1.246   3.128   0.031  0.00  0.00    +0.042 A 
BRANCH  13  15
ATOM     15  N   UNL     1      -2.490   0.986   0.019  0.00  0.00    +0.056 N 
ATOM     16  O   UNL     1      -2.470  -0.231   0.013  0.00  0.00    -0.126 OA
ATOM     17  O   UNL     1      -3.555   1.577   0.028  0.00  0.00    -0.126 OA
ENDBRANCH  13  15
ENDBRANCH   8   9
ENDBRANCH   5   8
ENDBRANCH   1   5
BRANCH   2  18
ATOM     18  C   UNL     1       2.247   9.637   0.035  0.00  0.00    +0.173 C 
BRANCH  18  19
ATOM     19  S   UNL     1       3.949  10.265   0.022  0.00  0.00    -0.088 S 
BRANCH  19  20
ATOM     20  C   UNL     1       3.757  12.016   0.034  0.00  0.00    +0.160 A 
ATOM     21  N   UNL     1       2.652  12.736   0.049  0.00  0.00    -0.134 NA
ATOM     22  N   UNL     1       2.729  14.109   0.057  0.00  0.00    -0.134 NA
ATOM     23  C   UNL     1       3.909  14.700   0.049  0.00  0.00    +0.160 A 
ATOM     24  S   UNL     1       5.008  13.292   0.037  0.00  0.00    -0.033 S 
BRANCH  23  25
ATOM     25  S   UNL     1       4.297  16.419   0.056  0.00  0.00    -0.092 S 
BRANCH  25  26
ATOM     26  C   UNL     1       2.677  17.235   0.076  0.00  0.00    +0.111 C 
BRANCH  26  27
ATOM     27  C   UNL     1       2.867  18.729   0.083  0.00  0.00    -0.037 A 
ATOM     28  C   UNL     1       2.960  19.408   1.284  0.00  0.00    +0.004 A 
ATOM     29  C   UNL     1       3.140  20.779   1.291  0.00  0.00    +0.000 A 
ATOM     30  C   UNL     1       3.216  21.472   0.097  0.00  0.00    +0.000 A 
ATOM     31  C   UNL     1       3.118  20.794  -1.103  0.00  0.00    +0.000 A 
ATOM     32  C   UNL     1       2.943  19.422  -1.110  0.00  0.00    +0.004 A 
ENDBRANCH  26  27
ENDBRANCH  25  26
ENDBRANCH  23  25
ENDBRANCH  19  20
ENDBRANCH  18  19
ENDBRANCH   2  18
TORSDOF 10
