REMARK  Name = ZINC25677902
REMARK  7 active torsions:
REMARK  status: ('A' for Active; 'I' for Inactive)
REMARK    1  A    between atoms: C_1  and  C_2
REMARK    2  A    between atoms: C_2  and  C_4
REMARK    3  A    between atoms: C_2  and  N_17
REMARK    4  A    between atoms: N_6  and  C_7
REMARK    5  A    between atoms: C_12  and  C_13
REMARK    6  A    between atoms: N_20  and  S_23
REMARK    7  A    between atoms: S_23  and  C_26
REMARK                            x       y       z     vdW  Elec       q    Type
REMARK                         _______ _______ _______ _____ _____    ______ ____
ROOT
ATOM      1  C   UNL     1      -0.726   1.599   1.277  0.00  0.00    -0.004 C 
ATOM      2  C   UNL     1      -0.017   1.100   0.016  0.00  0.00    +0.017 C 
ENDROOT
BRANCH   2   3
ATOM      3  N   UNL     1      -0.729   1.590  -1.172  0.00  0.00    +0.389 N 
ATOM      4  C   UNL     1      -0.773   3.058  -1.191  0.00  0.00    -0.060 C 
ATOM      5  C   UNL     1      -1.359   3.532  -2.526  0.00  0.00    +0.091 C 
ATOM      6  N   UNL     1      -2.655   2.868  -2.729  0.00  0.00    -0.180 NA
ATOM      7  C   UNL     1      -2.717   1.405  -2.590  0.00  0.00    +0.091 C 
ATOM      8  C   UNL     1      -2.078   1.015  -1.253  0.00  0.00    -0.060 C 
ATOM      9  H   UNL     1      -0.171   1.261  -2.062  0.00  0.00    -0.081 HD
BRANCH   6  10
ATOM     10  S   UNL     1      -4.009   3.744  -3.104  0.00  0.00    +0.067 S 
ATOM     11  O   UNL     1      -3.558   4.952  -3.701  0.00  0.00    -0.152 OA
ATOM     12  O   UNL     1      -4.898   2.854  -3.765  0.00  0.00    -0.152 OA
BRANCH  10  13
ATOM     13  C   UNL     1      -4.780   4.189  -1.584  0.00  0.00    +0.143 A 
ATOM     14  C   UNL     1      -4.583   5.290  -0.818  0.00  0.00    +0.036 A 
ATOM     15  C   UNL     1      -5.311   5.434   0.348  0.00  0.00    +0.010 A 
ATOM     16  C   UNL     1      -6.193   4.465   0.696  0.00  0.00    +0.047 A 
ATOM     17  S   UNL     1      -6.017   3.305  -0.649  0.00  0.00    -0.077 S 
ENDBRANCH  10  13
ENDBRANCH   6  10
ENDBRANCH   2   3
BRANCH   2  18
ATOM     18  C   UNL     1       1.400   1.612  -0.000  0.00  0.00    +0.203 C 
ATOM     19  O   UNL     1       1.780   2.316  -0.912  0.00  0.00    -0.277 OA
ATOM     20  N   UNL     1       2.245   1.288   0.998  0.00  0.00    -0.286 N 
ATOM     21  H   UNL     1       1.881   0.711   1.862  0.00  0.00    +0.155 HD
BRANCH  20  22
ATOM     22  C   UNL     1       3.586   1.684   0.937  0.00  0.00    +0.045 A 
ATOM     23  C   UNL     1       3.926   2.900   0.359  0.00  0.00    +0.024 A 
ATOM     24  C   UNL     1       5.249   3.291   0.304  0.00  0.00    +0.002 A 
ATOM     25  C   UNL     1       6.236   2.468   0.815  0.00  0.00    +0.001 A 
ATOM     26  C   UNL     1       5.901   1.254   1.386  0.00  0.00    +0.014 A 
ATOM     27  C   UNL     1       4.579   0.860   1.448  0.00  0.00    +0.076 A 
BRANCH  27  28
ATOM     28  C   UNL     1       4.215  -0.464   2.070  0.00  0.00    +0.419 C 
ATOM     29  F   UNL     1       5.376  -1.108   2.510  0.00  0.00    -0.166 F 
ATOM     30  F   UNL     1       3.361  -0.249   3.158  0.00  0.00    -0.166 F 
ATOM     31  F   UNL     1       3.568  -1.263   1.121  0.00  0.00    -0.166 F 
ENDBRANCH  27  28
ENDBRANCH  20  22
ENDBRANCH   2  18
TORSDOF 6
