REMARK  Name = ZINC63350666
REMARK  12 active torsions:
REMARK  status: ('A' for Active; 'I' for Inactive)
REMARK    1  A    between atoms: C_1  and  C_2
REMARK    2  A    between atoms: C_2  and  C_3
REMARK    3  A    between atoms: C_12  and  O_15
REMARK    4  A    between atoms: C_13  and  C_14
REMARK    5  A    between atoms: O_15  and  C_16
REMARK    6  A    between atoms: C_16  and  C_18
REMARK    7  A    between atoms: C_18  and  C_20
REMARK    8  A    between atoms: C_18  and  N_30
REMARK    9  A    between atoms: C_20  and  C_21
REMARK   10  A    between atoms: C_31  and  O_33
REMARK   11  A    between atoms: O_33  and  C_34
REMARK   12  A    between atoms: C_34  and  C_35
REMARK                            x       y       z     vdW  Elec       q    Type
REMARK                         _______ _______ _______ _____ _____    ______ ____
ROOT
ATOM      1  C   UNL     1      -4.117  -1.130  -7.358  0.00  0.00    +0.189 C 
ENDROOT
BRANCH   1   2
ATOM      2  N   UNL     1      -5.531  -0.832  -7.112  0.00  0.00    -0.268 N 
ATOM      3  C   UNL     1      -6.484  -1.429  -7.854  0.00  0.00    +0.401 C 
ATOM      4  O   UNL     1      -6.172  -2.213  -8.728  0.00  0.00    -0.226 OA
ATOM      5  H   UNL     1      -5.780  -0.206  -6.414  0.00  0.00    +0.153 HD
BRANCH   3   6
ATOM      6  O   UNL     1      -7.783  -1.155  -7.628  0.00  0.00    -0.446 OA
BRANCH   6   7
ATOM      7  C   UNL     1      -8.740  -1.823  -8.453  0.00  0.00    +0.269 C 
BRANCH   7   8
ATOM      8  C   UNL     1     -10.130  -1.396  -8.057  0.00  0.00    -0.010 A 
ATOM      9  C   UNL     1     -10.817  -2.096  -7.083  0.00  0.00    +0.007 A 
ATOM     10  C   UNL     1     -12.092  -1.704  -6.720  0.00  0.00    +0.000 A 
ATOM     11  C   UNL     1     -12.679  -0.611  -7.330  0.00  0.00    +0.000 A 
ATOM     12  C   UNL     1     -11.992   0.089  -8.304  0.00  0.00    +0.000 A 
ATOM     13  C   UNL     1     -10.715  -0.300  -8.664  0.00  0.00    +0.007 A 
ENDBRANCH   7   8
ENDBRANCH   6   7
ENDBRANCH   3   6
ENDBRANCH   1   2
BRANCH   1  14
ATOM     14  C   UNL     1      -3.324  -0.874  -6.102  0.00  0.00    +0.333 C 
ATOM     15  O   UNL     1      -3.882  -0.484  -5.104  0.00  0.00    -0.248 OA
BRANCH  14  16
ATOM     16  O   UNL     1      -1.997  -1.081  -6.093  0.00  0.00    -0.424 OA
BRANCH  16  26
ATOM     17  C   UNL     1       0.709  -0.529  -1.234  0.00  0.00    -0.030 A 
ATOM     18  C   UNL     1       0.683  -1.581  -0.376  0.00  0.00    +0.096 A 
ATOM     19  C   UNL     1      -0.006  -2.759  -0.731  0.00  0.00    +0.337 A 
ATOM     20  O   UNL     1      -0.022  -3.696   0.047  0.00  0.00    -0.245 OA
ATOM     21  O   UNL     1      -0.647  -2.875  -1.905  0.00  0.00    -0.422 OA
ATOM     22  C   UNL     1      -0.660  -1.866  -2.803  0.00  0.00    +0.146 A 
ATOM     23  C   UNL     1       0.004  -0.660  -2.511  0.00  0.00    +0.021 A 
ATOM     24  C   UNL     1      -0.012   0.390  -3.436  0.00  0.00    +0.015 A 
ATOM     25  C   UNL     1      -0.677   0.241  -4.619  0.00  0.00    +0.047 A 
ATOM     26  C   UNL     1      -1.340  -0.949  -4.912  0.00  0.00    +0.138 A 
ATOM     27  C   UNL     1      -1.326  -2.002  -4.012  0.00  0.00    +0.035 A 
ATOM     28  C   UNL     1      -2.046  -3.284  -4.338  0.00  0.00    +0.051 C 
BRANCH  17  30
ATOM     29  C   UNL     1       2.847   0.705  -1.477  0.00  0.00    +0.009 C 
ATOM     30  C   UNL     1       1.438   0.741  -0.879  0.00  0.00    +0.033 C 
ENDBRANCH  17  30
ENDBRANCH  16  26
ENDBRANCH  14  16
ENDBRANCH   1  14
BRANCH   1  31
ATOM     31  C   UNL     1      -3.596  -0.233  -8.482  0.00  0.00    +0.067 C 
BRANCH  31  32
ATOM     32  C   UNL     1      -4.305  -0.575  -9.767  0.00  0.00    -0.039 C 
ATOM     33  C   UNL     1      -5.396   0.038 -10.282  0.00  0.00    -0.001 A 
ATOM     34  C   UNL     1      -6.218   1.161  -9.816  0.00  0.00    +0.010 A 
ATOM     35  C   UNL     1      -7.272   1.557 -10.565  0.00  0.00    +0.001 A 
ATOM     36  C   UNL     1      -7.600   0.922 -11.771  0.00  0.00    +0.002 A 
ATOM     37  C   UNL     1      -6.892  -0.117 -12.264  0.00  0.00    +0.026 A 
ATOM     38  C   UNL     1      -5.762  -0.615 -11.559  0.00  0.00    +0.043 A 
ATOM     39  N   UNL     1      -4.930  -1.593 -11.824  0.00  0.00    -0.380 N 
ATOM     40  C   UNL     1      -3.937  -1.667 -10.746  0.00  0.00    +0.144 C 
ATOM     41  H   UNL     1      -4.963  -2.169 -12.604  0.00  0.00    +0.160 HD
ENDBRANCH  31  32
ENDBRANCH   1  31
TORSDOF 10
