REMARK  Name = ZINC63527194
REMARK  10 active torsions:
REMARK  status: ('A' for Active; 'I' for Inactive)
REMARK    1  A    between atoms: C_1  and  C_2
REMARK    2  A    between atoms: C_2  and  O_3
REMARK    3  A    between atoms: O_3  and  C_4
REMARK    4  A    between atoms: C_4  and  C_6
REMARK    5  A    between atoms: C_8  and  N_15
REMARK    6  A    between atoms: C_11  and  C_14
REMARK    7  A    between atoms: C_12  and  C_13
REMARK    8  A    between atoms: C_16  and  C_18
REMARK    9  A    between atoms: C_18  and  S_19
REMARK   10  A    between atoms: S_19  and  C_20
REMARK                            x       y       z     vdW  Elec       q    Type
REMARK                         _______ _______ _______ _____ _____    ______ ____
ROOT
ATOM      1  N   UNL     1      -1.452  -4.447   0.325  0.00  0.00    -0.301 N 
ATOM      2  C   UNL     1      -1.339  -5.573   1.058  0.00  0.00    +0.224 C 
ATOM      3  O   UNL     1      -2.333  -6.191   1.376  0.00  0.00    -0.275 OA
ATOM      4  H   UNL     1      -0.657  -3.952   0.071  0.00  0.00    +0.150 HD
ENDROOT
BRANCH   1   6
ATOM      5  C   UNL     1      -2.928  -2.445   0.147  0.00  0.00    +0.155 C 
ATOM      6  C   UNL     1      -2.774  -3.971  -0.087  0.00  0.00    +0.153 C 
ATOM      7  S   UNL     1      -2.962  -3.997  -1.920  0.00  0.00    -0.106 S 
ATOM      8  C   UNL     1      -3.817  -2.444  -2.121  0.00  0.00    -0.016 C 
ATOM      9  C   UNL     1      -3.691  -1.813  -0.972  0.00  0.00    -0.047 C 
ATOM     10  C   UNL     1      -4.316  -0.454  -0.787  0.00  0.00    +0.041 C 
ATOM     11  C   UNL     1      -4.534  -1.955  -3.353  0.00  0.00    +0.051 C 
BRANCH   5  12
ATOM     12  C   UNL     1      -1.562  -1.816   0.235  0.00  0.00    +0.317 C 
ATOM     13  O   UNL     1      -0.990  -1.470  -0.772  0.00  0.00    -0.250 OA
BRANCH  12  14
ATOM     14  O   UNL     1      -0.980  -1.639   1.431  0.00  0.00    -0.464 OA
BRANCH  14  16
ATOM     15  C   UNL     1       0.814  -0.918   2.881  0.00  0.00    +0.048 C 
ATOM     16  C   UNL     1       0.316  -1.036   1.440  0.00  0.00    +0.229 C 
ENDBRANCH  14  16
ENDBRANCH  12  14
ENDBRANCH   5  12
ENDBRANCH   1   6
BRANCH   2  17
ATOM     17  C   UNL     1       0.021  -6.063   1.482  0.00  0.00    +0.173 C 
BRANCH  17  18
ATOM     18  S   UNL     1      -0.159  -7.587   2.448  0.00  0.00    -0.078 S 
BRANCH  18  19
ATOM     19  C   UNL     1       1.496  -8.027   2.864  0.00  0.00    +0.170 A 
ATOM     20  N   UNL     1       1.727  -9.150   3.598  0.00  0.00    -0.302 N 
ATOM     21  H   UNL     1       0.987  -9.708   3.885  0.00  0.00    +0.171 HD
ATOM     22  C   UNL     1       2.993  -9.482   3.922  0.00  0.00    +0.255 A 
ATOM     23  O   UNL     1       3.220 -10.481   4.584  0.00  0.00    -0.267 OA
ATOM     24  C   UNL     1       4.052  -8.658   3.486  0.00  0.00    +0.038 A 
ATOM     25  C   UNL     1       3.764  -7.553   2.749  0.00  0.00    +0.052 A 
ATOM     26  N   UNL     1       2.490  -7.268   2.456  0.00  0.00    -0.228 NA
ATOM     27  C   UNL     1       4.829  -6.627   2.224  0.00  0.00    +0.056 C 
ATOM     28  C   UNL     1       6.141  -6.833   2.979  0.00  0.00    +0.006 C 
ATOM     29  C   UNL     1       6.470  -8.330   2.978  0.00  0.00    +0.005 C 
ATOM     30  C   UNL     1       5.455  -9.046   3.866  0.00  0.00    +0.042 C 
ENDBRANCH  18  19
ENDBRANCH  17  18
ENDBRANCH   2  17
TORSDOF 7
