REMARK  Name = ZINC62394925
REMARK  5 active torsions:
REMARK  status: ('A' for Active; 'I' for Inactive)
REMARK    1  A    between atoms: C_1  and  C_2
REMARK    2  A    between atoms: C_2  and  C_3
REMARK    3  A    between atoms: C_3  and  C_4
REMARK    4  A    between atoms: C_7  and  C_22
REMARK    5  A    between atoms: C_8  and  C_12
REMARK                            x       y       z     vdW  Elec       q    Type
REMARK                         _______ _______ _______ _____ _____    ______ ____
ROOT
ATOM      1  C   UNL     1       0.739  -2.004  -1.265  0.00  0.00    +0.102 A 
ATOM      2  N   UNL     1       0.248  -2.832  -0.392  0.00  0.00    -0.161 NA
ATOM      3  N   UNL     1       0.356  -4.209  -0.558  0.00  0.00    -0.195 N 
ATOM      4  C   UNL     1      -0.017  -5.379   0.116  0.00  0.00    +0.170 A 
ATOM      5  C   UNL     1       0.433  -6.449  -0.651  0.00  0.00    +0.110 A 
ATOM      6  N   UNL     1       1.044  -5.945  -1.730  0.00  0.00    -0.219 NA
ATOM      7  C   UNL     1       1.003  -4.640  -1.683  0.00  0.00    +0.197 A 
ATOM      8  S   UNL     1       1.436  -3.111  -2.481  0.00  0.00    -0.033 S 
ENDROOT
BRANCH   5   9
ATOM      9  C   UNL     1       0.265  -7.885  -0.333  0.00  0.00    +0.004 A 
ATOM     10  C   UNL     1       0.303  -8.320   0.992  0.00  0.00    +0.010 A 
ATOM     11  C   UNL     1       0.149  -9.659   1.274  0.00  0.00    +0.004 A 
ATOM     12  C   UNL     1      -0.046 -10.582   0.252  0.00  0.00    -0.044 A 
ATOM     13  C   UNL     1      -0.089 -10.158  -1.058  0.00  0.00    -0.044 A 
ATOM     14  C   UNL     1       0.063  -8.811  -1.352  0.00  0.00    +0.014 A 
ATOM     15  C   UNL     1      -0.313 -11.103  -2.209  0.00  0.00    +0.035 C 
ATOM     16  C   UNL     1      -0.039 -12.544  -1.783  0.00  0.00    +0.005 C 
ATOM     17  C   UNL     1      -0.829 -12.827  -0.500  0.00  0.00    +0.005 C 
ATOM     18  C   UNL     1      -0.199 -12.030   0.640  0.00  0.00    +0.035 C 
ENDBRANCH   5   9
BRANCH   4  19
ATOM     19  C   UNL     1      -0.725  -5.459   1.358  0.00  0.00    +0.121 C 
ATOM     20  N   UNL     1      -1.287  -5.522   2.343  0.00  0.00    -0.189 NA
ENDBRANCH   4  19
BRANCH   1  21
ATOM     21  C   UNL     1       0.718  -0.497  -1.257  0.00  0.00    +0.064 C 
BRANCH  21  23
ATOM     22  C   UNL     1      -0.019   1.526   0.010  0.00  0.00    +0.004 C 
ATOM     23  C   UNL     1       0.002  -0.004   0.002  0.00  0.00    +0.003 C 
ENDBRANCH  21  23
ENDBRANCH   1  21
TORSDOF 4
