REMARK  Name = ZINC63294388
REMARK  8 active torsions:
REMARK  status: ('A' for Active; 'I' for Inactive)
REMARK    1  A    between atoms: C_1  and  O_2
REMARK    2  A    between atoms: O_2  and  C_3
REMARK    3  A    between atoms: C_3  and  C_5
REMARK    4  A    between atoms: C_5  and  C_7
REMARK    5  A    between atoms: C_5  and  N_14
REMARK    6  A    between atoms: C_7  and  C_8
REMARK    7  A    between atoms: C_15  and  C_17
REMARK    8  A    between atoms: C_24  and  C_26
REMARK                            x       y       z     vdW  Elec       q    Type
REMARK                         _______ _______ _______ _____ _____    ______ ____
ROOT
ATOM      1  C   UNL     1      -4.745  -3.126   1.193  0.00  0.00    +0.092 C 
ATOM      2  C   UNL     1      -5.591  -2.143   0.381  0.00  0.00    +0.016 C 
ATOM      3  C   UNL     1      -7.047  -2.614   0.364  0.00  0.00    +0.020 C 
ATOM      4  C   UNL     1      -7.586  -2.645   1.798  0.00  0.00    +0.108 C 
ATOM      5  N   UNL     1      -6.693  -3.473   2.620  0.00  0.00    -0.299 N 
ATOM      6  C   UNL     1      -5.257  -3.163   2.637  0.00  0.00    +0.120 C 
ATOM      7  C   UNL     1      -7.183  -4.497   3.347  0.00  0.00    +0.242 C 
ATOM      8  O   UNL     1      -6.436  -5.173   4.022  0.00  0.00    -0.273 OA
ENDROOT
BRANCH   7   9
ATOM      9  C   UNL     1      -8.658  -4.803   3.321  0.00  0.00    +0.190 C 
ATOM     10  C   UNL     1      -9.086  -5.185   1.921  0.00  0.00    +0.016 C 
ATOM     11  C   UNL     1      -9.565  -6.447   2.007  0.00  0.00    -0.004 A 
ATOM     12  C   UNL     1     -10.125  -7.368   1.011  0.00  0.00    +0.010 A 
ATOM     13  C   UNL     1     -10.529  -8.596   1.407  0.00  0.00    +0.001 A 
ATOM     14  C   UNL     1     -10.426  -9.011   2.742  0.00  0.00    +0.002 A 
ATOM     15  C   UNL     1      -9.922  -8.221   3.714  0.00  0.00    +0.026 A 
ATOM     16  C   UNL     1      -9.467  -6.909   3.410  0.00  0.00    +0.043 A 
ATOM     17  N   UNL     1      -8.949  -5.968   4.164  0.00  0.00    -0.370 N 
ATOM     18  H   UNL     1      -8.785  -6.031   5.118  0.00  0.00    +0.161 HD
ENDBRANCH   7   9
BRANCH   1  20
ATOM     19  N   UNL     1      -2.643  -2.570   0.013  0.00  0.00    -0.302 N 
ATOM     20  C   UNL     1      -3.306  -2.679   1.182  0.00  0.00    +0.218 C 
ATOM     21  O   UNL     1      -2.744  -2.417   2.224  0.00  0.00    -0.275 OA
ATOM     22  H   UNL     1      -3.092  -2.779  -0.820  0.00  0.00    +0.150 HD
BRANCH  19  23
ATOM     23  C   UNL     1      -1.244  -2.135   0.003  0.00  0.00    +0.186 C 
BRANCH  23  24
ATOM     24  C   UNL     1      -1.185  -0.630   0.010  0.00  0.00    +0.328 C 
ATOM     25  O   UNL     1      -2.208   0.015   0.023  0.00  0.00    -0.249 OA
BRANCH  24  27
ATOM     26  C   UNL     1      -0.017   1.425   0.010  0.00  0.00    +0.280 C 
ATOM     27  O   UNL     1       0.002  -0.004   0.002  0.00  0.00    -0.467 OA
ENDBRANCH  24  27
ENDBRANCH  23  24
BRANCH  23  28
ATOM     28  C   UNL     1      -0.555  -2.666  -1.256  0.00  0.00    +0.069 C 
BRANCH  28  29
ATOM     29  C   UNL     1      -0.505  -4.172  -1.204  0.00  0.00    -0.045 A 
ATOM     30  C   UNL     1       0.574  -4.807  -0.619  0.00  0.00    +0.004 A 
ATOM     31  C   UNL     1       0.621  -6.188  -0.572  0.00  0.00    +0.000 A 
ATOM     32  C   UNL     1      -0.412  -6.933  -1.109  0.00  0.00    +0.000 A 
ATOM     33  C   UNL     1      -1.492  -6.297  -1.693  0.00  0.00    +0.000 A 
ATOM     34  C   UNL     1      -1.540  -4.917  -1.737  0.00  0.00    +0.004 A 
ENDBRANCH  28  29
ENDBRANCH  23  28
ENDBRANCH  19  23
ENDBRANCH   1  20
TORSDOF 7
