REMARK  Name = ZINC36652396
REMARK  6 active torsions:
REMARK  status: ('A' for Active; 'I' for Inactive)
REMARK    1  A    between atoms: C_1  and  C_2
REMARK    2  A    between atoms: C_3  and  C_26
REMARK    3  A    between atoms: C_8  and  C_10
REMARK    4  A    between atoms: C_10  and  N_11
REMARK    5  A    between atoms: C_14  and  C_18
REMARK    6  A    between atoms: C_14  and  C_19
REMARK                            x       y       z     vdW  Elec       q    Type
REMARK                         _______ _______ _______ _____ _____    ______ ____
ROOT
ATOM      1  C   UNL     1      -0.027   1.502  -0.082  0.00  0.00    +0.054 C 
ATOM      2  C   UNL     1      -0.002  -0.005  -0.040  0.00  0.00    +0.016 A 
ATOM      3  C   UNL     1      -1.034  -0.891   0.093  0.00  0.00    +0.083 A 
ATOM      4  N   UNL     1      -0.777  -2.191   0.105  0.00  0.00    -0.224 NA
ATOM      5  C   UNL     1       0.457  -2.646  -0.010  0.00  0.00    +0.165 A 
ATOM      6  S   UNL     1       1.385  -1.126  -0.158  0.00  0.00    -0.057 S 
ATOM      7  N   UNL     1       0.912  -3.959  -0.018  0.00  0.00    -0.263 N 
ATOM      8  C   UNL     1       2.228  -4.215  -0.147  0.00  0.00    +0.237 C 
ATOM      9  O   UNL     1       3.016  -3.300  -0.257  0.00  0.00    -0.274 OA
ATOM     10  H   UNL     1       0.281  -4.691   0.070  0.00  0.00    +0.157 HD
ENDROOT
BRANCH   3  11
ATOM     11  C   UNL     1      -2.428  -0.403   0.224  0.00  0.00    +0.001 A 
ATOM     12  C   UNL     1      -3.286  -0.978   1.161  0.00  0.00    +0.011 A 
ATOM     13  C   UNL     1      -4.582  -0.520   1.279  0.00  0.00    +0.020 A 
ATOM     14  C   UNL     1      -5.032   0.509   0.469  0.00  0.00    +0.041 A 
ATOM     15  C   UNL     1      -4.184   1.083  -0.463  0.00  0.00    +0.020 A 
ATOM     16  C   UNL     1      -2.884   0.637  -0.585  0.00  0.00    +0.011 A 
ATOM     17 CL   UNL     1      -6.664   1.080   0.621  0.00  0.00    -0.084 Cl
ENDBRANCH   3  11
BRANCH   8  18
ATOM     18  C   UNL     1       2.722  -5.639  -0.156  0.00  0.00    +0.214 C 
BRANCH  18  19
ATOM     19  N   UNL     1       4.179  -5.650  -0.307  0.00  0.00    -0.215 N 
ATOM     20  C   UNL     1       4.817  -5.683  -1.494  0.00  0.00    +0.251 C 
ATOM     21  O   UNL     1       4.312  -5.709  -2.596  0.00  0.00    -0.272 OA
ATOM     22  C   UNL     1       6.296  -5.681  -1.164  0.00  0.00    +0.135 C 
ATOM     23  N   UNL     1       6.323  -5.643   0.308  0.00  0.00    -0.281 N 
ATOM     24  C   UNL     1       5.041  -5.622   0.716  0.00  0.00    +0.310 C 
ATOM     25  O   UNL     1       4.704  -5.585   1.883  0.00  0.00    -0.252 OA
ATOM     26  C   UNL     1       6.976  -4.440  -1.748  0.00  0.00    +0.047 C 
ATOM     27  H   UNL     1       7.111  -5.632   0.873  0.00  0.00    +0.152 HD
BRANCH  22  28
ATOM     28  C   UNL     1       6.955  -6.937  -1.674  0.00  0.00    -0.015 A 
ATOM     29  C   UNL     1       6.465  -7.564  -2.805  0.00  0.00    +0.009 A 
ATOM     30  C   UNL     1       7.069  -8.715  -3.273  0.00  0.00    +0.039 A 
ATOM     31  C   UNL     1       8.165  -9.241  -2.610  0.00  0.00    +0.123 A 
ATOM     32  C   UNL     1       8.655  -8.612  -1.478  0.00  0.00    +0.039 A 
ATOM     33  C   UNL     1       8.053  -7.458  -1.014  0.00  0.00    +0.009 A 
ATOM     34  F   UNL     1       8.755 -10.367  -3.067  0.00  0.00    -0.205 F 
ENDBRANCH  22  28
ENDBRANCH  18  19
ENDBRANCH   8  18
TORSDOF 4
