REMARK  Name = ZINC15858777
REMARK  10 active torsions:
REMARK  status: ('A' for Active; 'I' for Inactive)
REMARK    1  A    between atoms: C_1  and  C_2
REMARK    2  A    between atoms: C_5  and  C_8
REMARK    3  A    between atoms: C_14  and  O_32
REMARK    4  A    between atoms: C_15  and  C_19
REMARK    5  A    between atoms: C_16  and  C_18
REMARK    6  A    between atoms: C_19  and  C_20
REMARK    7  A    between atoms: C_20  and  C_21
REMARK    8  A    between atoms: N_23  and  C_24
REMARK    9  A    between atoms: C_28  and  C_31
REMARK   10  A    between atoms: C_29  and  C_30
REMARK                            x       y       z     vdW  Elec       q    Type
REMARK                         _______ _______ _______ _____ _____    ______ ____
ROOT
ATOM      1  C   UNL     1      -3.350  -1.386   0.021  0.00  0.00    +0.080 A 
ATOM      2  C   UNL     1      -2.997  -2.707   0.008  0.00  0.00    +0.077 A 
ATOM      3  S   UNL     1      -1.214  -2.572  -0.014  0.00  0.00    -0.056 S 
ATOM      4  C   UNL     1      -1.126  -0.787   0.005  0.00  0.00    +0.198 A 
ATOM      5  N   UNL     1      -2.404  -0.461   0.019  0.00  0.00    -0.221 NA
ATOM      6  N   UNL     1      -0.005   0.041  -0.000  0.00  0.00    -0.175 N 
ATOM      7  C   UNL     1       1.293  -0.367  -0.015  0.00  0.00    +0.221 A 
ATOM      8  C   UNL     1       2.072   0.747  -0.015  0.00  0.00    +0.037 A 
ATOM      9  C   UNL     1       1.226   1.861   0.001  0.00  0.00    +0.067 A 
ATOM     10  N   UNL     1      -0.013   1.442   0.010  0.00  0.00    -0.166 NA
ATOM     11  C   UNL     1       1.668   3.302   0.007  0.00  0.00    +0.068 C 
ENDROOT
BRANCH   1  16
ATOM     12  C   UNL     1      -8.904   0.135   0.081  0.00  0.00    +0.044 C 
ATOM     13  C   UNL     1      -7.451  -0.263   0.066  0.00  0.00    -0.050 A 
ATOM     14  C   UNL     1      -6.470   0.712   0.064  0.00  0.00    +0.004 A 
ATOM     15  C   UNL     1      -5.137   0.353   0.050  0.00  0.00    +0.010 A 
ATOM     16  C   UNL     1      -4.781  -0.995   0.037  0.00  0.00    +0.001 A 
ATOM     17  C   UNL     1      -5.774  -1.972   0.033  0.00  0.00    +0.010 A 
ATOM     18  C   UNL     1      -7.103  -1.602   0.052  0.00  0.00    +0.004 A 
ENDBRANCH   1  16
BRANCH   7  19
ATOM     19  O   UNL     1       1.731  -1.652  -0.029  0.00  0.00    -0.492 OA
ATOM     20  H   UNL     1       1.849  -2.018  -0.916  0.00  0.00    +0.294 HD
ENDBRANCH   7  19
BRANCH   8  21
ATOM     21  C   UNL     1       3.578   0.777  -0.028  0.00  0.00    +0.051 C 
BRANCH  21  22
ATOM     22  C   UNL     1       4.075   0.797  -1.475  0.00  0.00    +0.101 C 
BRANCH  22  23
ATOM     23  C   UNL     1       5.582   0.827  -1.488  0.00  0.00    +0.218 C 
ATOM     24  O   UNL     1       6.198   0.831  -0.443  0.00  0.00    -0.275 OA
ATOM     25  N   UNL     1       6.245   0.849  -2.661  0.00  0.00    -0.285 N 
ATOM     26  H   UNL     1       5.758   0.764  -3.495  0.00  0.00    +0.155 HD
BRANCH  25  27
ATOM     27  C   UNL     1       7.637   0.993  -2.675  0.00  0.00    +0.037 A 
ATOM     28  C   UNL     1       8.284   1.611  -1.612  0.00  0.00    +0.023 A 
ATOM     29  C   UNL     1       9.657   1.751  -1.629  0.00  0.00    +0.002 A 
ATOM     30  C   UNL     1      10.389   1.278  -2.703  0.00  0.00    +0.004 A 
ATOM     31  C   UNL     1       9.749   0.662  -3.762  0.00  0.00    -0.046 A 
ATOM     32  C   UNL     1       8.375   0.513  -3.749  0.00  0.00    -0.026 A 
ATOM     33  C   UNL     1       7.679  -0.164  -4.901  0.00  0.00    +0.046 C 
ATOM     34  C   UNL     1      10.550   0.147  -4.930  0.00  0.00    +0.044 C 
ENDBRANCH  25  27
ENDBRANCH  22  23
ENDBRANCH  21  22
ENDBRANCH   8  21
TORSDOF 6
