REMARK  Name = ZINC40522453
REMARK  5 active torsions:
REMARK  status: ('A' for Active; 'I' for Inactive)
REMARK    1  A    between atoms: C_1  and  C_2
REMARK    2  A    between atoms: C_5  and  N_9
REMARK    3  A    between atoms: C_6  and  C_8
REMARK    4  A    between atoms: C_17  and  C_19
REMARK    5  A    between atoms: C_19  and  C_20
REMARK                            x       y       z     vdW  Elec       q    Type
REMARK                         _______ _______ _______ _____ _____    ______ ____
ROOT
ATOM      1  N   UNL     1       0.417  -4.244   0.010  0.00  0.00    -0.269 N 
ATOM      2  C   UNL     1       0.221  -4.882  -1.161  0.00  0.00    +0.307 C 
ATOM      3  O   UNL     1       0.222  -4.254  -2.202  0.00  0.00    -0.252 OA
ATOM      4  N   UNL     1       0.025  -6.215  -1.178  0.00  0.00    -0.282 N 
ATOM      5  C   UNL     1      -0.053  -6.976   0.077  0.00  0.00    +0.109 C 
ATOM      6  C   UNL     1       0.956  -8.127   0.018  0.00  0.00    +0.019 C 
ATOM      7  C   UNL     1       0.701  -8.960  -1.240  0.00  0.00    +0.003 C 
ATOM      8  C   UNL     1       0.893  -8.086  -2.481  0.00  0.00    +0.023 C 
ATOM      9  C   UNL     1      -0.122  -6.934  -2.451  0.00  0.00    +0.088 C 
ATOM     10  H   UNL     1       0.481  -4.752   0.834  0.00  0.00    +0.156 HD
ENDROOT
BRANCH   1  15
ATOM     11  C   UNL     1       0.869   1.410   0.120  0.00  0.00    +0.044 C 
ATOM     12  C   UNL     1       0.749  -0.092   0.091  0.00  0.00    -0.050 A 
ATOM     13  C   UNL     1       1.074  -0.788  -1.059  0.00  0.00    +0.005 A 
ATOM     14  C   UNL     1       0.965  -2.164  -1.089  0.00  0.00    +0.024 A 
ATOM     15  C   UNL     1       0.529  -2.849   0.037  0.00  0.00    +0.038 A 
ATOM     16  C   UNL     1       0.204  -2.148   1.191  0.00  0.00    -0.029 A 
ATOM     17  C   UNL     1       0.320  -0.771   1.216  0.00  0.00    +0.008 A 
ATOM     18  C   UNL     1      -0.270  -2.887   2.415  0.00  0.00    +0.045 C 
ENDBRANCH   1  15
BRANCH   9  19
ATOM     19  C   UNL     1       0.149  -5.978  -3.614  0.00  0.00    +0.147 C 
BRANCH  19  20
ATOM     20  C   UNL     1      -1.043  -5.078  -3.813  0.00  0.00    +0.358 C 
ATOM     21  O   UNL     1      -2.020  -5.191  -3.092  0.00  0.00    -0.246 OA
ATOM     22  O   UNL     1      -1.032  -4.237  -4.696  0.00  0.00    -0.246 OA
ENDBRANCH  19  20
ENDBRANCH   9  19
TORSDOF 3
