REMARK  Name = ZINC04140720
REMARK  5 active torsions:
REMARK  status: ('A' for Active; 'I' for Inactive)
REMARK    1  A    between atoms: C_1  and  C_2
REMARK    2  A    between atoms: C_4  and  C_14
REMARK    3  A    between atoms: C_5  and  C_13
REMARK    4  A    between atoms: N_6  and  C_7
REMARK    5  A    between atoms: N_18  and  C_22
REMARK                            x       y       z     vdW  Elec       q    Type
REMARK                         _______ _______ _______ _____ _____    ______ ____
ROOT
ATOM      1  C   UNL     1       0.043  -3.377  -1.463  0.00  0.00    +0.038 C 
ATOM      2  C   UNL     1       0.533  -3.326  -2.729  0.00  0.00    +0.099 C 
ATOM      3  C   UNL     1       1.183  -2.187  -3.387  0.00  0.00    +0.273 C 
ATOM      4  O   UNL     1       1.394  -1.089  -2.907  0.00  0.00    -0.268 OA
ATOM      5  N   UNL     1       1.500  -2.601  -4.631  0.00  0.00    -0.189 N 
ATOM      6  C   UNL     1       1.112  -3.874  -4.801  0.00  0.00    +0.318 C 
ATOM      7  O   UNL     1       1.268  -4.511  -5.825  0.00  0.00    -0.251 OA
ATOM      8  N   UNL     1       0.532  -4.354  -3.686  0.00  0.00    -0.264 N 
ATOM      9  H   UNL     1       0.176  -5.248  -3.565  0.00  0.00    +0.157 HD
ENDROOT
BRANCH   1  13
ATOM     10  C   UNL     1      -0.492   1.492  -0.053  0.00  0.00    +0.064 C 
ATOM     11  C   UNL     1      -0.265   0.003  -0.046  0.00  0.00    +0.022 A 
ATOM     12  C   UNL     1      -0.301  -0.795  -1.127  0.00  0.00    +0.031 A 
ATOM     13  C   UNL     1      -0.024  -2.157  -0.652  0.00  0.00    -0.002 A 
ATOM     14  C   UNL     1       0.160  -2.054   0.713  0.00  0.00    +0.028 A 
ATOM     15  N   UNL     1       0.017  -0.750   1.059  0.00  0.00    -0.316 N 
ATOM     16  C   UNL     1       0.470  -3.191   1.652  0.00  0.00    +0.064 C 
BRANCH  15  17
ATOM     17  C   UNL     1       0.138  -0.249   2.362  0.00  0.00    +0.065 A 
ATOM     18  C   UNL     1       1.162   0.638   2.685  0.00  0.00    +0.029 A 
ATOM     19  C   UNL     1       1.240   1.107   3.986  0.00  0.00    +0.022 A 
ATOM     20  C   UNL     1       0.307   0.682   4.914  0.00  0.00    +0.111 A 
ATOM     21  N   UNL     1      -0.650  -0.159   4.576  0.00  0.00    -0.261 NA
ATOM     22  C   UNL     1      -0.764  -0.624   3.348  0.00  0.00    +0.136 A 
ENDBRANCH  15  17
ENDBRANCH   1  13
BRANCH   5  23
ATOM     23  C   UNL     1       2.140  -1.818  -5.601  0.00  0.00    +0.046 A 
ATOM     24  C   UNL     1       2.502  -0.509  -5.311  0.00  0.00    +0.024 A 
ATOM     25  C   UNL     1       3.132   0.260  -6.270  0.00  0.00    +0.002 A 
ATOM     26  C   UNL     1       3.402  -0.272  -7.518  0.00  0.00    +0.000 A 
ATOM     27  C   UNL     1       3.042  -1.575  -7.809  0.00  0.00    +0.002 A 
ATOM     28  C   UNL     1       2.417  -2.351  -6.853  0.00  0.00    +0.024 A 
ENDBRANCH   5  23
TORSDOF 3
