REMARK  Name = ZINC35870341
REMARK  8 active torsions:
REMARK  status: ('A' for Active; 'I' for Inactive)
REMARK    1  A    between atoms: C_1  and  C_2
REMARK    2  A    between atoms: C_2  and  C_3
REMARK    3  A    between atoms: C_3  and  C_5
REMARK    4  A    between atoms: C_3  and  N_6
REMARK    5  A    between atoms: C_7  and  C_9
REMARK    6  A    between atoms: C_14  and  N_33
REMARK    7  A    between atoms: N_22  and  C_25
REMARK    8  A    between atoms: C_25  and  C_26
REMARK                            x       y       z     vdW  Elec       q    Type
REMARK                         _______ _______ _______ _____ _____    ______ ____
ROOT
ATOM      1  C   UNL     1      -0.234   0.422  -4.849  0.00  0.00    +0.098 C 
ATOM      2  C   UNL     1      -0.924   1.740  -4.565  0.00  0.00    +0.051 C 
ATOM      3  C   UNL     1       0.021   2.903  -4.656  0.00  0.00    -0.023 A 
ATOM      4  C   UNL     1      -0.202   4.032  -3.889  0.00  0.00    +0.038 A 
ATOM      5  C   UNL     1       0.661   5.108  -3.970  0.00  0.00    +0.127 A 
ATOM      6  C   UNL     1       1.752   5.061  -4.818  0.00  0.00    +0.034 A 
ATOM      7  C   UNL     1       1.982   3.937  -5.586  0.00  0.00    +0.025 A 
ATOM      8  C   UNL     1       1.116   2.851  -5.506  0.00  0.00    +0.033 A 
ATOM      9  N   UNL     1       1.355   1.717  -6.271  0.00  0.00    -0.329 N 
ATOM     10  C   UNL     1       0.691   0.446  -6.035  0.00  0.00    +0.069 C 
ATOM     11  C   UNL     1      -0.007   0.007  -7.323  0.00  0.00    -0.055 C 
ATOM     12  N   UNL     1       0.980  -0.026  -8.412  0.00  0.00    +0.385 N 
ATOM     13  C   UNL     1       1.527   1.315  -8.652  0.00  0.00    -0.059 C 
ATOM     14  C   UNL     1       2.290   1.786  -7.413  0.00  0.00    +0.087 C 
ATOM     15  H   UNL     1       1.731  -0.652  -8.163  0.00  0.00    -0.081 HD
ENDROOT
BRANCH   1  17
ATOM     16  N   UNL     1      -0.055  -0.114  -2.441  0.00  0.00    -0.312 N 
ATOM     17  C   UNL     1       0.561   0.028  -3.631  0.00  0.00    +0.218 C 
ATOM     18  O   UNL     1       1.755  -0.162  -3.722  0.00  0.00    -0.275 OA
ATOM     19  H   UNL     1      -1.010   0.038  -2.368  0.00  0.00    +0.149 HD
BRANCH  16  20
ATOM     20  C   UNL     1       0.718  -0.497  -1.257  0.00  0.00    +0.070 C 
ATOM     21  C   UNL     1       0.849  -2.021  -1.205  0.00  0.00    +0.028 C 
BRANCH  20  23
ATOM     22  C   UNL     1      -0.019   1.526   0.010  0.00  0.00    +0.005 C 
ATOM     23  C   UNL     1       0.002  -0.004   0.002  0.00  0.00    +0.018 C 
ENDBRANCH  20  23
ENDBRANCH  16  20
ENDBRANCH   1  17
BRANCH   5  24
ATOM     24  N   UNL     1       0.417   6.314  -3.146  0.00  0.00    +0.056 N 
ATOM     25  O   UNL     1      -0.536   6.356  -2.404  0.00  0.00    -0.126 OA
ATOM     26  O   UNL     1       1.172   7.256  -3.216  0.00  0.00    -0.126 OA
ENDBRANCH   5  24
BRANCH  12  27
ATOM     27  C   UNL     1       0.332  -0.511  -9.638  0.00  0.00    -0.043 C 
BRANCH  27  28
ATOM     28  C   UNL     1       1.365  -0.663 -10.725  0.00  0.00    -0.064 A 
ATOM     29  C   UNL     1       1.647   0.399 -11.564  0.00  0.00    +0.003 A 
ATOM     30  C   UNL     1       2.593   0.260 -12.562  0.00  0.00    +0.020 A 
ATOM     31  C   UNL     1       3.259  -0.943 -12.720  0.00  0.00    +0.041 A 
ATOM     32  C   UNL     1       2.977  -2.005 -11.880  0.00  0.00    +0.020 A 
ATOM     33  C   UNL     1       2.034  -1.863 -10.880  0.00  0.00    +0.003 A 
ATOM     34 CL   UNL     1       4.448  -1.118 -13.973  0.00  0.00    -0.084 Cl
ENDBRANCH  27  28
ENDBRANCH  12  27
TORSDOF 6
