REMARK  Name = ZINC33087952
REMARK  10 active torsions:
REMARK  status: ('A' for Active; 'I' for Inactive)
REMARK    1  A    between atoms: C_1  and  C_2
REMARK    2  A    between atoms: C_5  and  N_32
REMARK    3  A    between atoms: C_6  and  C_8
REMARK    4  A    between atoms: N_11  and  C_19
REMARK    5  A    between atoms: C_19  and  C_20
REMARK    6  A    between atoms: N_22  and  C_23
REMARK    7  A    between atoms: C_28  and  C_29
REMARK    8  A    between atoms: C_29  and  C_30
REMARK    9  A    between atoms: C_29  and  C_31
REMARK   10  A    between atoms: C_33  and  C_35
REMARK                            x       y       z     vdW  Elec       q    Type
REMARK                         _______ _______ _______ _____ _____    ______ ____
ROOT
ATOM      1  C   UNL     1      -1.065   5.488   1.879  0.00  0.00    +0.138 A 
ATOM      2  C   UNL     1      -1.214   6.940   2.093  0.00  0.00    +0.278 A 
ATOM      3  O   UNL     1      -1.767   7.363   3.090  0.00  0.00    -0.265 OA
ATOM      4  N   UNL     1      -0.723   7.793   1.168  0.00  0.00    -0.296 N 
ATOM      5  C   UNL     1      -0.104   7.282   0.043  0.00  0.00    +0.071 A 
ATOM      6  C   UNL     1       0.405   8.139  -0.927  0.00  0.00    +0.028 A 
ATOM      7  C   UNL     1       1.020   7.621  -2.046  0.00  0.00    +0.002 A 
ATOM      8  C   UNL     1       1.137   6.247  -2.215  0.00  0.00    +0.002 A 
ATOM      9  C   UNL     1       0.645   5.388  -1.277  0.00  0.00    +0.030 A 
ATOM     10  C   UNL     1       0.014   5.889  -0.128  0.00  0.00    +0.088 A 
ATOM     11  N   UNL     1      -0.471   5.041   0.798  0.00  0.00    -0.240 NA
ENDROOT
BRANCH   1  17
ATOM     12  C   UNL     1      -4.262   1.869   3.133  0.00  0.00    +0.044 C 
ATOM     13  C   UNL     1      -3.126   2.793   3.490  0.00  0.00    -0.050 A 
ATOM     14  C   UNL     1      -2.579   2.753   4.762  0.00  0.00    +0.005 A 
ATOM     15  C   UNL     1      -1.538   3.595   5.101  0.00  0.00    +0.024 A 
ATOM     16  C   UNL     1      -1.034   4.489   4.167  0.00  0.00    +0.043 A 
ATOM     17  C   UNL     1      -1.590   4.536   2.881  0.00  0.00    +0.027 A 
ATOM     18  C   UNL     1      -2.637   3.675   2.550  0.00  0.00    +0.015 A 
BRANCH  16  19
ATOM     19  N   UNL     1       0.017   5.341   4.508  0.00  0.00    -0.285 N 
ATOM     20  C   UNL     1       0.227   5.669   5.799  0.00  0.00    +0.214 C 
ATOM     21  O   UNL     1      -0.553   5.303   6.652  0.00  0.00    -0.276 OA
ATOM     22  C   UNL     1       1.430   6.491   6.181  0.00  0.00    +0.109 C 
ATOM     23  H   UNL     1       0.674   5.745   3.724  0.00  0.00    +0.155 HD
ENDBRANCH  16  19
ENDBRANCH   1  17
BRANCH   4  24
ATOM     24  C   UNL     1      -0.850   9.241   1.352  0.00  0.00    +0.221 C 
BRANCH  24  25
ATOM     25  C   UNL     1      -2.143   9.714   0.738  0.00  0.00    +0.237 C 
ATOM     26  O   UNL     1      -2.885   8.920   0.201  0.00  0.00    -0.274 OA
ATOM     27  N   UNL     1      -2.474  11.019   0.787  0.00  0.00    -0.284 N 
ATOM     28  H   UNL     1      -1.837  11.728   1.337  0.00  0.00    +0.155 HD
BRANCH  27  29
ATOM     29  C   UNL     1      -3.628  11.473   0.139  0.00  0.00    +0.037 A 
ATOM     30  C   UNL     1      -4.755  10.664   0.077  0.00  0.00    +0.023 A 
ATOM     31  C   UNL     1      -5.894  11.117  -0.559  0.00  0.00    +0.002 A 
ATOM     32  C   UNL     1      -5.910  12.370  -1.143  0.00  0.00    +0.000 A 
ATOM     33  C   UNL     1      -4.788  13.176  -1.087  0.00  0.00    +0.006 A 
ATOM     34  C   UNL     1      -3.647  12.731  -0.448  0.00  0.00    -0.024 A 
BRANCH  34  35
ATOM     35  C   UNL     1      -2.424  13.610  -0.389  0.00  0.00    +0.015 C 
ATOM     36  C   UNL     1      -2.026  14.026  -1.806  0.00  0.00    +0.012 C 
ATOM     37  C   UNL     1      -2.733  14.858   0.441  0.00  0.00    +0.012 C 
ENDBRANCH  34  35
ENDBRANCH  27  29
ENDBRANCH  24  25
ENDBRANCH   4  24
TORSDOF 6
