REMARK  Name = ZINC12186354
REMARK  8 active torsions:
REMARK  status: ('A' for Active; 'I' for Inactive)
REMARK    1  A    between atoms: C_1  and  C_2
REMARK    2  A    between atoms: C_2  and  C_3
REMARK    3  A    between atoms: C_2  and  C_4
REMARK    4  A    between atoms: C_2  and  C_5
REMARK    5  A    between atoms: C_8  and  C_22
REMARK    6  A    between atoms: N_14  and  C_16
REMARK    7  A    between atoms: C_22  and  N_48
REMARK    8  A    between atoms: C_23  and  N_48
REMARK                            x       y       z     vdW  Elec       q    Type
REMARK                         _______ _______ _______ _____ _____    ______ ____
ROOT
ATOM      1  C   UNL     1      -1.745  -3.102  -1.241  0.00  0.00    +0.078 A 
ATOM      2  C   UNL     1      -0.923  -2.106  -0.663  0.00  0.00    +0.041 A 
ATOM      3  C   UNL     1      -0.962  -0.693  -0.663  0.00  0.00    +0.020 A 
ATOM      4  C   UNL     1       0.002  -0.004   0.002  0.00  0.00    +0.001 A 
ATOM      5  C   UNL     1       1.016  -0.698   0.688  0.00  0.00    +0.252 A 
ATOM      6  O   UNL     1       1.875  -0.071   1.286  0.00  0.00    -0.268 OA
ATOM      7  N   UNL     1       1.051  -2.043   0.691  0.00  0.00    -0.307 N 
ATOM      8  H   UNL     1       1.758  -2.505   1.169  0.00  0.00    +0.170 HD
ATOM      9  C   UNL     1       0.097  -2.766   0.026  0.00  0.00    +0.145 A 
ATOM     10  N   UNL     1      -0.114  -4.098  -0.138  0.00  0.00    -0.216 N 
ATOM     11  N   UNL     1      -1.259  -4.269  -0.925  0.00  0.00    -0.168 NA
ENDROOT
BRANCH  10  12
ATOM     12  C   UNL     1       0.679  -5.126   0.391  0.00  0.00    +0.068 A 
ATOM     13  C   UNL     1       2.054  -4.961   0.494  0.00  0.00    +0.028 A 
ATOM     14  C   UNL     1       2.832  -5.974   1.020  0.00  0.00    +0.002 A 
ATOM     15  C   UNL     1       2.244  -7.155   1.433  0.00  0.00    +0.000 A 
ATOM     16  C   UNL     1       0.876  -7.324   1.327  0.00  0.00    +0.002 A 
ATOM     17  C   UNL     1       0.092  -6.313   0.807  0.00  0.00    +0.028 A 
ENDBRANCH  10  12
BRANCH   1  19
ATOM     18  C   UNL     1      -2.591  -2.044  -3.319  0.00  0.00    +0.017 C 
ATOM     19  C   UNL     1      -2.974  -2.854  -2.079  0.00  0.00    +0.007 C 
ATOM     20  C   UNL     1      -3.574  -4.194  -2.510  0.00  0.00    +0.017 C 
ATOM     21  C   UNL     1      -4.002  -2.075  -1.258  0.00  0.00    +0.017 C 
ENDBRANCH   1  19
BRANCH   4  22
ATOM     22  C   UNL     1      -0.018   1.503   0.010  0.00  0.00    -0.041 C 
BRANCH  22  23
ATOM     23  N   UNL     1      -0.710   1.970   1.226  0.00  0.00    +0.384 N 
ATOM     24  H   UNL     1      -0.211   1.624   2.054  0.00  0.00    -0.085 HD
ATOM     25  H   UNL     1      -1.671   1.608   1.230  0.00  0.00    -0.085 HD
BRANCH  23  26
ATOM     26  C   UNL     1      -0.745   3.444   1.261  0.00  0.00    -0.072 C 
ATOM     27  C   UNL     1      -0.431   4.121   2.597  0.00  0.00    -0.017 C 
ATOM     28  C   UNL     1      -1.867   4.098   2.070  0.00  0.00    -0.017 C 
ENDBRANCH  23  26
ENDBRANCH  22  23
ENDBRANCH   4  22
TORSDOF 5
