REMARK  Name = ZINC40497654
REMARK  7 active torsions:
REMARK  status: ('A' for Active; 'I' for Inactive)
REMARK    1  A    between atoms: C_1  and  C_2
REMARK    2  A    between atoms: C_7  and  C_8
REMARK    3  A    between atoms: N_10  and  C_11
REMARK    4  A    between atoms: C_11  and  C_13
REMARK    5  A    between atoms: C_11  and  C_14
REMARK    6  A    between atoms: C_21  and  C_25
REMARK    7  A    between atoms: C_21  and  C_26
REMARK                            x       y       z     vdW  Elec       q    Type
REMARK                         _______ _______ _______ _____ _____    ______ ____
ROOT
ATOM      1  C   UNL     1      -0.018   1.503   0.010  0.00  0.00    +0.047 C 
ATOM      2  C   UNL     1       0.002  -0.004   0.002  0.00  0.00    -0.010 A 
ATOM      3  C   UNL     1       0.008  -0.834  -1.125  0.00  0.00    +0.042 A 
ATOM      4  C   UNL     1       0.026  -2.155  -0.678  0.00  0.00    +0.028 A 
ATOM      5  N   UNL     1       0.034  -2.137   0.655  0.00  0.00    -0.354 N 
ATOM      6  H   UNL     1       0.048  -2.920   1.227  0.00  0.00    +0.166 HD
ATOM      7  C   UNL     1       0.024  -0.827   1.094  0.00  0.00    +0.106 A 
ATOM      8  C   UNL     1       0.031  -3.337  -1.615  0.00  0.00    +0.060 C 
ATOM      9  C   UNL     1      -0.488  -2.895  -2.987  0.00  0.00    -0.023 C 
ATOM     10  C   UNL     1       0.287  -1.674  -3.491  0.00  0.00    +0.086 C 
ATOM     11  C   UNL     1       0.002  -0.505  -2.559  0.00  0.00    +0.166 C 
ATOM     12  O   UNL     1      -0.215   0.616  -2.969  0.00  0.00    -0.292 OA
ATOM     13  C   UNL     1      -0.321  -4.044  -3.983  0.00  0.00    +0.011 C 
ATOM     14  C   UNL     1      -1.972  -2.539  -2.873  0.00  0.00    +0.011 C 
ENDROOT
BRANCH   7  15
ATOM     15  C   UNL     1       0.032  -0.391   2.496  0.00  0.00    +0.261 C 
ATOM     16  O   UNL     1       0.019   0.795   2.765  0.00  0.00    -0.269 OA
ATOM     17  N   UNL     1       0.055  -1.306   3.486  0.00  0.00    -0.305 N 
ATOM     18  H   UNL     1       0.065  -2.252   3.271  0.00  0.00    +0.149 HD
BRANCH  17  19
ATOM     19  C   UNL     1       0.063  -0.872   4.885  0.00  0.00    +0.099 C 
ATOM     20  C   UNL     1       1.500  -0.581   5.320  0.00  0.00    +0.030 C 
BRANCH  19  21
ATOM     21  C   UNL     1      -0.523  -1.977   5.765  0.00  0.00    +0.138 C 
ATOM     22  C   UNL     1      -1.919  -2.399   5.241  0.00  0.00    +0.035 C 
ATOM     23  C   UNL     1      -2.017  -3.847   5.795  0.00  0.00    +0.031 C 
ATOM     24  C   UNL     1      -0.551  -4.326   5.719  0.00  0.00    +0.160 C 
ATOM     25  O   UNL     1       0.285  -3.162   5.682  0.00  0.00    -0.375 OA
ENDBRANCH  19  21
ENDBRANCH  17  19
ENDBRANCH   7  15
TORSDOF 3
