REMARK  Name = ZINC66641676
REMARK  9 active torsions:
REMARK  status: ('A' for Active; 'I' for Inactive)
REMARK    1  A    between atoms: C_1  and  C_2
REMARK    2  A    between atoms: C_2  and  C_3
REMARK    3  A    between atoms: C_2  and  N_4
REMARK    4  A    between atoms: C_8  and  C_11
REMARK    5  A    between atoms: C_11  and  N_12
REMARK    6  A    between atoms: C_13  and  C_15
REMARK    7  A    between atoms: C_15  and  N_16
REMARK    8  A    between atoms: N_19  and  C_20
REMARK    9  A    between atoms: C_20  and  C_21
REMARK                            x       y       z     vdW  Elec       q    Type
REMARK                         _______ _______ _______ _____ _____    ______ ____
ROOT
ATOM      1  N   UNL     1       4.825  -0.169  -3.806  0.00  0.00    -0.314 N 
ATOM      2  C   UNL     1       6.098   0.205  -4.041  0.00  0.00    +0.230 C 
ATOM      3  O   UNL     1       6.725   0.795  -3.186  0.00  0.00    -0.274 OA
ATOM      4  H   UNL     1       4.324  -0.641  -4.489  0.00  0.00    +0.149 HD
ENDROOT
BRANCH   1   5
ATOM      5  C   UNL     1       4.197   0.138  -2.518  0.00  0.00    +0.106 C 
BRANCH   5  10
ATOM      6  N   UNL     1       0.690  -0.478  -1.207  0.00  0.00    +0.381 N 
ATOM      7  C   UNL     1       0.701  -1.946  -1.218  0.00  0.00    -0.078 C 
ATOM      8  C   UNL     1       1.344  -2.445  -2.514  0.00  0.00    -0.018 C 
ATOM      9  C   UNL     1       2.781  -1.921  -2.599  0.00  0.00    +0.001 C 
ATOM     10  C   UNL     1       2.762  -0.392  -2.511  0.00  0.00    -0.011 C 
ATOM     11  C   UNL     1       2.067   0.031  -1.216  0.00  0.00    -0.074 C 
ATOM     12  H   UNL     1       0.202  -0.141  -2.023  0.00  0.00    -0.081 HD
BRANCH   6  14
ATOM     13  C   UNL     1      -0.019   1.526   0.010  0.00  0.00    -0.014 C 
ATOM     14  C   UNL     1       0.002  -0.004   0.002  0.00  0.00    -0.075 C 
ATOM     15  C   UNL     1      -1.433  -0.534   0.013  0.00  0.00    -0.014 C 
ENDBRANCH   6  14
ENDBRANCH   5  10
ENDBRANCH   1   5
BRANCH   2  16
ATOM     16  C   UNL     1       6.744  -0.111  -5.365  0.00  0.00    +0.201 C 
BRANCH  16  17
ATOM     17  N   UNL     1       8.118   0.396  -5.372  0.00  0.00    -0.291 N 
ATOM     18  C   UNL     1       8.894   0.228  -6.461  0.00  0.00    +0.300 C 
ATOM     19  O   UNL     1       8.453  -0.345  -7.439  0.00  0.00    -0.253 OA
ATOM     20  N   UNL     1      10.158   0.694  -6.467  0.00  0.00    -0.295 N 
ATOM     21  H   UNL     1       8.470   0.853  -4.592  0.00  0.00    +0.151 HD
ATOM     22  H   UNL     1      10.510   1.151  -5.687  0.00  0.00    +0.151 HD
BRANCH  20  23
ATOM     23  C   UNL     1      11.001   0.511  -7.651  0.00  0.00    +0.141 C 
BRANCH  23  24
ATOM     24  C   UNL     1      12.357   1.118  -7.402  0.00  0.00    -0.030 A 
ATOM     25  C   UNL     1      12.590   2.443  -7.719  0.00  0.00    +0.006 A 
ATOM     26  C   UNL     1      13.834   3.001  -7.490  0.00  0.00    +0.020 A 
ATOM     27  C   UNL     1      14.846   2.233  -6.943  0.00  0.00    +0.041 A 
ATOM     28  C   UNL     1      14.613   0.907  -6.625  0.00  0.00    +0.020 A 
ATOM     29  C   UNL     1      13.367   0.352  -6.849  0.00  0.00    +0.006 A 
ATOM     30 CL   UNL     1      16.409   2.933  -6.656  0.00  0.00    -0.084 Cl
ENDBRANCH  23  24
ENDBRANCH  20  23
ENDBRANCH  16  17
ENDBRANCH   2  16
TORSDOF 7
