REMARK  Name = ZINC63985876
REMARK  9 active torsions:
REMARK  status: ('A' for Active; 'I' for Inactive)
REMARK    1  A    between atoms: C_1  and  O_2
REMARK    2  A    between atoms: O_2  and  C_3
REMARK    3  A    between atoms: C_3  and  C_4
REMARK    4  A    between atoms: C_4  and  C_5
REMARK    5  A    between atoms: C_5  and  N_6
REMARK    6  A    between atoms: N_9  and  C_29
REMARK    7  A    between atoms: N_15  and  C_18
REMARK    8  A    between atoms: C_18  and  C_19
REMARK    9  A    between atoms: C_29  and  C_30
REMARK                            x       y       z     vdW  Elec       q    Type
REMARK                         _______ _______ _______ _____ _____    ______ ____
ROOT
ATOM      1  N   UNL     1      -2.465  -4.227   0.108  0.00  0.00    -0.271 N 
ATOM      2  C   UNL     1      -2.359  -5.099  -0.913  0.00  0.00    +0.312 C 
ATOM      3  O   UNL     1      -2.312  -4.769  -2.082  0.00  0.00    -0.252 OA
ATOM      4  N   UNL     1      -2.309  -6.370  -0.496  0.00  0.00    -0.220 N 
ATOM      5  C   UNL     1      -2.379  -6.455   0.848  0.00  0.00    +0.247 C 
ATOM      6  O   UNL     1      -2.359  -7.463   1.522  0.00  0.00    -0.273 OA
ATOM      7  C   UNL     1      -2.482  -5.030   1.337  0.00  0.00    +0.112 C 
ATOM      8  C   UNL     1      -1.290  -4.679   2.223  0.00  0.00    +0.017 C 
ATOM      9  C   UNL     1      -1.449  -3.247   2.741  0.00  0.00    -0.076 C 
ATOM     10  N   UNL     1      -2.699  -3.136   3.503  0.00  0.00    +0.381 N 
ATOM     11  C   UNL     1      -3.846  -3.383   2.620  0.00  0.00    -0.076 C 
ATOM     12  C   UNL     1      -3.789  -4.821   2.096  0.00  0.00    +0.017 C 
ATOM     13  H   UNL     1      -2.698  -3.816   4.249  0.00  0.00    -0.082 HD
ENDROOT
BRANCH   1  14
ATOM     14  C   UNL     1      -2.543  -2.768   0.011  0.00  0.00    +0.112 C 
BRANCH  14  15
ATOM     15  C   UNL     1      -3.857  -2.370  -0.664  0.00  0.00    +0.047 C 
BRANCH  15  16
ATOM     16  C   UNL     1      -3.996  -0.847  -0.653  0.00  0.00    +0.161 C 
BRANCH  16  18
ATOM     17  C   UNL     1      -5.452   0.934  -1.327  0.00  0.00    +0.193 C 
ATOM     18  O   UNL     1      -5.223  -0.476  -1.284  0.00  0.00    -0.383 OA
ENDBRANCH  16  18
ENDBRANCH  15  16
ENDBRANCH  14  15
ENDBRANCH   1  14
BRANCH  10  19
ATOM     19  C   UNL     1      -2.804  -1.787   4.074  0.00  0.00    -0.050 C 
BRANCH  19  20
ATOM     20  C   UNL     1      -4.043  -1.708   4.970  0.00  0.00    +0.086 C 
ATOM     21  C   UNL     1      -4.068  -0.389   5.708  0.00  0.00    +0.005 C 
ATOM     22  C   UNL     1      -4.029  -0.695   7.025  0.00  0.00    -0.004 A 
ATOM     23  C   UNL     1      -4.027   0.131   8.239  0.00  0.00    +0.010 A 
ATOM     24  C   UNL     1      -3.980  -0.477   9.446  0.00  0.00    +0.001 A 
ATOM     25  C   UNL     1      -3.932  -1.873   9.567  0.00  0.00    +0.002 A 
ATOM     26  C   UNL     1      -3.930  -2.698   8.498  0.00  0.00    +0.026 A 
ATOM     27  C   UNL     1      -3.978  -2.166   7.180  0.00  0.00    +0.043 A 
ATOM     28  N   UNL     1      -3.986  -2.748   6.003  0.00  0.00    -0.380 N 
ATOM     29  H   UNL     1      -3.960  -3.704   5.843  0.00  0.00    +0.160 HD
ENDBRANCH  19  20
ENDBRANCH  10  19
BRANCH   4  30
ATOM     30  C   UNL     1      -2.193  -7.526  -1.390  0.00  0.00    +0.153 C 
BRANCH  30  31
ATOM     31  C   UNL     1      -0.738  -7.841  -1.617  0.00  0.00    -0.029 A 
ATOM     32  C   UNL     1      -0.061  -7.238  -2.676  0.00  0.00    +0.006 A 
ATOM     33  C   UNL     1       1.253  -7.502  -2.909  0.00  0.00    +0.009 A 
ATOM     34  C   UNL     1       1.943  -8.395  -2.071  0.00  0.00    -0.018 A 
ATOM     35  C   UNL     1       3.300  -8.691  -2.279  0.00  0.00    +0.008 A 
ATOM     36  C   UNL     1       3.936  -9.560  -1.447  0.00  0.00    +0.001 A 
ATOM     37  C   UNL     1       3.260 -10.163  -0.387  0.00  0.00    +0.001 A 
ATOM     38  C   UNL     1       1.945  -9.900  -0.155  0.00  0.00    +0.008 A 
ATOM     39  C   UNL     1       1.255  -9.008  -0.993  0.00  0.00    -0.018 A 
ATOM     40  C   UNL     1      -0.101  -8.707  -0.781  0.00  0.00    +0.013 A 
ENDBRANCH  30  31
ENDBRANCH   4  30
TORSDOF 8
