REMARK  Name = ZINC33057905
REMARK  9 active torsions:
REMARK  status: ('A' for Active; 'I' for Inactive)
REMARK    1  A    between atoms: C_1  and  C_2
REMARK    2  A    between atoms: C_5  and  C_8
REMARK    3  A    between atoms: C_8  and  N_9
REMARK    4  A    between atoms: C_10  and  C_12
REMARK    5  A    between atoms: C_12  and  C_14
REMARK    6  A    between atoms: C_12  and  N_15
REMARK    7  A    between atoms: C_20  and  C_22
REMARK    8  A    between atoms: N_24  and  C_31
REMARK    9  A    between atoms: C_25  and  N_26
REMARK                            x       y       z     vdW  Elec       q    Type
REMARK                         _______ _______ _______ _____ _____    ______ ____
ROOT
ATOM      1  N   UNL     1       1.128   7.357   3.078  0.00  0.00    -0.217 N 
ATOM      2  C   UNL     1       2.146   8.017   3.668  0.00  0.00    +0.281 A 
ATOM      3  O   UNL     1       3.064   7.406   4.185  0.00  0.00    -0.265 OA
ATOM      4  C   UNL     1       2.129   9.478   3.671  0.00  0.00    +0.112 A 
ATOM      5  C   UNL     1       0.984  10.152   3.032  0.00  0.00    +0.123 A 
ATOM      6  C   UNL     1      -0.056   9.308   2.434  0.00  0.00    +0.086 A 
ATOM      7  N   UNL     1       0.056   8.016   2.480  0.00  0.00    -0.171 NA
ATOM      8  C   UNL     1      -1.251   9.940   1.768  0.00  0.00    +0.070 C 
ATOM      9  N   UNL     1       1.179  11.442   3.160  0.00  0.00    -0.162 NA
ATOM     10  N   UNL     1       2.382  11.661   3.842  0.00  0.00    -0.215 N 
ATOM     11  C   UNL     1       2.954  10.478   4.150  0.00  0.00    +0.154 A 
ENDROOT
BRANCH  10  12
ATOM     12  C   UNL     1       2.912  12.918   4.158  0.00  0.00    +0.068 A 
ATOM     13  C   UNL     1       3.603  13.103   5.348  0.00  0.00    +0.028 A 
ATOM     14  C   UNL     1       4.129  14.343   5.654  0.00  0.00    +0.002 A 
ATOM     15  C   UNL     1       3.958  15.402   4.782  0.00  0.00    +0.000 A 
ATOM     16  C   UNL     1       3.265  15.223   3.599  0.00  0.00    +0.002 A 
ATOM     17  C   UNL     1       2.742  13.984   3.284  0.00  0.00    +0.028 A 
ENDBRANCH  10  12
BRANCH  11  18
ATOM     18  N   UNL     1       4.156  10.298   4.826  0.00  0.00    -0.307 N 
ATOM     19  C   UNL     1       4.373   9.411   5.844  0.00  0.00    +0.092 A 
ATOM     20  C   UNL     1       5.657   9.528   6.237  0.00  0.00    +0.019 A 
ATOM     21  C   UNL     1       6.254  10.528   5.443  0.00  0.00    +0.019 A 
ATOM     22  C   UNL     1       5.315  10.982   4.588  0.00  0.00    +0.092 A 
ENDBRANCH  11  18
BRANCH   1  23
ATOM     23  C   UNL     1       1.148   5.892   3.070  0.00  0.00    +0.193 C 
ATOM     24  C   UNL     1      -0.088   5.362   3.800  0.00  0.00    +0.043 C 
BRANCH  23  26
ATOM     25  N   UNL     1       1.157   4.074   1.394  0.00  0.00    -0.309 N 
ATOM     26  C   UNL     1       1.141   5.397   1.647  0.00  0.00    +0.238 C 
ATOM     27  O   UNL     1       1.122   6.190   0.729  0.00  0.00    -0.273 OA
ATOM     28  H   UNL     1       1.174   3.355   2.226  0.00  0.00    +0.149 HD
BRANCH  25  29
ATOM     29  C   UNL     1       1.151   3.592   0.010  0.00  0.00    +0.139 C 
BRANCH  29  34
ATOM     30  C   UNL     1       1.229  -2.186  -0.022  0.00  0.00    +0.044 C 
ATOM     31  C   UNL     1       1.208  -0.679  -0.014  0.00  0.00    -0.050 A 
ATOM     32  C   UNL     1       0.002  -0.004   0.002  0.00  0.00    +0.003 A 
ATOM     33  C   UNL     1      -0.017   1.378   0.010  0.00  0.00    +0.005 A 
ATOM     34  C   UNL     1       1.171   2.086   0.002  0.00  0.00    -0.030 A 
ATOM     35  C   UNL     1       2.377   1.411  -0.014  0.00  0.00    +0.005 A 
ATOM     36  C   UNL     1       2.396   0.029  -0.021  0.00  0.00    +0.003 A 
ENDBRANCH  29  34
ENDBRANCH  25  29
ENDBRANCH  23  26
ENDBRANCH   1  23
TORSDOF 6
