REMARK  Name = ZINC06409814
REMARK  11 active torsions:
REMARK  status: ('A' for Active; 'I' for Inactive)
REMARK    1  A    between atoms: C_1  and  C_2
REMARK    2  A    between atoms: C_7  and  C_14
REMARK    3  A    between atoms: C_14  and  C_16
REMARK    4  A    between atoms: C_14  and  N_71
REMARK    5  A    between atoms: N_20  and  C_21
REMARK    6  A    between atoms: C_26  and  C_27
REMARK    7  A    between atoms: C_26  and  N_71
REMARK    8  A    between atoms: C_30  and  O_33
REMARK    9  A    between atoms: O_33  and  C_34
REMARK   10  A    between atoms: C_35  and  C_36
REMARK   11  A    between atoms: C_35  and  N_71
REMARK                            x       y       z     vdW  Elec       q    Type
REMARK                         _______ _______ _______ _____ _____    ______ ____
ROOT
ATOM      1  C   UNL     1      -0.419   1.608  -0.305  0.00  0.00    +0.040 C 
ENDROOT
BRANCH   1   8
ATOM      2  C   UNL     1      -4.069   7.194  -4.674  0.00  0.00    +0.044 C 
ATOM      3  C   UNL     1      -3.524   5.988  -3.953  0.00  0.00    -0.048 A 
ATOM      4  C   UNL     1      -4.061   4.734  -4.210  0.00  0.00    +0.004 A 
ATOM      5  C   UNL     1      -3.582   3.628  -3.567  0.00  0.00    +0.010 A 
ATOM      6  C   UNL     1      -2.541   3.760  -2.642  0.00  0.00    -0.001 A 
ATOM      7  C   UNL     1      -2.000   2.595  -1.939  0.00  0.00    +0.017 A 
ATOM      8  C   UNL     1      -0.995   2.785  -1.049  0.00  0.00    +0.011 A 
ATOM      9  C   UNL     1      -0.481   4.080  -0.822  0.00  0.00    +0.251 A 
ATOM     10  O   UNL     1       0.425   4.227  -0.021  0.00  0.00    -0.268 OA
ATOM     11  N   UNL     1      -0.968   5.154  -1.467  0.00  0.00    -0.322 N 
ATOM     12  H   UNL     1      -0.592   6.030  -1.287  0.00  0.00    +0.169 HD
ATOM     13  C   UNL     1      -1.994   5.030  -2.379  0.00  0.00    +0.049 A 
ATOM     14  C   UNL     1      -2.498   6.142  -3.046  0.00  0.00    +0.029 A 
ENDBRANCH   1   8
BRANCH   1  15
ATOM     15  C   UNL     1       1.005   1.382  -0.745  0.00  0.00    +0.143 A 
ATOM     16  N   UNL     1       2.050   2.099  -0.410  0.00  0.00    -0.115 NA
ATOM     17  N   UNL     1       3.083   1.589  -0.987  0.00  0.00    -0.023 NA
ATOM     18  N   UNL     1       2.724   0.566  -1.681  0.00  0.00    -0.044 NA
ATOM     19  N   UNL     1       1.451   0.403  -1.553  0.00  0.00    -0.227 N 
BRANCH  19  20
ATOM     20  C   UNL     1       0.642  -0.649  -2.173  0.00  0.00    +0.111 C 
ATOM     21  C   UNL     1       1.168  -2.038  -1.754  0.00  0.00    +0.027 C 
ATOM     22  C   UNL     1       1.001  -2.906  -3.026  0.00  0.00    +0.002 C 
ATOM     23  C   UNL     1       1.364  -1.921  -4.165  0.00  0.00    +0.002 C 
ATOM     24  C   UNL     1       0.765  -0.575  -3.705  0.00  0.00    +0.027 C 
ENDBRANCH  19  20
ENDBRANCH   1  15
BRANCH   1  25
ATOM     25  N   UNL     1      -0.428   1.899   1.144  0.00  0.00    +0.397 N 
ATOM     26  H   UNL     1       0.283   2.612   1.346  0.00  0.00    -0.079 HD
BRANCH  25  27
ATOM     27  C   UNL     1      -1.753   2.416   1.547  0.00  0.00    -0.041 C 
BRANCH  27  28
ATOM     28  C   UNL     1      -1.633   3.045   2.911  0.00  0.00    -0.064 A 
ATOM     29  C   UNL     1      -1.879   2.291   4.044  0.00  0.00    +0.005 A 
ATOM     30  C   UNL     1      -1.764   2.864   5.295  0.00  0.00    +0.046 A 
ATOM     31  C   UNL     1      -1.412   4.201   5.415  0.00  0.00    +0.120 A 
ATOM     32  C   UNL     1      -1.172   4.957   4.277  0.00  0.00    +0.046 A 
ATOM     33  C   UNL     1      -1.283   4.378   3.028  0.00  0.00    +0.005 A 
BRANCH  31  34
ATOM     34  O   UNL     1      -1.304   4.769   6.645  0.00  0.00    -0.495 OA
ATOM     35  C   UNL     1      -1.456   3.906   7.774  0.00  0.00    +0.277 C 
ENDBRANCH  31  34
ENDBRANCH  27  28
ENDBRANCH  25  27
BRANCH  25  36
ATOM     36  C   UNL     1      -0.110   0.674   1.908  0.00  0.00    -0.001 C 
BRANCH  36  37
ATOM     37  C   UNL     1       1.384   0.474   1.896  0.00  0.00    +0.089 A 
ATOM     38  C   UNL     1       2.266   1.078   2.712  0.00  0.00    +0.042 A 
ATOM     39  C   UNL     1       3.548   0.601   2.355  0.00  0.00    +0.041 A 
ATOM     40  C   UNL     1       3.373  -0.266   1.341  0.00  0.00    +0.195 A 
ATOM     41  O   UNL     1       2.060  -0.343   1.071  0.00  0.00    -0.470 OA
ENDBRANCH  36  37
ENDBRANCH  25  36
ENDBRANCH   1  25
TORSDOF 9
