REMARK  Name = ZINC45698386
REMARK  6 active torsions:
REMARK  status: ('A' for Active; 'I' for Inactive)
REMARK    1  A    between atoms: C_1  and  C_2
REMARK    2  A    between atoms: N_5  and  C_11
REMARK    3  A    between atoms: C_7  and  C_9
REMARK    4  A    between atoms: C_7  and  C_10
REMARK    5  A    between atoms: C_14  and  C_20
REMARK    6  A    between atoms: C_16  and  N_17
REMARK                            x       y       z     vdW  Elec       q    Type
REMARK                         _______ _______ _______ _____ _____    ______ ____
ROOT
ATOM      1  C   UNL     1      -2.094  -2.848  -0.656  0.00  0.00    +0.060 A 
ATOM      2  C   UNL     1      -1.489  -3.338  -1.808  0.00  0.00    +0.026 A 
ATOM      3  C   UNL     1      -2.189  -4.181  -2.648  0.00  0.00    +0.007 A 
ATOM      4  C   UNL     1      -3.490  -4.538  -2.345  0.00  0.00    -0.031 A 
ATOM      5  C   UNL     1      -4.095  -4.053  -1.200  0.00  0.00    +0.039 A 
ATOM      6  C   UNL     1      -3.399  -3.213  -0.352  0.00  0.00    +0.147 A 
ENDROOT
BRANCH   1  10
ATOM      7  C   UNL     1      -0.019   1.526   0.010  0.00  0.00    +0.039 C 
ATOM      8  C   UNL     1       0.002  -0.004   0.002  0.00  0.00    +0.133 C 
ATOM      9  C   UNL     1      -1.436  -0.536   0.015  0.00  0.00    +0.136 C 
ATOM     10  N   UNL     1      -1.389  -1.995   0.196  0.00  0.00    -0.323 N 
ATOM     11  C   UNL     1      -0.578  -2.530   1.302  0.00  0.00    +0.139 C 
ATOM     12  C   UNL     1       0.818  -1.901   1.226  0.00  0.00    +0.080 C 
ATOM     13  O   UNL     1       0.691  -0.479   1.161  0.00  0.00    -0.368 OA
ATOM     14  C   UNL     1       1.538  -2.406  -0.026  0.00  0.00    +0.043 C 
ATOM     15  C   UNL     1       1.621  -2.287   2.469  0.00  0.00    +0.043 C 
ENDBRANCH   1  10
BRANCH   6  16
ATOM     16  N   UNL     1      -4.045  -2.699   0.876  0.00  0.00    +0.058 N 
ATOM     17  O   UNL     1      -5.181  -3.017   1.140  0.00  0.00    -0.126 OA
ATOM     18  O   UNL     1      -3.437  -1.960   1.615  0.00  0.00    -0.126 OA
ENDBRANCH   6  16
BRANCH   4  19
ATOM     19  C   UNL     1      -4.250  -5.459  -3.264  0.00  0.00    +0.143 C 
ATOM     20 CL   UNL     1      -3.982  -7.169  -2.760  0.00  0.00    -0.120 Cl
ENDBRANCH   4  19
TORSDOF 3
