REMARK  Name = ZINC19782118
REMARK  4 active torsions:
REMARK  status: ('A' for Active; 'I' for Inactive)
REMARK    1  A    between atoms: C_8  and  C_10
REMARK    2  A    between atoms: C_10  and  N_11
REMARK    3  A    between atoms: C_14  and  N_20
REMARK    4  A    between atoms: C_16  and  O_19
REMARK                            x       y       z     vdW  Elec       q    Type
REMARK                         _______ _______ _______ _____ _____    ______ ____
ROOT
ATOM      1  N   UNL     1       3.379  -4.502  -1.448  0.00  0.00    +0.384 N 
ATOM      2  C   UNL     1       2.056  -4.481  -2.083  0.00  0.00    -0.077 C 
ATOM      3  C   UNL     1       2.185  -4.888  -3.553  0.00  0.00    +0.003 C 
ATOM      4  C   UNL     1       2.772  -6.300  -3.636  0.00  0.00    +0.082 C 
ATOM      5  C   UNL     1       4.117  -6.328  -2.906  0.00  0.00    +0.115 C 
ATOM      6  C   UNL     1       3.916  -5.868  -1.460  0.00  0.00    -0.045 C 
ATOM      7  H   UNL     1       4.002  -3.891  -1.954  0.00  0.00    -0.081 HD
ENDROOT
BRANCH   4   8
ATOM      8  N   UNL     1       2.968  -6.668  -5.045  0.00  0.00    -0.294 NA
ATOM      9  C   UNL     1       3.876  -5.727  -5.713  0.00  0.00    +0.103 C 
ATOM     10  C   UNL     1       4.197  -6.244  -7.120  0.00  0.00    +0.122 C 
ATOM     11  N   UNL     1       2.932  -6.494  -7.825  0.00  0.00    -0.314 N 
ATOM     12  C   UNL     1       1.913  -7.318  -7.157  0.00  0.00    +0.122 C 
ATOM     13  C   UNL     1       1.682  -6.759  -5.749  0.00  0.00    +0.103 C 
ATOM     14  C   UNL     1       2.704  -5.966  -9.091  0.00  0.00    +0.099 A 
ATOM     15  C   UNL     1       3.631  -5.093  -9.651  0.00  0.00    +0.042 A 
ATOM     16  C   UNL     1       3.392  -4.575 -10.911  0.00  0.00    +0.005 A 
ATOM     17  C   UNL     1       2.229  -4.949 -11.572  0.00  0.00    +0.018 A 
ATOM     18  C   UNL     1       1.353  -5.820 -10.957  0.00  0.00    +0.084 A 
ATOM     19  N   UNL     1       1.609  -6.303  -9.755  0.00  0.00    -0.350 N 
ATOM     20  H   UNL     1       0.979  -6.917  -9.348  0.00  0.00    +0.166 HD
ENDBRANCH   4   8
BRANCH   5  21
ATOM     21  O   UNL     1       4.639  -7.658  -2.916  0.00  0.00    -0.392 OA
ATOM     22  H   UNL     1       5.492  -7.750  -2.469  0.00  0.00    +0.210 HD
ENDBRANCH   5  21
BRANCH   1  23
ATOM     23  C   UNL     1       3.261  -4.036  -0.060  0.00  0.00    -0.034 C 
BRANCH  23  31
ATOM     24  C   UNL     1       0.170   1.427   0.006  0.00  0.00    +0.001 A 
ATOM     25  C   UNL     1       1.356   2.149  -0.012  0.00  0.00    +0.001 A 
ATOM     26  C   UNL     1       2.562   1.476  -0.034  0.00  0.00    +0.016 A 
ATOM     27  C   UNL     1       2.571   0.098  -0.037  0.00  0.00    +0.021 A 
ATOM     28  C   UNL     1       1.380  -0.660  -0.019  0.00  0.00    +0.008 A 
ATOM     29  C   UNL     1       0.166   0.067   0.002  0.00  0.00    +0.010 A 
ATOM     30  C   UNL     1       1.578  -2.102  -0.027  0.00  0.00    +0.057 A 
ATOM     31  C   UNL     1       2.826  -2.593  -0.049  0.00  0.00    -0.007 A 
ATOM     32  S   UNL     1       3.848  -1.133  -0.062  0.00  0.00    -0.094 S 
ATOM     33 CL   UNL     1       0.214  -3.175  -0.007  0.00  0.00    -0.082 Cl
ENDBRANCH  23  31
ENDBRANCH   1  23
TORSDOF 4
