REMARK  Name = ZINC13569696
REMARK  11 active torsions:
REMARK  status: ('A' for Active; 'I' for Inactive)
REMARK    1  A    between atoms: C_1  and  C_2
REMARK    2  A    between atoms: C_2  and  O_3
REMARK    3  A    between atoms: O_3  and  C_4
REMARK    4  A    between atoms: C_4  and  C_6
REMARK    5  A    between atoms: C_6  and  C_8
REMARK    6  A    between atoms: C_6  and  O_9
REMARK    7  A    between atoms: O_9  and  C_10
REMARK    8  A    between atoms: C_18  and  C_19
REMARK    9  A    between atoms: C_22  and  C_25
REMARK   10  A    between atoms: C_25  and  O_27
REMARK   11  A    between atoms: O_27  and  C_28
REMARK                            x       y       z     vdW  Elec       q    Type
REMARK                         _______ _______ _______ _____ _____    ______ ____
ROOT
ATOM      1  C   UNL     1      -3.078   5.064   0.098  0.00  0.00    +0.125 A 
ATOM      2  C   UNL     1      -3.670   3.811   0.230  0.00  0.00    +0.046 A 
ATOM      3  C   UNL     1      -2.894   2.688   0.283  0.00  0.00    +0.019 A 
ATOM      4  C   UNL     1      -1.505   2.797   0.199  0.00  0.00    +0.068 A 
ATOM      5  C   UNL     1      -0.896   4.056   0.073  0.00  0.00    +0.143 A 
ATOM      6  C   UNL     1      -1.700   5.188   0.020  0.00  0.00    +0.092 A 
ATOM      7  O   UNL     1       0.446   3.911   0.019  0.00  0.00    -0.451 OA
ATOM      8  C   UNL     1       0.817   2.613   0.106  0.00  0.00    +0.176 C 
ATOM      9  C   UNL     1       2.086   2.139   0.082  0.00  0.00    +0.058 C 
ATOM     10  C   UNL     1      -0.412   1.808   0.233  0.00  0.00    +0.231 C 
ATOM     11  O   UNL     1      -0.504   0.598   0.336  0.00  0.00    -0.283 OA
ENDROOT
BRANCH   9  12
ATOM     12  C   UNL     1       3.209   3.055  -0.165  0.00  0.00    -0.021 A 
ATOM     13  C   UNL     1       4.508   2.551  -0.304  0.00  0.00    +0.009 A 
ATOM     14  C   UNL     1       5.553   3.406  -0.540  0.00  0.00    +0.015 A 
ATOM     15  C   UNL     1       5.324   4.782  -0.631  0.00  0.00    +0.059 A 
ATOM     16  C   UNL     1       4.029   5.287  -0.487  0.00  0.00    +0.015 A 
ATOM     17  C   UNL     1       2.981   4.434  -0.256  0.00  0.00    +0.009 A 
BRANCH  15  18
ATOM     18  C   UNL     1       6.451   5.703  -0.880  0.00  0.00    +0.339 C 
ATOM     19  O   UNL     1       6.253   6.898  -0.960  0.00  0.00    -0.245 OA
BRANCH  18  20
ATOM     20  O   UNL     1       7.700   5.216  -1.020  0.00  0.00    -0.464 OA
ATOM     21  C   UNL     1       8.759   6.179  -1.262  0.00  0.00    +0.280 C 
ENDBRANCH  18  20
ENDBRANCH  15  18
ENDBRANCH   9  12
BRANCH   1  22
ATOM     22  O   UNL     1      -3.857   6.174   0.045  0.00  0.00    -0.478 OA
BRANCH  22  23
ATOM     23  C   UNL     1      -5.266   5.984   0.184  0.00  0.00    +0.278 C 
ATOM     24  C   UNL     1      -5.625   5.889   1.668  0.00  0.00    +0.064 C 
BRANCH  23  25
ATOM     25  C   UNL     1      -5.994   7.150  -0.435  0.00  0.00    +0.348 C 
ATOM     26  O   UNL     1      -5.369   8.051  -0.943  0.00  0.00    -0.247 OA
BRANCH  25  27
ATOM     27  O   UNL     1      -7.335   7.188  -0.422  0.00  0.00    -0.462 OA
BRANCH  27  29
ATOM     28  C   UNL     1      -9.488   8.208  -0.926  0.00  0.00    +0.048 C 
ATOM     29  C   UNL     1      -7.968   8.341  -1.037  0.00  0.00    +0.229 C 
ENDBRANCH  27  29
ENDBRANCH  25  27
ENDBRANCH  23  25
ENDBRANCH  22  23
ENDBRANCH   1  22
TORSDOF 8
