REMARK  Name = ZINC59890406
REMARK  17 active torsions:
REMARK  status: ('A' for Active; 'I' for Inactive)
REMARK    1  A    between atoms: C_1  and  C_2
REMARK    2  A    between atoms: C_2  and  C_3
REMARK    3  A    between atoms: C_3  and  C_4
REMARK    4  A    between atoms: C_4  and  N_5
REMARK    5  A    between atoms: N_14  and  C_34
REMARK    6  A    between atoms: C_15  and  C_17
REMARK    7  A    between atoms: C_17  and  C_18
REMARK    8  A    between atoms: C_18  and  C_19
REMARK    9  A    between atoms: N_21  and  C_22
REMARK   10  A    between atoms: C_22  and  C_23
REMARK   11  A    between atoms: C_23  and  N_31
REMARK   12  A    between atoms: C_27  and  C_30
REMARK   13  A    between atoms: N_31  and  C_32
REMARK   14  A    between atoms: N_31  and  C_33
REMARK   15  A    between atoms: C_34  and  C_35
REMARK   16  A    between atoms: C_35  and  C_36
REMARK   17  A    between atoms: C_35  and  C_37
REMARK                            x       y       z     vdW  Elec       q    Type
REMARK                         _______ _______ _______ _____ _____    ______ ____
ROOT
ATOM      1  N   UNL     1       1.044  -2.815   1.825  0.00  0.00    -0.277 N 
ATOM      2  C   UNL     1       2.405  -3.060   1.905  0.00  0.00    +0.168 A 
ATOM      3  C   UNL     1       2.914  -3.652   3.054  0.00  0.00    +0.151 A 
ATOM      4  C   UNL     1       2.032  -3.985   4.104  0.00  0.00    +0.280 A 
ATOM      5  O   UNL     1       2.454  -4.504   5.122  0.00  0.00    -0.265 OA
ATOM      6  N   UNL     1       0.715  -3.722   3.968  0.00  0.00    -0.273 N 
ATOM      7  H   UNL     1       0.105  -3.949   4.687  0.00  0.00    +0.173 HD
ATOM      8  C   UNL     1       0.237  -3.144   2.852  0.00  0.00    +0.331 A 
ATOM      9  O   UNL     1      -0.954  -2.916   2.766  0.00  0.00    -0.246 OA
ATOM     10  N   UNL     1       4.275  -3.772   2.857  0.00  0.00    -0.322 N 
ATOM     11  C   UNL     1       4.542  -3.268   1.636  0.00  0.00    +0.113 A 
ATOM     12  N   UNL     1       3.434  -2.849   1.080  0.00  0.00    -0.214 NA
ENDROOT
BRANCH   1  13
ATOM     13  C   UNL     1       0.482  -2.192   0.625  0.00  0.00    +0.128 C 
BRANCH  13  14
ATOM     14  C   UNL     1       0.493  -0.671   0.786  0.00  0.00    +0.021 C 
BRANCH  14  16
ATOM     15  C   UNL     1      -0.083   1.501  -0.306  0.00  0.00    +0.004 C 
ATOM     16  C   UNL     1      -0.094  -0.020  -0.468  0.00  0.00    -0.002 C 
ENDBRANCH  14  16
ENDBRANCH  13  14
ENDBRANCH   1  13
BRANCH  11  17
ATOM     17  C   UNL     1       5.910  -3.196   1.007  0.00  0.00    +0.083 C 
BRANCH  17  18
ATOM     18  C   UNL     1       6.173  -4.477   0.212  0.00  0.00    +0.103 C 
BRANCH  18  19
ATOM     19  C   UNL     1       7.540  -4.405  -0.417  0.00  0.00    +0.213 C 
ATOM     20  O   UNL     1       8.236  -3.426  -0.246  0.00  0.00    -0.276 OA
ATOM     21  N   UNL     1       7.990  -5.428  -1.170  0.00  0.00    -0.317 N 
ATOM     22  H   UNL     1       7.434  -6.211  -1.307  0.00  0.00    +0.149 HD
BRANCH  21  23
ATOM     23  C   UNL     1       9.320  -5.359  -1.781  0.00  0.00    +0.092 C 
BRANCH  23  24
ATOM     24  C   UNL     1       9.637  -6.690  -2.465  0.00  0.00    -0.050 C 
ATOM     25  C   UNL     1       8.605  -6.959  -3.562  0.00  0.00    -0.010 C 
ATOM     26  C   UNL     1       8.923  -8.291  -4.245  0.00  0.00    -0.001 C 
ATOM     27  C   UNL     1       8.875  -9.418  -3.212  0.00  0.00    +0.003 C 
ATOM     28  C   UNL     1       9.907  -9.149  -2.115  0.00  0.00    -0.015 C 
ATOM     29  C   UNL     1       9.589  -7.818  -1.432  0.00  0.00    -0.007 C 
ATOM     30  C   UNL     1       9.858 -10.277  -1.082  0.00  0.00    +0.007 C 
BRANCH  24  31
ATOM     31  N   UNL     1      10.979  -6.628  -3.059  0.00  0.00    +0.381 N 
ATOM     32  C   UNL     1      11.024  -5.550  -4.056  0.00  0.00    -0.096 C 
ATOM     33  C   UNL     1      11.969  -6.363  -2.007  0.00  0.00    -0.096 C 
ATOM     34  H   UNL     1      11.190  -7.508  -3.506  0.00  0.00    -0.082 HD
ENDBRANCH  24  31
ENDBRANCH  23  24
ENDBRANCH  21  23
ENDBRANCH  18  19
ENDBRANCH  17  18
ENDBRANCH  11  17
BRANCH  10  35
ATOM     35  C   UNL     1       5.245  -4.340   3.796  0.00  0.00    +0.126 C 
BRANCH  35  36
ATOM     36  C   UNL     1       5.382  -5.843   3.541  0.00  0.00    +0.003 C 
ATOM     37  C   UNL     1       6.484  -6.413   4.436  0.00  0.00    +0.009 C 
ATOM     38  C   UNL     1       4.057  -6.537   3.859  0.00  0.00    +0.009 C 
ENDBRANCH  35  36
ENDBRANCH  10  35
TORSDOF 11
