REMARK  Name = ZINC03304387
REMARK  9 active torsions:
REMARK  status: ('A' for Active; 'I' for Inactive)
REMARK    1  A    between atoms: C_1  and  C_2
REMARK    2  A    between atoms: C_2  and  C_3
REMARK    3  A    between atoms: C_2  and  C_4
REMARK    4  A    between atoms: C_2  and  N_5
REMARK    5  A    between atoms: C_9  and  C_11
REMARK    6  A    between atoms: C_11  and  S_12
REMARK    7  A    between atoms: S_12  and  C_13
REMARK    8  A    between atoms: C_16  and  C_26
REMARK    9  A    between atoms: N_17  and  C_18
REMARK                            x       y       z     vdW  Elec       q    Type
REMARK                         _______ _______ _______ _____ _____    ______ ____
ROOT
ATOM      1  C   UNL     1       1.263  -2.917   1.065  0.00  0.00    +0.197 A 
ATOM      2  N   UNL     1       1.271  -4.150   0.609  0.00  0.00    -0.122 NA
ATOM      3  N   UNL     1       1.259  -4.146  -0.676  0.00  0.00    -0.128 NA
ATOM      4  C   UNL     1       1.236  -2.912  -1.122  0.00  0.00    +0.169 A 
ATOM      5  N   UNL     1       1.234  -2.084  -0.020  0.00  0.00    -0.267 N 
ENDROOT
BRANCH   5   6
ATOM      6  C   UNL     1       1.213  -0.681  -0.013  0.00  0.00    +0.086 A 
ATOM      7  C   UNL     1       0.002  -0.004   0.002  0.00  0.00    +0.032 A 
ATOM      8  C   UNL     1      -0.017   1.377   0.010  0.00  0.00    +0.040 A 
ATOM      9  C   UNL     1       1.172   2.088   0.002  0.00  0.00    +0.126 A 
ATOM     10  C   UNL     1       2.382   1.416  -0.013  0.00  0.00    +0.078 A 
ATOM     11  C   UNL     1       2.406   0.033  -0.021  0.00  0.00    +0.150 A 
ATOM     12  F   UNL     1       3.587  -0.624  -0.036  0.00  0.00    -0.203 F 
ATOM     13  F   UNL     1       1.151   3.438   0.009  0.00  0.00    -0.205 F 
ENDBRANCH   5   6
BRANCH   4  14
ATOM     14  C   UNL     1       1.216  -2.489  -2.538  0.00  0.00    +0.020 A 
ATOM     15  C   UNL     1       0.875  -1.178  -2.874  0.00  0.00    +0.011 A 
ATOM     16  C   UNL     1       0.863  -0.788  -4.197  0.00  0.00    +0.001 A 
ATOM     17  C   UNL     1       1.177  -1.698  -5.192  0.00  0.00    +0.000 A 
ATOM     18  C   UNL     1       1.511  -3.000  -4.866  0.00  0.00    +0.001 A 
ATOM     19  C   UNL     1       1.532  -3.401  -3.546  0.00  0.00    +0.011 A 
ENDBRANCH   4  14
BRANCH   1  20
ATOM     20  S   UNL     1       1.282  -2.427   2.757  0.00  0.00    -0.076 S 
BRANCH  20  21
ATOM     21  C   UNL     1       1.317  -4.052   3.554  0.00  0.00    +0.173 C 
BRANCH  21  26
ATOM     22  N   UNL     1       1.412  -5.884   7.997  0.00  0.00    -0.294 N 
ATOM     23  C   UNL     1       1.384  -4.803   7.193  0.00  0.00    +0.306 C 
ATOM     24  O   UNL     1       1.375  -3.687   7.675  0.00  0.00    -0.252 OA
ATOM     25  N   UNL     1       1.366  -4.959   5.855  0.00  0.00    -0.239 N 
ATOM     26  C   UNL     1       1.338  -3.878   5.050  0.00  0.00    +0.231 C 
ATOM     27  O   UNL     1       1.329  -2.765   5.531  0.00  0.00    -0.274 OA
ATOM     28  H   UNL     1       1.419  -6.774   7.613  0.00  0.00    +0.151 HD
ATOM     29  H   UNL     1       1.373  -5.849   5.470  0.00  0.00    +0.159 HD
BRANCH  22  31
ATOM     30  C   UNL     1       0.178  -4.957   9.895  0.00  0.00    +0.031 C 
ATOM     31  C   UNL     1       1.432  -5.714   9.452  0.00  0.00    +0.028 C 
ATOM     32  C   UNL     1       1.463  -7.088  10.126  0.00  0.00    +0.031 C 
ATOM     33  C   UNL     1       2.676  -4.920   9.856  0.00  0.00    +0.031 C 
ENDBRANCH  22  31
ENDBRANCH  21  26
ENDBRANCH  20  21
ENDBRANCH   1  20
TORSDOF 6
