REMARK  Name = ZINC40169898
REMARK  8 active torsions:
REMARK  status: ('A' for Active; 'I' for Inactive)
REMARK    1  A    between atoms: C_1  and  C_2
REMARK    2  A    between atoms: C_5  and  C_8
REMARK    3  A    between atoms: C_11  and  N_16
REMARK    4  A    between atoms: C_12  and  C_13
REMARK    5  A    between atoms: C_17  and  C_19
REMARK    6  A    between atoms: C_19  and  C_20
REMARK    7  A    between atoms: C_20  and  S_21
REMARK    8  A    between atoms: S_21  and  C_22
REMARK                            x       y       z     vdW  Elec       q    Type
REMARK                         _______ _______ _______ _____ _____    ______ ____
ROOT
ATOM      1  N   UNL     1       1.705  -7.348   1.309  0.00  0.00    -0.279 N 
ATOM      2  C   UNL     1       1.481  -8.661   1.100  0.00  0.00    +0.218 C 
ATOM      3  O   UNL     1       0.595  -9.013   0.350  0.00  0.00    -0.275 OA
ATOM      4  H   UNL     1       2.413  -7.067   1.909  0.00  0.00    +0.155 HD
ENDROOT
BRANCH   1   8
ATOM      5  C   UNL     1       0.059  -4.255  -0.021  0.00  0.00    +0.003 A 
ATOM      6  C   UNL     1      -0.811  -4.988  -0.763  0.00  0.00    +0.056 A 
ATOM      7  S   UNL     1      -0.344  -6.666  -0.400  0.00  0.00    -0.081 S 
ATOM      8  C   UNL     1       0.922  -6.401   0.667  0.00  0.00    +0.084 A 
ATOM      9  C   UNL     1       1.014  -5.022   0.759  0.00  0.00    +0.073 A 
BRANCH   5  14
ATOM     10  C   UNL     1      -0.018   1.503   0.010  0.00  0.00    +0.044 C 
ATOM     11  C   UNL     1       0.002  -0.004   0.002  0.00  0.00    -0.050 A 
ATOM     12  C   UNL     1       0.006  -0.686  -1.201  0.00  0.00    +0.004 A 
ATOM     13  C   UNL     1       0.024  -2.066  -1.215  0.00  0.00    +0.009 A 
ATOM     14  C   UNL     1       0.040  -2.772  -0.013  0.00  0.00    -0.017 A 
ATOM     15  C   UNL     1       0.036  -2.079   1.196  0.00  0.00    +0.009 A 
ATOM     16  C   UNL     1       0.023  -0.699   1.198  0.00  0.00    +0.004 A 
ENDBRANCH   5  14
BRANCH   9  17
ATOM     17  C   UNL     1       2.018  -4.371   1.603  0.00  0.00    +0.244 C 
ATOM     18  O   UNL     1       1.762  -4.114   2.765  0.00  0.00    -0.270 OA
ATOM     19  N   UNL     1       3.226  -4.058   1.093  0.00  0.00    -0.325 N 
ATOM     20  H   UNL     1       3.430  -4.263   0.168  0.00  0.00    +0.145 HD
ATOM     21  H   UNL     1       3.891  -3.627   1.653  0.00  0.00    +0.145 HD
ENDBRANCH   9  17
ENDBRANCH   1   8
BRANCH   2  22
ATOM     22  C   UNL     1       2.331  -9.691   1.797  0.00  0.00    +0.107 C 
BRANCH  22  23
ATOM     23  C   UNL     1       1.872 -11.092   1.389  0.00  0.00    +0.086 C 
BRANCH  23  24
ATOM     24  S   UNL     1       2.896 -12.332   2.229  0.00  0.00    -0.085 S 
BRANCH  24  25
ATOM     25  C   UNL     1       2.252 -13.871   1.663  0.00  0.00    +0.196 A 
ATOM     26  N   UNL     1       1.258 -14.038   0.818  0.00  0.00    -0.122 NA
ATOM     27  N   UNL     1       1.046 -15.290   0.622  0.00  0.00    -0.129 NA
ATOM     28  C   UNL     1       1.898 -16.006   1.334  0.00  0.00    +0.162 A 
ATOM     29  N   UNL     1       2.695 -15.113   2.015  0.00  0.00    -0.270 N 
ATOM     30  C   UNL     1       3.702 -15.558   2.854  0.00  0.00    +0.058 A 
ATOM     31  C   UNL     1       4.505 -14.660   3.545  0.00  0.00    +0.027 A 
ATOM     32  C   UNL     1       5.502 -15.126   4.376  0.00  0.00    +0.002 A 
ATOM     33  C   UNL     1       5.713 -16.488   4.531  0.00  0.00    +0.001 A 
ATOM     34  C   UNL     1       4.929 -17.396   3.856  0.00  0.00    +0.010 A 
ATOM     35  C   UNL     1       3.914 -16.939   3.009  0.00  0.00    -0.001 A 
ATOM     36  C   UNL     1       3.062 -17.881   2.277  0.00  0.00    +0.013 A 
ATOM     37  C   UNL     1       2.086 -17.401   1.474  0.00  0.00    +0.049 A 
ENDBRANCH  24  25
ENDBRANCH  23  24
ENDBRANCH  22  23
ENDBRANCH   2  22
TORSDOF 7
