REMARK  Name = ZINC36659906
REMARK  7 active torsions:
REMARK  status: ('A' for Active; 'I' for Inactive)
REMARK    1  A    between atoms: C_1  and  C_2
REMARK    2  A    between atoms: N_11  and  C_15
REMARK    3  A    between atoms: C_15  and  C_16
REMARK    4  A    between atoms: N_18  and  C_19
REMARK    5  A    between atoms: C_19  and  C_20
REMARK    6  A    between atoms: C_20  and  C_22
REMARK    7  A    between atoms: C_20  and  N_28
REMARK                            x       y       z     vdW  Elec       q    Type
REMARK                         _______ _______ _______ _____ _____    ______ ____
ROOT
ATOM      1  C   UNL     1       3.407   2.880   2.378  0.00  0.00    +0.231 C 
ATOM      2  O   UNL     1       2.406   3.270   1.815  0.00  0.00    -0.274 OA
ATOM      3  N   UNL     1       4.446   3.719   2.563  0.00  0.00    -0.315 N 
ATOM      4  H   UNL     1       5.247   3.407   3.013  0.00  0.00    +0.149 HD
ENDROOT
BRANCH   1   5
ATOM      5  C   UNL     1       3.490   1.458   2.869  0.00  0.00    +0.213 C 
BRANCH   5  15
ATOM      6  C   UNL     1      -0.280   1.621   0.499  0.00  0.00    +0.010 C 
ATOM      7  C   UNL     1      -0.258   0.094   0.407  0.00  0.00    +0.018 C 
ATOM      8  C   UNL     1      -1.681  -0.447   0.563  0.00  0.00    +0.006 C 
ATOM      9  C   UNL     1      -1.655  -1.976   0.491  0.00  0.00    +0.000 C 
ATOM     10  C   UNL     1      -0.783  -2.527   1.621  0.00  0.00    +0.003 C 
ATOM     11  C   UNL     1       0.644  -1.993   1.469  0.00  0.00    +0.035 C 
ATOM     12  C   UNL     1       0.625  -0.469   1.515  0.00  0.00    +0.115 C 
ATOM     13  C   UNL     1       2.029   0.080   1.402  0.00  0.00    +0.247 C 
ATOM     14  O   UNL     1       2.798  -0.058   0.476  0.00  0.00    -0.273 OA
ATOM     15  N   UNL     1       2.244   0.757   2.549  0.00  0.00    -0.215 N 
ATOM     16  C   UNL     1       1.179   0.709   3.358  0.00  0.00    +0.310 C 
ATOM     17  O   UNL     1       1.133   1.244   4.448  0.00  0.00    -0.252 OA
ATOM     18  N   UNL     1       0.164   0.000   2.828  0.00  0.00    -0.285 N 
ATOM     19  H   UNL     1      -0.702  -0.167   3.234  0.00  0.00    +0.151 HD
ENDBRANCH   5  15
ENDBRANCH   1   5
BRANCH   3  20
ATOM     20  C   UNL     1       4.365   5.101   2.085  0.00  0.00    +0.093 C 
BRANCH  20  21
ATOM     21  C   UNL     1       5.621   5.863   2.513  0.00  0.00    -0.020 C 
BRANCH  21  22
ATOM     22  C   UNL     1       6.823   5.282   1.815  0.00  0.00    -0.059 A 
ATOM     23  C   UNL     1       7.102   5.637   0.508  0.00  0.00    +0.002 A 
ATOM     24  C   UNL     1       8.205   5.105  -0.133  0.00  0.00    +0.000 A 
ATOM     25  C   UNL     1       9.029   4.217   0.533  0.00  0.00    +0.000 A 
ATOM     26  C   UNL     1       8.752   3.863   1.840  0.00  0.00    +0.000 A 
ATOM     27  C   UNL     1       7.651   4.399   2.482  0.00  0.00    +0.002 A 
ENDBRANCH  21  22
BRANCH  21  28
ATOM     28  N   UNL     1       5.481   7.280   2.151  0.00  0.00    +0.385 N 
ATOM     29  C   UNL     1       4.344   7.887   2.889  0.00  0.00    -0.078 C 
ATOM     30  C   UNL     1       4.669   9.402   2.858  0.00  0.00    -0.020 C 
ATOM     31  C   UNL     1       6.207   9.428   3.020  0.00  0.00    -0.020 C 
ATOM     32  C   UNL     1       6.683   8.034   2.571  0.00  0.00    -0.078 C 
ATOM     33  H   UNL     1       5.342   7.373   1.156  0.00  0.00    -0.081 HD
ENDBRANCH  21  28
ENDBRANCH  20  21
ENDBRANCH   3  20
TORSDOF 6
