REMARK  Name = ZINC06416685
REMARK  3 active torsions:
REMARK  status: ('A' for Active; 'I' for Inactive)
REMARK    1  A    between atoms: C_1  and  C_2
REMARK    2  A    between atoms: C_11  and  O_24
REMARK    3  A    between atoms: C_13  and  C_16
REMARK                            x       y       z     vdW  Elec       q    Type
REMARK                         _______ _______ _______ _____ _____    ______ ____
ROOT
ATOM      1  C   UNL     1       0.975   8.761   3.602  0.00  0.00    +0.008 C 
ATOM      2  C   UNL     1       0.868   7.507   2.731  0.00  0.00    -0.009 C 
ATOM      3  C   UNL     1       2.189   6.735   2.778  0.00  0.00    +0.008 C 
ATOM      4  C   UNL     1       2.181   5.625   1.725  0.00  0.00    +0.037 C 
ATOM      5  C   UNL     1       0.920   4.787   1.905  0.00  0.00    -0.023 A 
ATOM      6  C   UNL     1      -0.137   5.266   2.602  0.00  0.00    -0.004 A 
ATOM      7  S   UNL     1      -1.343   3.967   2.550  0.00  0.00    -0.078 S 
ATOM      8  C   UNL     1      -0.462   2.822   1.634  0.00  0.00    +0.080 A 
ATOM      9  C   UNL     1       0.759   3.451   1.360  0.00  0.00    +0.068 A 
ATOM     10  C   UNL     1       1.754   2.686   0.565  0.00  0.00    +0.220 C 
ATOM     11  N   UNL     1       1.359   1.580  -0.002  0.00  0.00    -0.223 NA
ATOM     12  C   UNL     1      -0.013   1.086   0.008  0.00  0.00    +0.224 C 
ATOM     13  N   UNL     1      -0.749   1.551   1.198  0.00  0.00    -0.313 N 
ATOM     14  C   UNL     1      -0.251   6.602   3.266  0.00  0.00    +0.046 C 
ATOM     15  H   UNL     1      -1.481   0.889   1.685  0.00  0.00    +0.149 HD
ENDROOT
BRANCH  12  16
ATOM     16  C   UNL     1      -0.721   1.575  -1.229  0.00  0.00    -0.004 A 
ATOM     17  C   UNL     1      -0.004   1.816  -2.386  0.00  0.00    +0.009 A 
ATOM     18  C   UNL     1      -0.652   2.264  -3.521  0.00  0.00    +0.022 A 
ATOM     19  C   UNL     1      -2.020   2.472  -3.500  0.00  0.00    +0.059 A 
ATOM     20  C   UNL     1      -2.738   2.230  -2.342  0.00  0.00    +0.060 A 
ATOM     21  C   UNL     1      -2.088   1.776  -1.208  0.00  0.00    +0.028 A 
ATOM     22 CL   UNL     1      -4.455   2.490  -2.314  0.00  0.00    -0.082 Cl
ATOM     23 CL   UNL     1      -2.835   3.035  -4.926  0.00  0.00    -0.082 Cl
ENDBRANCH  12  16
BRANCH  10  24
ATOM     24  O   UNL     1       3.028   3.123   0.433  0.00  0.00    -0.492 OA
ATOM     25  H   UNL     1       3.750   2.542  -0.160  0.00  0.00    +0.294 HD
ENDBRANCH  10  24
TORSDOF 2
