REMARK  Name = ZINC10355815
REMARK  10 active torsions:
REMARK  status: ('A' for Active; 'I' for Inactive)
REMARK    1  A    between atoms: C_1  and  C_2
REMARK    2  A    between atoms: C_3  and  C_28
REMARK    3  A    between atoms: C_4  and  C_17
REMARK    4  A    between atoms: N_9  and  C_10
REMARK    5  A    between atoms: C_20  and  N_23
REMARK    6  A    between atoms: C_28  and  O_30
REMARK    7  A    between atoms: O_30  and  C_31
REMARK    8  A    between atoms: C_31  and  C_32
REMARK    9  A    between atoms: C_32  and  O_33
REMARK   10  A    between atoms: O_33  and  C_34
REMARK                            x       y       z     vdW  Elec       q    Type
REMARK                         _______ _______ _______ _____ _____    ______ ____
ROOT
ATOM      1  C   UNL     1      -5.936   4.412   2.012  0.00  0.00    +0.062 C 
ATOM      2  C   UNL     1      -4.811   3.860   1.176  0.00  0.00    +0.027 C 
ATOM      3  C   UNL     1      -3.591   4.437   1.240  0.00  0.00    +0.078 C 
ATOM      4  C   UNL     1      -2.487   3.850   0.383  0.00  0.00    +0.141 C 
ATOM      5  N   UNL     1      -2.838   2.691  -0.455  0.00  0.00    -0.315 N 
ATOM      6  C   UNL     1      -4.103   2.227  -0.411  0.00  0.00    +0.142 C 
ATOM      7  S   UNL     1      -4.525   0.881  -1.381  0.00  0.00    -0.018 S 
ATOM      8  N   UNL     1      -5.040   2.785   0.365  0.00  0.00    -0.255 N 
ATOM      9  H   UNL     1      -2.175   2.272  -1.026  0.00  0.00    +0.149 HD
ENDROOT
BRANCH   8  10
ATOM     10  C   UNL     1      -6.328   2.235   0.346  0.00  0.00    +0.040 A 
ATOM     11  C   UNL     1      -7.276   2.715  -0.548  0.00  0.00    +0.025 A 
ATOM     12  C   UNL     1      -8.544   2.167  -0.570  0.00  0.00    +0.022 A 
ATOM     13  C   UNL     1      -8.873   1.148   0.307  0.00  0.00    +0.041 A 
ATOM     14  C   UNL     1      -7.932   0.671   1.202  0.00  0.00    +0.022 A 
ATOM     15  C   UNL     1      -6.661   1.212   1.224  0.00  0.00    +0.025 A 
ATOM     16 CL   UNL     1     -10.469   0.465   0.282  0.00  0.00    -0.084 Cl
ENDBRANCH   8  10
BRANCH   4  17
ATOM     17  C   UNL     1      -1.360   3.439   1.294  0.00  0.00    -0.022 A 
ATOM     18  C   UNL     1      -1.431   2.244   1.985  0.00  0.00    +0.008 A 
ATOM     19  C   UNL     1      -0.401   1.867   2.825  0.00  0.00    +0.026 A 
ATOM     20  C   UNL     1       0.711   2.686   2.967  0.00  0.00    +0.047 A 
ATOM     21  C   UNL     1       0.782   3.883   2.268  0.00  0.00    +0.026 A 
ATOM     22  C   UNL     1      -0.253   4.256   1.434  0.00  0.00    +0.008 A 
BRANCH  20  23
ATOM     23  N   UNL     1       1.761   2.303   3.815  0.00  0.00    -0.306 N 
ATOM     24  C   UNL     1       2.916   3.003   4.048  0.00  0.00    +0.112 A 
ATOM     25  C   UNL     1       3.641   2.280   4.923  0.00  0.00    +0.130 A 
ATOM     26  N   UNL     1       2.955   1.165   5.213  0.00  0.00    -0.244 NA
ATOM     27  C   UNL     1       1.827   1.167   4.556  0.00  0.00    +0.204 A 
ENDBRANCH  20  23
ENDBRANCH   4  17
BRANCH   3  28
ATOM     28  C   UNL     1      -3.351   5.550   2.079  0.00  0.00    +0.339 C 
ATOM     29  O   UNL     1      -4.222   5.942   2.833  0.00  0.00    -0.245 OA
BRANCH  28  30
ATOM     30  O   UNL     1      -2.157   6.178   2.042  0.00  0.00    -0.459 OA
BRANCH  30  31
ATOM     31  C   UNL     1      -1.985   7.296   2.916  0.00  0.00    +0.260 C 
BRANCH  31  32
ATOM     32  C   UNL     1      -0.580   7.873   2.735  0.00  0.00    +0.200 C 
BRANCH  32  33
ATOM     33  O   UNL     1      -0.449   8.402   1.414  0.00  0.00    -0.380 OA
ATOM     34  C   UNL     1       0.834   8.969   1.139  0.00  0.00    +0.194 C 
ENDBRANCH  32  33
ENDBRANCH  31  32
ENDBRANCH  30  31
ENDBRANCH  28  30
ENDBRANCH   3  28
TORSDOF 8
