REMARK  Name = ZINC39532964
REMARK  9 active torsions:
REMARK  status: ('A' for Active; 'I' for Inactive)
REMARK    1  A    between atoms: C_1  and  C_2
REMARK    2  A    between atoms: C_2  and  C_3
REMARK    3  A    between atoms: C_3  and  C_4
REMARK    4  A    between atoms: C_7  and  C_10
REMARK    5  A    between atoms: C_10  and  C_12
REMARK    6  A    between atoms: C_10  and  N_21
REMARK    7  A    between atoms: C_12  and  N_13
REMARK    8  A    between atoms: N_13  and  C_14
REMARK    9  A    between atoms: C_19  and  O_20
REMARK                            x       y       z     vdW  Elec       q    Type
REMARK                         _______ _______ _______ _____ _____    ______ ____
ROOT
ATOM      1  C   UNL     1       0.830  -6.220   1.259  0.00  0.00    +0.104 C 
ENDROOT
BRANCH   1   2
ATOM      2  N   UNL     1       2.251  -6.554   1.420  0.00  0.00    -0.290 NA
ATOM      3  C   UNL     1       2.484  -7.987   1.191  0.00  0.00    +0.100 C 
ATOM      4  C   UNL     1       3.983  -8.280   1.289  0.00  0.00    +0.097 C 
ATOM      5  N   UNL     1       4.473  -7.875   2.614  0.00  0.00    -0.299 NA
ATOM      6  C   UNL     1       4.240  -6.442   2.843  0.00  0.00    +0.161 C 
ATOM      7  C   UNL     1       2.741  -6.149   2.745  0.00  0.00    +0.120 C 
ATOM      8 CL   UNL     1       4.835  -5.991   4.484  0.00  0.00    -0.104 Cl
ATOM      9  H   UNL     1       4.049  -8.431   3.341  0.00  0.00    +0.123 HD
ENDBRANCH   1   2
BRANCH   1  13
ATOM     10  C   UNL     1       0.292  -2.013   1.773  0.00  0.00    -0.047 A 
ATOM     11  C   UNL     1      -0.632  -2.897   2.298  0.00  0.00    +0.004 A 
ATOM     12  C   UNL     1      -0.458  -4.258   2.131  0.00  0.00    +0.005 A 
ATOM     13  C   UNL     1       0.640  -4.736   1.440  0.00  0.00    -0.029 A 
ATOM     14  C   UNL     1       1.563  -3.851   0.914  0.00  0.00    +0.005 A 
ATOM     15  C   UNL     1       1.387  -2.490   1.077  0.00  0.00    +0.004 A 
BRANCH  10  16
ATOM     16  C   UNL     1       0.102  -0.529   1.955  0.00  0.00    +0.035 C 
BRANCH  16  18
ATOM     17  C   UNL     1      -0.911   1.533   0.974  0.00  0.00    +0.004 C 
ATOM     18  C   UNL     1      -0.719   0.026   0.789  0.00  0.00    +0.001 C 
ENDBRANCH  16  18
ENDBRANCH  10  16
ENDBRANCH   1  13
BRANCH   1  19
ATOM     19  C   UNL     1       0.365  -6.627  -0.141  0.00  0.00    +0.125 C 
BRANCH  19  20
ATOM     20  N   UNL     1      -1.070  -6.365  -0.274  0.00  0.00    -0.339 N 
ATOM     21  H   UNL     1      -1.556  -5.942   0.452  0.00  0.00    +0.146 HD
BRANCH  20  22
ATOM     22  C   UNL     1      -1.741  -6.725  -1.449  0.00  0.00    +0.069 A 
ATOM     23  C   UNL     1      -1.050  -7.335  -2.485  0.00  0.00    +0.026 A 
ATOM     24  C   UNL     1      -1.714  -7.690  -3.644  0.00  0.00    +0.002 A 
ATOM     25  C   UNL     1      -3.068  -7.438  -3.773  0.00  0.00    +0.004 A 
ATOM     26  C   UNL     1      -3.763  -6.831  -2.744  0.00  0.00    +0.047 A 
ATOM     27  C   UNL     1      -3.106  -6.477  -1.578  0.00  0.00    +0.138 A 
BRANCH  27  28
ATOM     28  O   UNL     1      -3.790  -5.883  -0.562  0.00  0.00    -0.505 OA
ATOM     29  H   UNL     1      -3.811  -4.918  -0.614  0.00  0.00    +0.292 HD
ENDBRANCH  27  28
ENDBRANCH  20  22
ENDBRANCH  19  20
ENDBRANCH   1  19
TORSDOF 8
