REMARK  Name = ZINC19820018
REMARK  4 active torsions:
REMARK  status: ('A' for Active; 'I' for Inactive)
REMARK    1  A    between atoms: C_1  and  N_2
REMARK    2  A    between atoms: N_2  and  C_3
REMARK    3  A    between atoms: N_2  and  C_4
REMARK    4  A    between atoms: C_7  and  C_10
REMARK                            x       y       z     vdW  Elec       q    Type
REMARK                         _______ _______ _______ _____ _____    ______ ____
ROOT
ATOM      1  C   UNL     1      -4.870  -2.906   0.033  0.00  0.00    +0.092 C 
ATOM      2  C   UNL     1      -5.653  -2.563  -1.200  0.00  0.00    +0.069 A 
ATOM      3  C   UNL     1      -6.707  -1.705  -1.142  0.00  0.00    +0.112 A 
ATOM      4  N   UNL     1      -7.394  -1.409  -2.290  0.00  0.00    -0.315 N 
ATOM      5  H   UNL     1      -8.146  -0.797  -2.260  0.00  0.00    +0.170 HD
ATOM      6  C   UNL     1      -7.023  -1.972  -3.472  0.00  0.00    +0.200 A 
ATOM      7  N   UNL     1      -6.007  -2.806  -3.541  0.00  0.00    -0.177 NA
ATOM      8  C   UNL     1      -5.303  -3.128  -2.444  0.00  0.00    +0.280 A 
ATOM      9  O   UNL     1      -4.363  -3.906  -2.524  0.00  0.00    -0.265 OA
ATOM     10  N   UNL     1      -7.719  -1.666  -4.611  0.00  0.00    -0.301 N 
ATOM     11  C   UNL     1      -7.272  -2.164  -5.919  0.00  0.00    +0.108 C 
ATOM     12  C   UNL     1      -8.438  -2.892  -6.595  0.00  0.00    +0.019 C 
ATOM     13  C   UNL     1      -9.649  -1.957  -6.659  0.00  0.00    +0.003 C 
ATOM     14  C   UNL     1     -10.075  -1.574  -5.240  0.00  0.00    +0.019 C 
ATOM     15  C   UNL     1      -8.930  -0.837  -4.548  0.00  0.00    +0.108 C 
ATOM     16  N   UNL     1      -7.079  -1.145   0.057  0.00  0.00    -0.304 N 
ATOM     17  C   UNL     1      -6.683  -1.705   1.241  0.00  0.00    +0.017 C 
ATOM     18  C   UNL     1      -5.634  -2.552   1.283  0.00  0.00    +0.024 C 
ATOM     19  C   UNL     1      -5.218  -3.127   2.497  0.00  0.00    +0.162 C 
ATOM     20  O   UNL     1      -4.279  -3.899   2.500  0.00  0.00    -0.292 OA
ATOM     21  C   UNL     1      -5.914  -2.807   3.791  0.00  0.00    +0.080 C 
ATOM     22  C   UNL     1      -6.516  -1.400   3.698  0.00  0.00    +0.014 C 
ATOM     23  C   UNL     1      -7.450  -1.355   2.492  0.00  0.00    +0.051 C 
ATOM     24  H   UNL     1      -7.628  -0.345   0.064  0.00  0.00    +0.153 HD
ENDROOT
BRANCH   1  28
ATOM     25  C   UNL     1      -1.179  -0.751  -0.011  0.00  0.00    +0.029 A 
ATOM     26  C   UNL     1      -1.174  -2.141  -0.005  0.00  0.00    +0.023 A 
ATOM     27  C   UNL     1      -2.368  -2.834   0.009  0.00  0.00    +0.006 A 
ATOM     28  C   UNL     1      -3.568  -2.146   0.018  0.00  0.00    -0.035 A 
ATOM     29  C   UNL     1      -3.577  -0.764   0.012  0.00  0.00    +0.006 A 
ATOM     30  C   UNL     1      -2.386  -0.064   0.004  0.00  0.00    +0.023 A 
BRANCH  25  32
ATOM     31  C   UNL     1       0.020   1.418  -0.025  0.00  0.00    +0.129 C 
ATOM     32  N   UNL     1       0.027  -0.047  -0.025  0.00  0.00    -0.336 N 
ATOM     33  C   UNL     1       1.300  -0.774  -0.040  0.00  0.00    +0.129 C 
ENDBRANCH  25  32
ENDBRANCH   1  28
TORSDOF 2
