REMARK  Name = ZINC22413025
REMARK  10 active torsions:
REMARK  status: ('A' for Active; 'I' for Inactive)
REMARK    1  A    between atoms: C_1  and  C_2
REMARK    2  A    between atoms: C_2  and  C_4
REMARK    3  A    between atoms: C_2  and  O_21
REMARK    4  A    between atoms: N_6  and  N_7
REMARK    5  A    between atoms: C_8  and  C_10
REMARK    6  A    between atoms: C_12  and  O_19
REMARK    7  A    between atoms: C_15  and  O_16
REMARK    8  A    between atoms: O_16  and  C_17
REMARK    9  A    between atoms: O_19  and  C_20
REMARK   10  A    between atoms: O_21  and  C_22
REMARK                            x       y       z     vdW  Elec       q    Type
REMARK                         _______ _______ _______ _____ _____    ______ ____
ROOT
ATOM      1  N   UNL     1      -2.582   2.639   2.675  0.00  0.00    -0.230 N 
ATOM      2  C   UNL     1      -3.916   2.581   2.858  0.00  0.00    +0.264 C 
ATOM      3  O   UNL     1      -4.632   2.134   1.983  0.00  0.00    -0.269 OA
ATOM      4  H   UNL     1      -1.935   3.043   3.467  0.00  0.00    +0.173 HD
ENDROOT
BRANCH   2   5
ATOM      5  C   UNL     1      -4.509   3.061   4.122  0.00  0.00    +0.084 A 
ATOM      6  C   UNL     1      -3.690   3.576   5.130  0.00  0.00    +0.062 A 
ATOM      7  C   UNL     1      -4.251   4.024   6.311  0.00  0.00    +0.122 A 
ATOM      8  C   UNL     1      -5.627   3.964   6.498  0.00  0.00    +0.064 A 
ATOM      9  C   UNL     1      -6.444   3.457   5.507  0.00  0.00    +0.064 A 
ATOM     10  C   UNL     1      -5.895   3.009   4.314  0.00  0.00    +0.146 A 
ATOM     11 BR   UNL     1      -8.314   3.381   5.773  0.00  0.00    -0.046 Br
BRANCH  10  12
ATOM     12  O   UNL     1      -6.699   2.515   3.338  0.00  0.00    -0.493 OA
ATOM     13  C   UNL     1      -6.970   1.112   3.368  0.00  0.00    +0.277 C 
ENDBRANCH  10  12
BRANCH   7  14
ATOM     14  O   UNL     1      -3.455   4.525   7.293  0.00  0.00    -0.495 OA
ATOM     15  C   UNL     1      -4.100   4.971   8.487  0.00  0.00    +0.277 C 
ENDBRANCH   7  14
ENDBRANCH   2   5
BRANCH   1  18
ATOM     16  C   UNL     1      -0.686   2.240   1.292  0.00  0.00    +0.270 C 
ATOM     17  O   UNL     1       0.028   2.686   2.165  0.00  0.00    -0.270 OA
ATOM     18  N   UNL     1      -2.020   2.183   1.475  0.00  0.00    -0.231 N 
ATOM     19  H   UNL     1      -2.667   1.778   0.683  0.00  0.00    +0.173 HD
BRANCH  16  21
ATOM     20  C   UNL     1      -0.310   0.243  -0.129  0.00  0.00    +0.062 C 
ATOM     21  C   UNL     1      -0.081   1.750   0.002  0.00  0.00    +0.257 C 
BRANCH  21  22
ATOM     22  O   UNL     1       1.322   2.020   0.000  0.00  0.00    -0.477 OA
BRANCH  22  23
ATOM     23  C   UNL     1       1.926   2.142  -1.212  0.00  0.00    +0.157 A 
ATOM     24  C   UNL     1       1.210   1.891  -2.373  0.00  0.00    +0.048 A 
ATOM     25  C   UNL     1       1.826   2.015  -3.603  0.00  0.00    +0.004 A 
ATOM     26  C   UNL     1       3.155   2.389  -3.679  0.00  0.00    +0.003 A 
ATOM     27  C   UNL     1       3.872   2.640  -2.524  0.00  0.00    +0.042 A 
ATOM     28  C   UNL     1       3.260   2.522  -1.290  0.00  0.00    +0.165 A 
ATOM     29  F   UNL     1       3.959   2.772  -0.161  0.00  0.00    -0.202 F 
ENDBRANCH  22  23
ENDBRANCH  21  22
ENDBRANCH  16  21
ENDBRANCH   1  18
TORSDOF 7
