REMARK  Name = ZINC39361688
REMARK  7 active torsions:
REMARK  status: ('A' for Active; 'I' for Inactive)
REMARK    1  A    between atoms: C_1  and  C_2
REMARK    2  A    between atoms: C_6  and  N_8
REMARK    3  A    between atoms: C_9  and  C_28
REMARK    4  A    between atoms: C_13  and  S_14
REMARK    5  A    between atoms: S_14  and  C_15
REMARK    6  A    between atoms: C_15  and  C_16
REMARK    7  A    between atoms: C_28  and  C_29
REMARK                            x       y       z     vdW  Elec       q    Type
REMARK                         _______ _______ _______ _____ _____    ______ ____
ROOT
ATOM      1  N   UNL     1       0.123  -2.793   2.380  0.00  0.00    -0.258 N 
ATOM      2  C   UNL     1       0.084  -4.257   2.538  0.00  0.00    +0.187 C 
ATOM      3  N   UNL     1       0.153  -4.457   3.996  0.00  0.00    -0.246 N 
ATOM      4  N   UNL     1       0.225  -3.178   4.562  0.00  0.00    -0.162 NA
ATOM      5  C   UNL     1       0.214  -2.259   3.657  0.00  0.00    +0.180 C 
ATOM      6  H   UNL     1       0.150  -5.303   4.469  0.00  0.00    +0.170 HD
ENDROOT
BRANCH   1  12
ATOM      7  C   UNL     1       2.142   0.507  -0.652  0.00  0.00    +0.044 C 
ATOM      8  C   UNL     1       1.049  -0.475  -0.318  0.00  0.00    -0.049 A 
ATOM      9  C   UNL     1       0.004  -0.672  -1.203  0.00  0.00    +0.003 A 
ATOM     10  C   UNL     1      -1.001  -1.573  -0.900  0.00  0.00    +0.002 A 
ATOM     11  C   UNL     1      -0.965  -2.277   0.287  0.00  0.00    +0.023 A 
ATOM     12  C   UNL     1       0.084  -2.082   1.177  0.00  0.00    +0.038 A 
ATOM     13  C   UNL     1       1.095  -1.181   0.868  0.00  0.00    +0.027 A 
ENDBRANCH   1  12
BRANCH   5  14
ATOM     14  S   UNL     1       0.298  -0.533   4.001  0.00  0.00    -0.079 S 
BRANCH  14  15
ATOM     15  C   UNL     1       0.401  -0.451   5.811  0.00  0.00    +0.173 C 
BRANCH  15  16
ATOM     16  C   UNL     1       0.479   0.990   6.244  0.00  0.00    +0.230 C 
ATOM     17  O   UNL     1       0.376   1.877   5.424  0.00  0.00    -0.274 OA
ATOM     18  N   UNL     1       0.664   1.293   7.545  0.00  0.00    -0.270 N 
ATOM     19  C   UNL     1       0.874   0.230   8.537  0.00  0.00    +0.114 C 
ATOM     20  C   UNL     1       0.006   0.554   9.760  0.00  0.00    +0.024 C 
ATOM     21  C   UNL     1       0.487   1.869  10.373  0.00  0.00    +0.038 C 
ATOM     22  C   UNL     1       0.574   2.942   9.320  0.00  0.00    -0.026 A 
ATOM     23  C   UNL     1       0.666   2.628   7.972  0.00  0.00    +0.039 A 
ATOM     24  C   UNL     1       0.755   3.642   7.025  0.00  0.00    +0.024 A 
ATOM     25  C   UNL     1       0.755   4.964   7.425  0.00  0.00    +0.002 A 
ATOM     26  C   UNL     1       0.666   5.277   8.769  0.00  0.00    +0.000 A 
ATOM     27  C   UNL     1       0.567   4.269   9.714  0.00  0.00    +0.005 A 
ENDBRANCH  15  16
ENDBRANCH  14  15
ENDBRANCH   5  14
BRANCH   2  28
ATOM     28  C   UNL     1       1.284  -4.904   1.846  0.00  0.00    +0.097 C 
BRANCH  28  29
ATOM     29  C   UNL     1       1.156  -6.404   1.917  0.00  0.00    +0.029 A 
ATOM     30  N   UNL     1       1.591  -7.080   3.025  0.00  0.00    -0.311 N 
ATOM     31  C   UNL     1       1.481  -8.419   3.099  0.00  0.00    +0.327 A 
ATOM     32  O   UNL     1       1.874  -8.999   4.092  0.00  0.00    -0.247 OA
ATOM     33  N   UNL     1       0.941  -9.125   2.088  0.00  0.00    -0.275 N 
ATOM     34  C   UNL     1       0.501  -8.496   0.979  0.00  0.00    +0.254 A 
ATOM     35  O   UNL     1       0.012  -9.135   0.064  0.00  0.00    -0.268 OA
ATOM     36  C   UNL     1       0.607  -7.088   0.891  0.00  0.00    +0.091 A 
ATOM     37  H   UNL     1       0.869 -10.090   2.157  0.00  0.00    +0.173 HD
ATOM     38  H   UNL     1       1.983  -6.589   3.764  0.00  0.00    +0.170 HD
ENDBRANCH  28  29
ENDBRANCH   2  28
TORSDOF 6
