REMARK  Name = ZINC21864189
REMARK  10 active torsions:
REMARK  status: ('A' for Active; 'I' for Inactive)
REMARK    1  A    between atoms: C_1  and  C_2
REMARK    2  A    between atoms: C_2  and  C_28
REMARK    3  A    between atoms: C_5  and  C_23
REMARK    4  A    between atoms: N_11  and  C_12
REMARK    5  A    between atoms: C_12  and  C_13
REMARK    6  A    between atoms: C_13  and  C_14
REMARK    7  A    between atoms: C_14  and  N_15
REMARK    8  A    between atoms: N_15  and  C_16
REMARK    9  A    between atoms: N_15  and  C_17
REMARK   10  A    between atoms: N_30  and  C_31
REMARK                            x       y       z     vdW  Elec       q    Type
REMARK                         _______ _______ _______ _____ _____    ______ ____
ROOT
ATOM      1  C   UNL     1      -3.181   0.191   3.589  0.00  0.00    +0.043 C 
ATOM      2  C   UNL     1      -2.507   1.378   2.897  0.00  0.00    +0.128 C 
ATOM      3  C   UNL     1      -3.584   2.368   2.454  0.00  0.00    +0.157 C 
ATOM      4  N   UNL     1      -2.951   3.629   2.066  0.00  0.00    -0.331 N 
ATOM      5  C   UNL     1      -3.349   4.566   1.170  0.00  0.00    +0.085 A 
ATOM      6  C   UNL     1      -2.423   5.598   1.181  0.00  0.00    +0.032 A 
ATOM      7  C   UNL     1      -1.431   5.269   2.107  0.00  0.00    +0.033 A 
ATOM      8  C   UNL     1      -1.758   4.054   2.640  0.00  0.00    +0.105 A 
ATOM      9  C   UNL     1      -1.070   3.230   3.640  0.00  0.00    +0.264 C 
ATOM     10  O   UNL     1      -0.124   3.654   4.279  0.00  0.00    -0.268 OA
ATOM     11  N   UNL     1      -1.544   1.974   3.815  0.00  0.00    -0.281 N 
ENDROOT
BRANCH   5  12
ATOM     12  C   UNL     1      -4.554   4.499   0.331  0.00  0.00    +0.151 A 
ATOM     13  C   UNL     1      -4.907   5.392  -0.638  0.00  0.00    +0.051 A 
ATOM     14  C   UNL     1      -6.123   4.941  -1.181  0.00  0.00    +0.042 A 
ATOM     15  C   UNL     1      -6.453   3.808  -0.527  0.00  0.00    +0.196 A 
ATOM     16  O   UNL     1      -5.501   3.541   0.381  0.00  0.00    -0.461 OA
ENDBRANCH   5  12
BRANCH   2  17
ATOM     17  C   UNL     1      -1.774   0.879   1.679  0.00  0.00    +0.238 C 
ATOM     18  O   UNL     1      -2.129  -0.146   1.135  0.00  0.00    -0.273 OA
ATOM     19  N   UNL     1      -0.725   1.571   1.192  0.00  0.00    -0.311 N 
ATOM     20  H   UNL     1      -0.404   2.501   1.685  0.00  0.00    +0.149 HD
BRANCH  19  21
ATOM     21  C   UNL     1      -0.013   1.086   0.008  0.00  0.00    +0.073 C 
ATOM     22  C   UNL     1      -0.694   1.612  -1.272  0.00  0.00    +0.022 C 
ATOM     23  C   UNL     1       0.116   2.881  -1.639  0.00  0.00    +0.002 C 
ATOM     24  C   UNL     1       1.568   2.472  -1.289  0.00  0.00    +0.002 C 
ATOM     25  C   UNL     1       1.426   1.633  -0.003  0.00  0.00    +0.022 C 
ENDBRANCH  19  21
ENDBRANCH   2  17
BRANCH  11  26
ATOM     26  C   UNL     1      -1.074   1.190   4.960  0.00  0.00    +0.107 C 
BRANCH  26  27
ATOM     27  C   UNL     1       0.172   0.399   4.560  0.00  0.00    +0.000 C 
BRANCH  27  28
ATOM     28  C   UNL     1       0.662  -0.420   5.756  0.00  0.00    -0.077 C 
BRANCH  28  29
ATOM     29  N   UNL     1       1.859  -1.180   5.372  0.00  0.00    +0.380 N 
ATOM     30  C   UNL     1       2.983  -0.281   5.079  0.00  0.00    -0.096 C 
ATOM     31  H   UNL     1       1.624  -1.738   4.453  0.00  0.00    -0.082 HD
BRANCH  29  32
ATOM     32  C   UNL     1       2.220  -2.154   6.410  0.00  0.00    -0.069 C 
ATOM     33  C   UNL     1       2.627  -1.412   7.685  0.00  0.00    -0.015 C 
ATOM     34  C   UNL     1       3.003  -2.426   8.767  0.00  0.00    -0.002 C 
ATOM     35  C   UNL     1       4.174  -3.282   8.280  0.00  0.00    -0.000 C 
ATOM     36  C   UNL     1       3.768  -4.023   7.005  0.00  0.00    -0.002 C 
ATOM     37  C   UNL     1       3.391  -3.009   5.923  0.00  0.00    -0.015 C 
ENDBRANCH  29  32
ENDBRANCH  28  29
ENDBRANCH  27  28
ENDBRANCH  26  27
ENDBRANCH  11  26
TORSDOF 8
