REMARK  Name = ZINC09521167
REMARK  8 active torsions:
REMARK  status: ('A' for Active; 'I' for Inactive)
REMARK    1  A    between atoms: C_1  and  C_2
REMARK    2  A    between atoms: C_2  and  C_3
REMARK    3  A    between atoms: C_2  and  C_4
REMARK    4  A    between atoms: C_2  and  N_5
REMARK    5  A    between atoms: C_10  and  O_23
REMARK    6  A    between atoms: C_12  and  S_14
REMARK    7  A    between atoms: S_14  and  C_15
REMARK    8  A    between atoms: C_15  and  C_16
REMARK                            x       y       z     vdW  Elec       q    Type
REMARK                         _______ _______ _______ _____ _____    ______ ____
ROOT
ATOM      1  N   UNL     1      -6.168   4.808   3.169  0.00  0.00    -0.241 N 
ATOM      2  C   UNL     1      -5.232   4.287   2.327  0.00  0.00    +0.167 A 
ATOM      3  C   UNL     1      -5.683   4.543   1.016  0.00  0.00    +0.100 A 
ATOM      4  C   UNL     1      -6.912   5.229   1.130  0.00  0.00    +0.149 A 
ATOM      5  N   UNL     1      -7.186   5.379   2.394  0.00  0.00    -0.176 NA
ATOM      6  C   UNL     1      -4.892   4.104  -0.062  0.00  0.00    +0.227 A 
ATOM      7  N   UNL     1      -3.759   3.470   0.201  0.00  0.00    -0.187 NA
ATOM      8  C   UNL     1      -3.369   3.249   1.452  0.00  0.00    +0.194 A 
ATOM      9  N   UNL     1      -4.082   3.638   2.496  0.00  0.00    -0.202 NA
ENDROOT
BRANCH   1  11
ATOM     10  C   UNL     1      -4.864   5.505   5.116  0.00  0.00    +0.036 C 
ATOM     11  C   UNL     1      -6.119   4.777   4.633  0.00  0.00    +0.058 C 
ATOM     12  C   UNL     1      -7.361   5.469   5.200  0.00  0.00    +0.036 C 
ATOM     13  C   UNL     1      -6.082   3.324   5.111  0.00  0.00    +0.036 C 
ENDBRANCH   1  11
BRANCH   6  14
ATOM     14  O   UNL     1      -5.281   4.325  -1.339  0.00  0.00    -0.492 OA
ATOM     15  H   UNL     1      -5.825   3.618  -1.712  0.00  0.00    +0.294 HD
ENDBRANCH   6  14
BRANCH   8  16
ATOM     16  S   UNL     1      -1.851   2.399   1.730  0.00  0.00    -0.081 S 
BRANCH  16  17
ATOM     17  C   UNL     1      -1.332   2.114   0.020  0.00  0.00    +0.112 C 
BRANCH  17  18
ATOM     18  C   UNL     1      -0.017   1.378   0.010  0.00  0.00    -0.037 A 
ATOM     19  C   UNL     1       1.171   2.086   0.002  0.00  0.00    +0.005 A 
ATOM     20  C   UNL     1       2.377   1.412  -0.013  0.00  0.00    +0.015 A 
ATOM     21  C   UNL     1       2.397   0.029  -0.021  0.00  0.00    +0.018 A 
ATOM     22  C   UNL     1       1.208  -0.679  -0.013  0.00  0.00    +0.015 A 
ATOM     23  C   UNL     1       0.002  -0.004   0.002  0.00  0.00    +0.005 A 
ATOM     24 BR   UNL     1       4.047  -0.894  -0.041  0.00  0.00    -0.050 Br
ENDBRANCH  17  18
ENDBRANCH  16  17
ENDBRANCH   8  16
TORSDOF 5
