REMARK  Name = ZINC57804475
REMARK  6 active torsions:
REMARK  status: ('A' for Active; 'I' for Inactive)
REMARK    1  A    between atoms: C_1  and  C_2
REMARK    2  A    between atoms: C_5  and  C_8
REMARK    3  A    between atoms: N_16  and  C_17
REMARK    4  A    between atoms: C_17  and  C_18
REMARK    5  A    between atoms: C_18  and  C_19
REMARK    6  A    between atoms: C_19  and  N_20
REMARK                            x       y       z     vdW  Elec       q    Type
REMARK                         _______ _______ _______ _____ _____    ______ ____
ROOT
ATOM      1  C   UNL     1       0.051  -4.252  -0.018  0.00  0.00    +0.142 A 
ATOM      2  N   UNL     1      -0.302  -5.005  -1.030  0.00  0.00    -0.227 NA
ATOM      3  C   UNL     1      -0.149  -6.311  -0.703  0.00  0.00    +0.093 A 
ATOM      4  C   UNL     1      -0.374  -7.507  -1.394  0.00  0.00    +0.079 A 
ATOM      5  C   UNL     1      -0.117  -8.716  -0.781  0.00  0.00    +0.164 A 
ATOM      6  C   UNL     1       0.368  -8.753   0.528  0.00  0.00    +0.164 A 
ATOM      7  C   UNL     1       0.592  -7.577   1.221  0.00  0.00    +0.077 A 
ATOM      8  C   UNL     1       0.337  -6.355   0.616  0.00  0.00    +0.073 A 
ATOM      9  N   UNL     1       0.460  -5.040   1.025  0.00  0.00    -0.324 N 
ATOM     10  O   UNL     1       0.631  -9.942   1.137  0.00  0.00    -0.485 OA
ATOM     11  C   UNL     1       0.046 -11.110   0.552  0.00  0.00    +0.270 C 
ATOM     12  C   UNL     1       0.276 -11.055  -0.964  0.00  0.00    +0.270 C 
ATOM     13  O   UNL     1      -0.346  -9.869  -1.470  0.00  0.00    -0.485 OA
ENDROOT
BRANCH   1  18
ATOM     14  C   UNL     1      -0.075   1.502   0.032  0.00  0.00    +0.044 C 
ATOM     15  C   UNL     1      -0.042  -0.005   0.019  0.00  0.00    -0.050 A 
ATOM     16  C   UNL     1      -0.045  -0.704   1.213  0.00  0.00    +0.004 A 
ATOM     17  C   UNL     1      -0.016  -2.084   1.208  0.00  0.00    +0.012 A 
ATOM     18  C   UNL     1       0.018  -2.773  -0.005  0.00  0.00    +0.017 A 
ATOM     19  C   UNL     1       0.022  -2.062  -1.205  0.00  0.00    +0.012 A 
ATOM     20  C   UNL     1      -0.014  -0.683  -1.187  0.00  0.00    +0.004 A 
ENDBRANCH   1  18
BRANCH   9  21
ATOM     21  C   UNL     1       0.936  -4.576   2.331  0.00  0.00    +0.122 C 
BRANCH  21  22
ATOM     22  C   UNL     1      -0.231  -4.555   3.321  0.00  0.00    +0.002 C 
BRANCH  22  23
ATOM     23  C   UNL     1       0.266  -4.071   4.684  0.00  0.00    -0.085 C 
BRANCH  23  24
ATOM     24  N   UNL     1      -0.854  -4.051   5.635  0.00  0.00    +0.378 N 
ATOM     25  H   UNL     1      -1.571  -3.427   5.297  0.00  0.00    -0.090 HD
ATOM     26  H   UNL     1      -1.234  -4.981   5.726  0.00  0.00    -0.090 HD
ATOM     27  H   UNL     1      -0.526  -3.732   6.534  0.00  0.00    -0.090 HD
ENDBRANCH  23  24
ENDBRANCH  22  23
ENDBRANCH  21  22
ENDBRANCH   9  21
TORSDOF 5
