REMARK  Name = ZINC39855976
REMARK  5 active torsions:
REMARK  status: ('A' for Active; 'I' for Inactive)
REMARK    1  A    between atoms: C_1  and  C_2
REMARK    2  A    between atoms: C_6  and  C_7
REMARK    3  A    between atoms: C_15  and  C_23
REMARK    4  A    between atoms: C_15  and  C_24
REMARK    5  A    between atoms: N_18  and  N_19
REMARK                            x       y       z     vdW  Elec       q    Type
REMARK                         _______ _______ _______ _____ _____    ______ ____
ROOT
ATOM      1  C   UNL     1      -0.018   1.503   0.010  0.00  0.00    +0.048 C 
ATOM      2  C   UNL     1       0.002  -0.004   0.002  0.00  0.00    +0.009 A 
ATOM      3  C   UNL     1       0.009  -0.838  -1.123  0.00  0.00    +0.043 A 
ATOM      4  C   UNL     1       0.027  -2.137  -0.673  0.00  0.00    +0.116 A 
ATOM      5  O   UNL     1       0.035  -2.112   0.658  0.00  0.00    -0.454 OA
ATOM      6  C   UNL     1       0.024  -0.830   1.091  0.00  0.00    +0.193 A 
ATOM      7  C   UNL     1       0.034  -3.326  -1.600  0.00  0.00    +0.081 C 
ATOM      8  C   UNL     1      -0.492  -2.902  -2.974  0.00  0.00    -0.023 C 
ATOM      9  C   UNL     1       0.279  -1.685  -3.495  0.00  0.00    +0.064 C 
ATOM     10  C   UNL     1       0.000  -0.512  -2.566  0.00  0.00    +0.073 C 
ATOM     11  N   UNL     1      -0.228   0.686  -3.007  0.00  0.00    -0.175 NA
ATOM     12  C   UNL     1      -1.976  -2.549  -2.860  0.00  0.00    +0.011 C 
ATOM     13  C   UNL     1      -0.325  -4.063  -3.957  0.00  0.00    +0.011 C 
ENDROOT
BRANCH  11  14
ATOM     14  N   UNL     1      -0.224   0.938  -4.386  0.00  0.00    -0.248 N 
ATOM     15  C   UNL     1      -0.465   2.202  -4.852  0.00  0.00    +0.187 C 
ATOM     16  N   UNL     1      -0.460   2.442  -6.163  0.00  0.00    -0.370 N 
ATOM     17  N   UNL     1      -0.704   3.194  -3.994  0.00  0.00    -0.370 N 
ATOM     18  H   UNL     1      -0.050   0.216  -5.010  0.00  0.00    +0.192 HD
ATOM     19  H   UNL     1      -0.631   3.338  -6.493  0.00  0.00    +0.159 HD
ATOM     20  H   UNL     1      -0.707   3.020  -3.040  0.00  0.00    +0.159 HD
ATOM     21  H   UNL     1      -0.874   4.090  -4.324  0.00  0.00    +0.159 HD
ATOM     22  H   UNL     1      -0.286   1.720  -6.787  0.00  0.00    +0.159 HD
ENDBRANCH  11  14
BRANCH   6  23
ATOM     23  C   UNL     1       0.032  -0.400   2.494  0.00  0.00    +0.282 C 
ATOM     24  O   UNL     1       0.018   0.786   2.766  0.00  0.00    -0.267 OA
ATOM     25  N   UNL     1       0.054  -1.317   3.480  0.00  0.00    -0.295 N 
ATOM     26  C   UNL     1       0.079  -2.776   3.294  0.00  0.00    +0.108 C 
ATOM     27  C   UNL     1       0.072  -3.417   4.697  0.00  0.00    +0.020 C 
ATOM     28  C   UNL     1      -0.527  -2.297   5.588  0.00  0.00    +0.020 C 
ATOM     29  C   UNL     1       0.064  -1.025   4.925  0.00  0.00    +0.108 C 
ENDBRANCH   6  23
TORSDOF 2
