REMARK  Name = ZINC17986770
REMARK  6 active torsions:
REMARK  status: ('A' for Active; 'I' for Inactive)
REMARK    1  A    between atoms: C_1  and  C_2
REMARK    2  A    between atoms: N_13  and  C_16
REMARK    3  A    between atoms: C_16  and  N_17
REMARK    4  A    between atoms: N_17  and  C_18
REMARK    5  A    between atoms: C_21  and  O_24
REMARK    6  A    between atoms: O_24  and  C_25
REMARK                            x       y       z     vdW  Elec       q    Type
REMARK                         _______ _______ _______ _____ _____    ______ ____
ROOT
ATOM      1  N   UNL     1       0.998  -6.064   4.821  0.00  0.00    -0.328 N 
ATOM      2  H   UNL     1       1.663  -5.830   5.487  0.00  0.00    +0.148 HD
ENDROOT
BRANCH   1   3
ATOM      3  C   UNL     1      -0.321  -6.322   5.210  0.00  0.00    +0.028 A 
ATOM      4  C   UNL     1      -1.273  -6.661   4.258  0.00  0.00    +0.026 A 
ATOM      5  C   UNL     1      -2.574  -6.915   4.643  0.00  0.00    +0.048 A 
ATOM      6  C   UNL     1      -2.931  -6.832   5.981  0.00  0.00    +0.129 A 
ATOM      7  C   UNL     1      -1.981  -6.493   6.933  0.00  0.00    +0.048 A 
ATOM      8  C   UNL     1      -0.678  -6.244   6.550  0.00  0.00    +0.026 A 
BRANCH   6   9
ATOM      9  O   UNL     1      -4.213  -7.082   6.359  0.00  0.00    -0.456 OA
BRANCH   9  10
ATOM     10  C   UNL     1      -4.521  -6.981   7.678  0.00  0.00    +0.129 A 
ATOM     11  C   UNL     1      -4.950  -5.769   8.201  0.00  0.00    +0.047 A 
ATOM     12  C   UNL     1      -5.262  -5.668   9.543  0.00  0.00    +0.019 A 
ATOM     13  C   UNL     1      -5.146  -6.774  10.366  0.00  0.00    +0.018 A 
ATOM     14  C   UNL     1      -4.719  -7.983   9.847  0.00  0.00    +0.019 A 
ATOM     15  C   UNL     1      -4.411  -8.090   8.505  0.00  0.00    +0.047 A 
ATOM     16 BR   UNL     1      -5.574  -6.633  12.202  0.00  0.00    -0.050 Br
ENDBRANCH   9  10
ENDBRANCH   6   9
ENDBRANCH   1   3
BRANCH   1  17
ATOM     17  C   UNL     1       1.374  -6.146   3.408  0.00  0.00    +0.221 C 
BRANCH  17  27
ATOM     18  C   UNL     1       2.251   0.872   1.169  0.00  0.00    +0.007 C 
ATOM     19  C   UNL     1       1.853  -0.588   0.945  0.00  0.00    -0.013 C 
ATOM     20  C   UNL     1       0.332  -0.685   0.895  0.00  0.00    +0.004 C 
ATOM     21  C   UNL     1      -0.154  -2.145   0.828  0.00  0.00    +0.014 C 
ATOM     22  C   UNL     1       0.433  -2.853   2.026  0.00  0.00    +0.087 C 
ATOM     23  C   UNL     1       1.977  -2.865   1.821  0.00  0.00    +0.088 C 
ATOM     24  C   UNL     1       2.445  -1.450   2.078  0.00  0.00    +0.016 C 
ATOM     25  C   UNL     1       2.357  -3.950   2.777  0.00  0.00    +0.227 C 
ATOM     26  O   UNL     1       3.393  -4.043   3.401  0.00  0.00    -0.275 OA
ATOM     27  N   UNL     1       1.305  -4.812   2.806  0.00  0.00    -0.225 N 
ATOM     28  C   UNL     1       0.176  -4.313   2.224  0.00  0.00    +0.227 C 
ATOM     29  O   UNL     1      -0.827  -4.924   1.925  0.00  0.00    -0.275 OA
ENDBRANCH  17  27
ENDBRANCH   1  17
TORSDOF 5
