REMARK  Name = ZINC63974371
REMARK  7 active torsions:
REMARK  status: ('A' for Active; 'I' for Inactive)
REMARK    1  A    between atoms: C_4  and  C_7
REMARK    2  A    between atoms: N_9  and  C_10
REMARK    3  A    between atoms: C_10  and  C_12
REMARK    4  A    between atoms: C_10  and  C_24
REMARK    5  A    between atoms: N_26  and  N_27
REMARK    6  A    between atoms: C_28  and  C_29
REMARK    7  A    between atoms: C_34  and  C_35
REMARK                            x       y       z     vdW  Elec       q    Type
REMARK                         _______ _______ _______ _____ _____    ______ ____
ROOT
ATOM      1  C   UNL     1       5.030  -2.839  -0.130  0.00  0.00    +0.189 C 
ENDROOT
BRANCH   1   2
ATOM      2  C   UNL     1       5.051  -2.580  -1.638  0.00  0.00    +0.156 C 
ATOM      3  C   UNL     1       6.236  -3.315  -2.218  0.00  0.00    -0.009 A 
ATOM      4  C   UNL     1       7.522  -3.089  -1.801  0.00  0.00    +0.006 A 
ATOM      5  C   UNL     1       8.563  -3.801  -2.378  0.00  0.00    +0.000 A 
ATOM      6  C   UNL     1       8.310  -4.734  -3.369  0.00  0.00    +0.001 A 
ATOM      7  C   UNL     1       7.018  -4.968  -3.797  0.00  0.00    +0.013 A 
ATOM      8  C   UNL     1       5.968  -4.258  -3.221  0.00  0.00    +0.045 A 
ATOM      9  C   UNL     1       4.565  -4.458  -3.628  0.00  0.00    +0.283 C 
ATOM     10  O   UNL     1       4.303  -5.268  -4.494  0.00  0.00    -0.267 OA
ATOM     11  N   UNL     1       3.574  -3.758  -3.055  0.00  0.00    -0.105 NA
ATOM     12  N   UNL     1       3.723  -2.916  -2.172  0.00  0.00    -0.305 N 
ATOM     13  H   UNL     1       2.943  -2.460  -1.818  0.00  0.00    +0.181 HD
ENDBRANCH   1   2
BRANCH   1  16
ATOM     14  C   UNL     1       4.364  -0.699   0.828  0.00  0.00    +0.245 C 
ATOM     15  O   UNL     1       5.507  -0.310   0.683  0.00  0.00    -0.270 OA
ATOM     16  N   UNL     1       4.038  -1.966   0.502  0.00  0.00    -0.298 N 
ATOM     17  H   UNL     1       3.145  -2.299   0.685  0.00  0.00    +0.150 HD
BRANCH  14  21
ATOM     18  C   UNL     1       1.402   1.931   2.361  0.00  0.00    +0.000 A 
ATOM     19  C   UNL     1       2.701   2.377   2.198  0.00  0.00    +0.001 A 
ATOM     20  C   UNL     1       3.668   1.528   1.700  0.00  0.00    +0.013 A 
ATOM     21  C   UNL     1       3.333   0.216   1.362  0.00  0.00    +0.037 A 
ATOM     22  C   UNL     1       2.021  -0.228   1.529  0.00  0.00    +0.013 A 
ATOM     23  C   UNL     1       1.063   0.631   2.027  0.00  0.00    +0.001 A 
ENDBRANCH  14  21
ENDBRANCH   1  16
BRANCH   1  24
ATOM     24  C   UNL     1       4.668  -4.279   0.128  0.00  0.00    +0.255 C 
ATOM     25  O   UNL     1       3.532  -4.574   0.431  0.00  0.00    -0.272 OA
ATOM     26  N   UNL     1       5.608  -5.239   0.020  0.00  0.00    -0.206 N 
ATOM     27  H   UNL     1       6.527  -4.998  -0.174  0.00  0.00    +0.177 HD
BRANCH  26  28
ATOM     28  N   UNL     1       5.257  -6.585   0.189  0.00  0.00    -0.192 NA
ATOM     29  C   UNL     1       6.149  -7.497   0.087  0.00  0.00    +0.118 C 
BRANCH  29  30
ATOM     30  C   UNL     1       5.771  -8.944   0.269  0.00  0.00    +0.125 C 
ATOM     31  C   UNL     1       6.605  -9.581   1.363  0.00  0.00    +0.123 C 
ATOM     32  N   UNL     1       7.271 -10.534   0.799  0.00  0.00    -0.161 NA
ATOM     33  N   UNL     1       7.002 -10.639  -0.562  0.00  0.00    -0.153 NA
ATOM     34  C   UNL     1       6.131  -9.749  -0.964  0.00  0.00    +0.084 C 
BRANCH  34  35
ATOM     35  C   UNL     1       5.610  -9.565  -2.327  0.00  0.00    -0.001 A 
ATOM     36  C   UNL     1       4.681  -8.554  -2.594  0.00  0.00    +0.012 A 
ATOM     37  C   UNL     1       4.197  -8.386  -3.873  0.00  0.00    +0.039 A 
ATOM     38  C   UNL     1       4.628  -9.218  -4.895  0.00  0.00    +0.123 A 
ATOM     39  C   UNL     1       5.549 -10.223  -4.638  0.00  0.00    +0.039 A 
ATOM     40  C   UNL     1       6.045 -10.397  -3.364  0.00  0.00    +0.012 A 
ATOM     41  F   UNL     1       4.149  -9.049  -6.147  0.00  0.00    -0.205 F 
ENDBRANCH  34  35
ENDBRANCH  29  30
ENDBRANCH  26  28
ENDBRANCH   1  24
TORSDOF 7
