REMARK  Name = ZINC05901269
REMARK  9 active torsions:
REMARK  status: ('A' for Active; 'I' for Inactive)
REMARK    1  A    between atoms: C_1  and  C_2
REMARK    2  A    between atoms: C_3  and  C_30
REMARK    3  A    between atoms: C_11  and  C_13
REMARK    4  A    between atoms: C_13  and  C_15
REMARK    5  A    between atoms: C_13  and  O_16
REMARK    6  A    between atoms: O_16  and  C_17
REMARK    7  A    between atoms: C_17  and  C_19
REMARK    8  A    between atoms: C_19  and  S_20
REMARK    9  A    between atoms: S_20  and  C_21
REMARK                            x       y       z     vdW  Elec       q    Type
REMARK                         _______ _______ _______ _____ _____    ______ ____
ROOT
ATOM      1  C   UNL     1      -1.338   2.024   0.019  0.00  0.00    +0.239 C 
ATOM      2  C   UNL     1      -2.455   1.048  -0.354  0.00  0.00    +0.060 C 
ENDROOT
BRANCH   1  13
ATOM      3  C   UNL     1       4.944  -0.316  -0.046  0.00  0.00    +0.045 C 
ATOM      4  C   UNL     1       3.551  -0.892  -0.037  0.00  0.00    -0.026 A 
ATOM      5  C   UNL     1       3.366  -2.222  -0.042  0.00  0.00    -0.008 A 
ATOM      6  S   UNL     1       1.591  -2.392  -0.026  0.00  0.00    -0.073 S 
ATOM      7  C   UNL     1       1.151  -0.673  -0.013  0.00  0.00    +0.116 A 
ATOM      8  C   UNL     1       2.395  -0.017  -0.021  0.00  0.00    +0.075 A 
ATOM      9  C   UNL     1       2.339   1.415  -0.012  0.00  0.00    +0.260 A 
ATOM     10  O   UNL     1       3.364   2.075  -0.018  0.00  0.00    -0.267 OA
ATOM     11  N   UNL     1       1.137   2.020   0.002  0.00  0.00    -0.307 N 
ATOM     12  H   UNL     1       1.091   3.019   0.008  0.00  0.00    +0.170 HD
ATOM     13  C   UNL     1      -0.016   1.302   0.009  0.00  0.00    +0.152 A 
ATOM     14  N   UNL     1       0.002  -0.004   0.002  0.00  0.00    -0.223 NA
ATOM     15  C   UNL     1       4.409  -3.310  -0.058  0.00  0.00    +0.052 C 
ENDBRANCH   1  13
BRANCH   1  16
ATOM     16  O   UNL     1      -1.587   2.560   1.346  0.00  0.00    -0.453 OA
BRANCH  16  17
ATOM     17  C   UNL     1      -2.317   3.684   1.422  0.00  0.00    +0.318 C 
ATOM     18  O   UNL     1      -2.734   4.203   0.414  0.00  0.00    -0.250 OA
BRANCH  17  19
ATOM     19  C   UNL     1      -2.616   4.298   2.765  0.00  0.00    +0.199 C 
BRANCH  19  20
ATOM     20  S   UNL     1      -3.611   5.793   2.537  0.00  0.00    -0.056 S 
BRANCH  20  21
ATOM     21  C   UNL     1      -3.807   6.289   4.216  0.00  0.00    +0.258 A 
ATOM     22  N   UNL     1      -3.317   5.652   5.249  0.00  0.00    -0.203 NA
ATOM     23  C   UNL     1      -3.664   6.324   6.381  0.00  0.00    +0.110 A 
ATOM     24  C   UNL     1      -3.422   6.112   7.739  0.00  0.00    +0.031 A 
ATOM     25  C   UNL     1      -3.929   6.994   8.669  0.00  0.00    +0.002 A 
ATOM     26  C   UNL     1      -4.676   8.089   8.262  0.00  0.00    +0.004 A 
ATOM     27  C   UNL     1      -4.923   8.309   6.922  0.00  0.00    +0.048 A 
ATOM     28  C   UNL     1      -4.421   7.433   5.974  0.00  0.00    +0.156 A 
ATOM     29  O   UNL     1      -4.487   7.376   4.624  0.00  0.00    -0.431 OA
ENDBRANCH  20  21
ENDBRANCH  19  20
ENDBRANCH  17  19
ENDBRANCH  16  17
ENDBRANCH   1  16
TORSDOF 6
