REMARK  Name = ZINC58848224
REMARK  7 active torsions:
REMARK  status: ('A' for Active; 'I' for Inactive)
REMARK    1  A    between atoms: C_1  and  C_2
REMARK    2  A    between atoms: C_5  and  N_9
REMARK    3  A    between atoms: N_9  and  S_10
REMARK    4  A    between atoms: S_10  and  C_13
REMARK    5  A    between atoms: C_26  and  C_29
REMARK    6  A    between atoms: C_32  and  O_35
REMARK    7  A    between atoms: O_35  and  C_36
REMARK                            x       y       z     vdW  Elec       q    Type
REMARK                         _______ _______ _______ _____ _____    ______ ____
ROOT
ATOM      1  C   UNL     1       0.440  -4.543   2.677  0.00  0.00    +0.109 A 
ATOM      2  C   UNL     1       0.788  -3.360   3.303  0.00  0.00    +0.030 A 
ATOM      3  C   UNL     1       0.303  -3.085   4.565  0.00  0.00    +0.025 A 
ATOM      4  C   UNL     1      -0.535  -3.993   5.205  0.00  0.00    +0.031 A 
ATOM      5  C   UNL     1      -0.895  -5.173   4.574  0.00  0.00    -0.018 A 
ATOM      6  C   UNL     1      -0.399  -5.441   3.306  0.00  0.00    +0.034 A 
ATOM      7  C   UNL     1      -1.822  -6.152   5.211  0.00  0.00    +0.049 C 
ATOM      8  C   UNL     1      -1.092  -7.355   5.753  0.00  0.00    -0.023 C 
ATOM      9  C   UNL     1      -1.654  -7.763   6.864  0.00  0.00    -0.030 C 
ATOM     10  C   UNL     1      -2.833  -6.888   7.226  0.00  0.00    +0.033 C 
ATOM     11  C   UNL     1      -2.607  -5.600   6.400  0.00  0.00    +0.029 C 
ATOM     12  C   UNL     1      -1.820  -4.625   7.251  0.00  0.00    +0.105 C 
ATOM     13  N   UNL     1      -1.000  -3.710   6.484  0.00  0.00    -0.336 N 
ATOM     14  H   UNL     1      -0.744  -2.868   6.892  0.00  0.00    +0.147 HD
ENDROOT
BRANCH  12  15
ATOM     15  C   UNL     1      -0.952  -5.410   8.200  0.00  0.00    -0.027 A 
ATOM     16  C   UNL     1       0.244  -5.947   7.758  0.00  0.00    +0.009 A 
ATOM     17  C   UNL     1       1.041  -6.667   8.626  0.00  0.00    +0.046 A 
ATOM     18  C   UNL     1       0.642  -6.852   9.942  0.00  0.00    +0.120 A 
ATOM     19  C   UNL     1      -0.557  -6.312  10.383  0.00  0.00    +0.046 A 
ATOM     20  C   UNL     1      -1.349  -5.588   9.512  0.00  0.00    +0.009 A 
BRANCH  18  21
ATOM     21  O   UNL     1       1.425  -7.561  10.797  0.00  0.00    -0.495 OA
ATOM     22  C   UNL     1       0.951  -7.710  12.137  0.00  0.00    +0.277 C 
ENDBRANCH  18  21
ENDBRANCH  12  15
BRANCH   1  23
ATOM     23  S   UNL     1       1.064  -4.903   1.069  0.00  0.00    +0.072 S 
ATOM     24  O   UNL     1       0.913  -6.303   0.878  0.00  0.00    -0.150 OA
ATOM     25  O   UNL     1       2.324  -4.252   0.968  0.00  0.00    -0.150 OA
BRANCH  23  26
ATOM     26  N   UNL     1       0.061  -4.165  -0.022  0.00  0.00    -0.216 N 
ATOM     27  H   UNL     1       0.408  -3.480  -0.614  0.00  0.00    +0.174 HD
BRANCH  26  32
ATOM     28  C   UNL     1      -5.409  -5.640  -0.297  0.00  0.00    +0.045 C 
ATOM     29  C   UNL     1      -3.955  -5.248  -0.224  0.00  0.00    -0.032 A 
ATOM     30  C   UNL     1      -3.601  -3.912  -0.211  0.00  0.00    +0.006 A 
ATOM     31  C   UNL     1      -2.270  -3.549  -0.144  0.00  0.00    +0.025 A 
ATOM     32  C   UNL     1      -1.286  -4.529  -0.089  0.00  0.00    +0.049 A 
ATOM     33  C   UNL     1      -1.644  -5.870  -0.102  0.00  0.00    +0.044 A 
ATOM     34  C   UNL     1      -2.979  -6.227  -0.164  0.00  0.00    +0.046 A 
ATOM     35 CL   UNL     1      -3.429  -7.903  -0.174  0.00  0.00    -0.083 Cl
ENDBRANCH  26  32
ENDBRANCH  23  26
ENDBRANCH   1  23
TORSDOF 5
