REMARK  Name = ZINC35756867
REMARK  9 active torsions:
REMARK  status: ('A' for Active; 'I' for Inactive)
REMARK    1  A    between atoms: C_1  and  C_2
REMARK    2  A    between atoms: C_2  and  N_3
REMARK    3  A    between atoms: C_4  and  C_6
REMARK    4  A    between atoms: C_8  and  C_22
REMARK    5  A    between atoms: N_13  and  C_14
REMARK    6  A    between atoms: C_14  and  C_15
REMARK    7  A    between atoms: C_20  and  C_21
REMARK    8  A    between atoms: C_25  and  N_28
REMARK    9  A    between atoms: C_29  and  C_31
REMARK                            x       y       z     vdW  Elec       q    Type
REMARK                         _______ _______ _______ _____ _____    ______ ____
ROOT
ATOM      1  C   UNL     1       1.904  -2.461   2.617  0.00  0.00    +0.210 C 
ATOM      2  C   UNL     1       1.014  -2.500   3.882  0.00  0.00    +0.238 C 
ATOM      3  O   UNL     1       0.505  -3.848   3.848  0.00  0.00    -0.440 OA
ATOM      4  C   UNL     1       1.389  -4.610   3.183  0.00  0.00    +0.405 C 
ATOM      5  O   UNL     1       1.424  -5.822   3.259  0.00  0.00    -0.226 OA
ATOM      6  N   UNL     1       2.237  -3.885   2.419  0.00  0.00    -0.248 N 
ENDROOT
BRANCH   2   7
ATOM      7  C   UNL     1      -0.107  -1.498   3.782  0.00  0.00    -0.005 A 
ATOM      8  C   UNL     1      -1.281  -1.838   3.134  0.00  0.00    +0.009 A 
ATOM      9  C   UNL     1      -2.310  -0.922   3.040  0.00  0.00    +0.024 A 
ATOM     10  C   UNL     1      -2.166   0.341   3.599  0.00  0.00    +0.034 A 
ATOM     11  C   UNL     1      -0.987   0.679   4.250  0.00  0.00    +0.024 A 
ATOM     12  C   UNL     1       0.037  -0.243   4.344  0.00  0.00    +0.009 A 
BRANCH  10  13
ATOM     13  N   UNL     1      -3.206   1.271   3.506  0.00  0.00    -0.279 N 
ATOM     14  C   UNL     1      -3.436   2.129   4.520  0.00  0.00    +0.284 C 
ATOM     15  O   UNL     1      -2.688   2.151   5.480  0.00  0.00    -0.266 OA
ATOM     16  H   UNL     1      -3.762   1.299   2.712  0.00  0.00    +0.155 HD
BRANCH  14  17
ATOM     17  C   UNL     1      -4.588   3.035   4.467  0.00  0.00    +0.189 A 
ATOM     18  C   UNL     1      -4.931   3.952   5.418  0.00  0.00    +0.054 A 
ATOM     19  C   UNL     1      -6.091   4.595   4.959  0.00  0.00    +0.042 A 
ATOM     20  C   UNL     1      -6.401   4.049   3.762  0.00  0.00    +0.196 A 
ATOM     21  O   UNL     1      -5.490   3.113   3.467  0.00  0.00    -0.458 OA
ENDBRANCH  14  17
ENDBRANCH  10  13
ENDBRANCH   2   7
BRANCH   1  23
ATOM     22  N   UNL     1       1.015  -0.588   1.267  0.00  0.00    -0.314 N 
ATOM     23  C   UNL     1       1.138  -1.919   1.438  0.00  0.00    +0.238 C 
ATOM     24  O   UNL     1       0.631  -2.682   0.642  0.00  0.00    -0.274 OA
ATOM     25  H   UNL     1       1.421   0.022   1.903  0.00  0.00    +0.149 HD
BRANCH  22  27
ATOM     26  C   UNL     1       0.283   1.467   0.162  0.00  0.00    +0.024 C 
ATOM     27  C   UNL     1       0.270  -0.062   0.121  0.00  0.00    +0.101 C 
ENDBRANCH  22  27
ENDBRANCH   1  23
BRANCH   6  28
ATOM     28  C   UNL     1       3.293  -4.413   1.552  0.00  0.00    +0.147 C 
BRANCH  28  29
ATOM     29  C   UNL     1       4.602  -4.416   2.299  0.00  0.00    -0.027 A 
ATOM     30  C   UNL     1       4.636  -4.059   3.634  0.00  0.00    +0.005 A 
ATOM     31  C   UNL     1       5.836  -4.061   4.320  0.00  0.00    +0.000 A 
ATOM     32  C   UNL     1       7.003  -4.420   3.670  0.00  0.00    +0.000 A 
ATOM     33  C   UNL     1       6.968  -4.777   2.335  0.00  0.00    +0.003 A 
ATOM     34  C   UNL     1       5.767  -4.780   1.651  0.00  0.00    -0.046 A 
ATOM     35  C   UNL     1       5.729  -5.175   0.197  0.00  0.00    +0.044 C 
ENDBRANCH  28  29
ENDBRANCH   6  28
TORSDOF 7
