REMARK  Name = ZINC09775389
REMARK  14 active torsions:
REMARK  status: ('A' for Active; 'I' for Inactive)
REMARK    1  A    between atoms: C_1  and  C_2
REMARK    2  A    between atoms: C_2  and  C_3
REMARK    3  A    between atoms: C_2  and  C_4
REMARK    4  A    between atoms: C_2  and  C_5
REMARK    5  A    between atoms: C_5  and  C_7
REMARK    6  A    between atoms: C_7  and  S_8
REMARK    7  A    between atoms: S_8  and  C_9
REMARK    8  A    between atoms: C_13  and  C_28
REMARK    9  A    between atoms: N_19  and  C_20
REMARK   10  A    between atoms: C_20  and  C_21
REMARK   11  A    between atoms: C_21  and  C_22
REMARK   12  A    between atoms: N_30  and  C_31
REMARK   13  A    between atoms: C_31  and  C_32
REMARK   14  A    between atoms: C_32  and  C_33
REMARK                            x       y       z     vdW  Elec       q    Type
REMARK                         _______ _______ _______ _____ _____    ______ ____
ROOT
ATOM      1  C   UNL     1       1.159   2.154   0.003  0.00  0.00    +0.173 A 
ATOM      2  N   UNL     1       1.217   3.463   0.009  0.00  0.00    -0.223 NA
ATOM      3  C   UNL     1       0.096   4.222   0.023  0.00  0.00    +0.080 A 
ATOM      4  C   UNL     1       0.161   5.618   0.029  0.00  0.00    +0.041 A 
ATOM      5  C   UNL     1      -1.016   6.356   0.043  0.00  0.00    +0.039 A 
ATOM      6  C   UNL     1      -2.259   5.711   0.051  0.00  0.00    +0.014 A 
ATOM      7  C   UNL     1      -2.335   4.347   0.045  0.00  0.00    +0.016 A 
ATOM      8  C   UNL     1      -1.166   3.587   0.032  0.00  0.00    +0.065 A 
ATOM      9  C   UNL     1      -1.202   2.116   0.019  0.00  0.00    +0.262 A 
ATOM     10  O   UNL     1      -2.257   1.510   0.021  0.00  0.00    -0.267 OA
ATOM     11  N   UNL     1      -0.018   1.461   0.010  0.00  0.00    -0.287 N 
ENDROOT
BRANCH   5  12
ATOM     12  C   UNL     1      -0.956   7.835   0.050  0.00  0.00    +0.244 C 
ATOM     13  O   UNL     1       0.120   8.400   0.042  0.00  0.00    -0.270 OA
ATOM     14  N   UNL     1      -2.095   8.556   0.063  0.00  0.00    -0.311 N 
ATOM     15  H   UNL     1      -2.954   8.105   0.069  0.00  0.00    +0.149 HD
BRANCH  14  16
ATOM     16  C   UNL     1      -2.035  10.020   0.070  0.00  0.00    +0.109 C 
BRANCH  16  17
ATOM     17  C   UNL     1      -3.456  10.588   0.085  0.00  0.00    +0.049 C 
BRANCH  17  18
ATOM     18  C   UNL     1      -3.395  12.093   0.092  0.00  0.00    -0.072 C 
ATOM     19  C   UNL     1      -3.480  12.709  -1.044  0.00  0.00    -0.028 C 
ATOM     20  C   UNL     1      -3.425  14.201  -1.197  0.00  0.00    +0.027 C 
ATOM     21  C   UNL     1      -3.683  14.879   0.150  0.00  0.00    +0.004 C 
ATOM     22  C   UNL     1      -2.777  14.229   1.202  0.00  0.00    +0.005 C 
ATOM     23  C   UNL     1      -3.245  12.786   1.415  0.00  0.00    +0.030 C 
ENDBRANCH  17  18
ENDBRANCH  16  17
ENDBRANCH  14  16
ENDBRANCH   5  12
BRANCH   1  24
ATOM     24  S   UNL     1       2.669   1.246  -0.015  0.00  0.00    -0.080 S 
BRANCH  24  25
ATOM     25  C   UNL     1       3.857   2.612  -0.020  0.00  0.00    +0.152 C 
BRANCH  25  26
ATOM     26  C   UNL     1       5.258   2.058  -0.035  0.00  0.00    +0.149 C 
ATOM     27  O   UNL     1       5.436   0.864  -0.043  0.00  0.00    -0.296 OA
BRANCH  26  29
ATOM     28  C   UNL     1       7.735   2.183  -0.057  0.00  0.00    +0.018 C 
ATOM     29  C   UNL     1       6.438   2.996  -0.042  0.00  0.00    +0.021 C 
ATOM     30  C   UNL     1       6.378   3.884  -1.286  0.00  0.00    +0.018 C 
ATOM     31  C   UNL     1       6.401   3.872   1.212  0.00  0.00    +0.018 C 
ENDBRANCH  26  29
ENDBRANCH  25  26
ENDBRANCH  24  25
ENDBRANCH   1  24
BRANCH  11  32
ATOM     32  C   UNL     1       0.002  -0.004   0.002  0.00  0.00    +0.132 C 
BRANCH  32  33
ATOM     33  C   UNL     1       0.023  -0.522   1.442  0.00  0.00    +0.057 C 
BRANCH  33  34
ATOM     34  C   UNL     1       0.043  -2.029   1.433  0.00  0.00    -0.046 A 
ATOM     35  C   UNL     1      -1.144  -2.736   1.447  0.00  0.00    +0.004 A 
ATOM     36  C   UNL     1      -1.126  -4.118   1.434  0.00  0.00    +0.000 A 
ATOM     37  C   UNL     1       0.081  -4.793   1.419  0.00  0.00    +0.000 A 
ATOM     38  C   UNL     1       1.268  -4.086   1.411  0.00  0.00    +0.000 A 
ATOM     39  C   UNL     1       1.250  -2.703   1.418  0.00  0.00    +0.004 A 
ENDBRANCH  33  34
ENDBRANCH  32  33
ENDBRANCH  11  32
TORSDOF 11
