REMARK  Name = ZINC66618118
REMARK  10 active torsions:
REMARK  status: ('A' for Active; 'I' for Inactive)
REMARK    1  A    between atoms: C_1  and  C_2
REMARK    2  A    between atoms: C_5  and  C_9
REMARK    3  A    between atoms: C_6  and  C_8
REMARK    4  A    between atoms: C_9  and  C_10
REMARK    5  A    between atoms: C_10  and  C_12
REMARK    6  A    between atoms: C_10  and  N_13
REMARK    7  A    between atoms: C_23  and  C_25
REMARK    8  A    between atoms: C_25  and  C_26
REMARK    9  A    between atoms: C_25  and  C_27
REMARK   10  A    between atoms: C_25  and  C_28
REMARK                            x       y       z     vdW  Elec       q    Type
REMARK                         _______ _______ _______ _____ _____    ______ ____
ROOT
ATOM      1  N   UNL     1      -2.544  -2.514  -1.037  0.00  0.00    -0.296 N 
ATOM      2  C   UNL     1      -3.891  -2.486  -1.065  0.00  0.00    +0.302 C 
ATOM      3  O   UNL     1      -4.520  -2.426  -0.026  0.00  0.00    -0.253 OA
ATOM      4  N   UNL     1      -4.541  -2.524  -2.245  0.00  0.00    -0.284 N 
ATOM      5  C   UNL     1      -5.960  -2.489  -2.312  0.00  0.00    +0.111 C 
ATOM      6  C   UNL     1      -6.655  -3.878  -2.126  0.00  0.00    +0.038 C 
ATOM      7  C   UNL     1      -5.768  -4.942  -2.852  0.00  0.00    +0.109 C 
ATOM      8  N   UNL     1      -5.189  -4.497  -4.072  0.00  0.00    -0.299 N 
ATOM      9  C   UNL     1      -3.797  -3.981  -4.010  0.00  0.00    +0.126 C 
ATOM     10  C   UNL     1      -3.806  -2.597  -3.534  0.00  0.00    +0.128 C 
ATOM     11  C   UNL     1      -5.872  -4.542  -5.233  0.00  0.00    +0.221 C 
ATOM     12  O   UNL     1      -6.992  -5.007  -5.260  0.00  0.00    -0.275 OA
ATOM     13  H   UNL     1      -2.042  -2.562  -1.866  0.00  0.00    +0.151 HD
ENDROOT
BRANCH  11  14
ATOM     14  C   UNL     1      -5.245  -4.013  -6.497  0.00  0.00    +0.039 C 
ATOM     15  C   UNL     1      -6.295  -3.973  -7.609  0.00  0.00    +0.020 C 
ATOM     16  C   UNL     1      -4.711  -2.601  -6.249  0.00  0.00    +0.020 C 
ATOM     17  C   UNL     1      -4.093  -4.928  -6.916  0.00  0.00    +0.020 C 
ENDBRANCH  11  14
BRANCH   1  18
ATOM     18  C   UNL     1      -1.837  -2.473   0.246  0.00  0.00    +0.076 C 
ATOM     19  C   UNL     1      -1.733  -3.889   0.816  0.00  0.00    +0.028 C 
BRANCH  18  20
ATOM     20  C   UNL     1      -0.433  -1.903   0.036  0.00  0.00    +0.057 C 
BRANCH  20  25
ATOM     21  C   UNL     1      -0.829   3.604  -1.671  0.00  0.00    +0.044 C 
ATOM     22  C   UNL     1      -0.725   2.168  -1.226  0.00  0.00    -0.050 A 
ATOM     23  C   UNL     1      -0.599   1.161  -2.164  0.00  0.00    +0.003 A 
ATOM     24  C   UNL     1      -0.504  -0.156  -1.756  0.00  0.00    +0.004 A 
ATOM     25  C   UNL     1      -0.535  -0.467  -0.409  0.00  0.00    -0.043 A 
ATOM     26  C   UNL     1      -0.661   0.541   0.529  0.00  0.00    -0.047 A 
ATOM     27  C   UNL     1      -0.751   1.858   0.121  0.00  0.00    +0.007 A 
ATOM     28  C   UNL     1      -0.696   0.203   1.998  0.00  0.00    +0.044 C 
ENDBRANCH  20  25
ENDBRANCH  18  20
ENDBRANCH   1  18
TORSDOF 4
