REMARK  Name = ZINC07000857
REMARK  10 active torsions:
REMARK  status: ('A' for Active; 'I' for Inactive)
REMARK    1  A    between atoms: C_1  and  C_2
REMARK    2  A    between atoms: C_2  and  N_3
REMARK    3  A    between atoms: N_3  and  C_4
REMARK    4  A    between atoms: C_6  and  C_11
REMARK    5  A    between atoms: C_9  and  C_10
REMARK    6  A    between atoms: N_14  and  C_15
REMARK    7  A    between atoms: N_17  and  C_26
REMARK    8  A    between atoms: C_26  and  C_27
REMARK    9  A    between atoms: C_27  and  C_28
REMARK   10  A    between atoms: C_27  and  C_29
REMARK                            x       y       z     vdW  Elec       q    Type
REMARK                         _______ _______ _______ _____ _____    ______ ____
ROOT
ATOM      1  N   UNL     1      -0.382   0.996   0.862  0.00  0.00    -0.255 N 
ATOM      2  C   UNL     1      -1.006   0.740   2.029  0.00  0.00    +0.311 C 
ATOM      3  O   UNL     1      -1.260   1.650   2.795  0.00  0.00    -0.252 OA
ATOM      4  N   UNL     1      -1.350  -0.524   2.347  0.00  0.00    -0.267 N 
ATOM      5  H   UNL     1      -1.215  -1.239   1.705  0.00  0.00    +0.156 HD
ENDROOT
BRANCH   4   6
ATOM      6  C   UNL     1      -1.903  -0.805   3.605  0.00  0.00    +0.059 A 
ATOM      7  C   UNL     1      -3.131  -1.353   3.702  0.00  0.00    +0.113 A 
ATOM      8  N   UNL     1      -3.709  -1.644   4.908  0.00  0.00    -0.313 N 
ATOM      9  C   UNL     1      -3.089  -1.402   6.080  0.00  0.00    +0.259 A 
ATOM     10  O   UNL     1      -3.636  -1.676   7.133  0.00  0.00    -0.267 OA
ATOM     11  C   UNL     1      -1.748  -0.807   6.075  0.00  0.00    +0.048 A 
ATOM     12  C   UNL     1      -1.149  -0.512   4.829  0.00  0.00    +0.010 A 
ATOM     13  C   UNL     1       0.128   0.049   4.792  0.00  0.00    +0.010 A 
ATOM     14  C   UNL     1       0.789   0.303   5.961  0.00  0.00    +0.001 A 
ATOM     15  C   UNL     1       0.208   0.009   7.187  0.00  0.00    +0.001 A 
ATOM     16  C   UNL     1      -1.056  -0.534   7.255  0.00  0.00    +0.014 A 
BRANCH   8  17
ATOM     17  C   UNL     1      -5.048  -2.238   4.926  0.00  0.00    +0.128 C 
BRANCH  17  18
ATOM     18  C   UNL     1      -4.930  -3.763   4.895  0.00  0.00    +0.003 C 
ATOM     19  C   UNL     1      -4.254  -4.249   6.178  0.00  0.00    +0.009 C 
ATOM     20  C   UNL     1      -6.325  -4.381   4.788  0.00  0.00    +0.009 C 
ENDBRANCH  17  18
ENDBRANCH   8  17
ENDBRANCH   4   6
BRANCH   1  21
ATOM     21  C   UNL     1      -0.025   2.308   0.533  0.00  0.00    +0.041 A 
ATOM     22  C   UNL     1      -0.915   3.118  -0.162  0.00  0.00    +0.027 A 
ATOM     23  C   UNL     1      -0.560   4.412  -0.485  0.00  0.00    -0.049 A 
ATOM     24  C   UNL     1       0.680   4.903  -0.118  0.00  0.00    +0.004 A 
ATOM     25  C   UNL     1       1.567   4.100   0.573  0.00  0.00    +0.005 A 
ATOM     26  C   UNL     1       1.216   2.806   0.904  0.00  0.00    -0.029 A 
ATOM     27  C   UNL     1       2.182   1.933   1.663  0.00  0.00    +0.045 C 
ATOM     28  C   UNL     1      -1.524   5.291  -1.240  0.00  0.00    +0.044 C 
ENDBRANCH   1  21
BRANCH   1  30
ATOM     29  C   UNL     1       1.307  -0.667   0.261  0.00  0.00    +0.025 C 
ATOM     30  C   UNL     1      -0.077  -0.100  -0.061  0.00  0.00    +0.112 C 
ENDBRANCH   1  30
TORSDOF 5
