REMARK  Name = ZINC19219596
REMARK  9 active torsions:
REMARK  status: ('A' for Active; 'I' for Inactive)
REMARK    1  A    between atoms: C_1  and  C_2
REMARK    2  A    between atoms: C_10  and  C_35
REMARK    3  A    between atoms: C_11  and  C_12
REMARK    4  A    between atoms: C_12  and  C_14
REMARK    5  A    between atoms: C_12  and  O_34
REMARK    6  A    between atoms: C_14  and  N_15
REMARK    7  A    between atoms: C_22  and  O_33
REMARK    8  A    between atoms: C_26  and  C_32
REMARK    9  A    between atoms: C_27  and  C_31
REMARK                            x       y       z     vdW  Elec       q    Type
REMARK                         _______ _______ _______ _____ _____    ______ ____
ROOT
ATOM      1  N   UNL     1      -3.450  -2.945   2.566  0.00  0.00    +0.382 N 
ATOM      2  C   UNL     1      -2.174  -2.575   3.192  0.00  0.00    -0.075 C 
ATOM      3  C   UNL     1      -1.034  -3.348   2.522  0.00  0.00    +0.029 C 
ATOM      4  C   UNL     1      -1.009  -3.019   1.029  0.00  0.00    +0.110 C 
ATOM      5  C   UNL     1      -2.365  -3.360   0.409  0.00  0.00    +0.029 C 
ATOM      6  C   UNL     1      -3.466  -2.588   1.142  0.00  0.00    -0.075 C 
ATOM      7  C   UNL     1       0.088  -3.839   0.341  0.00  0.00    +0.084 C 
ATOM      8  C   UNL     1       1.416  -3.558   1.050  0.00  0.00    +0.152 C 
ATOM      9  C   UNL     1       1.599  -2.070   1.213  0.00  0.00    +0.023 A 
ATOM     10  C   UNL     1       2.868  -1.580   1.474  0.00  0.00    +0.013 A 
ATOM     11  C   UNL     1       3.071  -0.223   1.634  0.00  0.00    -0.047 A 
ATOM     12  C   UNL     1       2.006   0.652   1.532  0.00  0.00    -0.044 A 
ATOM     13  C   UNL     1       0.740   0.169   1.270  0.00  0.00    +0.049 A 
ATOM     14  C   UNL     1       0.531  -1.197   1.108  0.00  0.00    +0.127 A 
ATOM     15  O   UNL     1      -0.728  -1.633   0.844  0.00  0.00    -0.485 OA
ATOM     16  C   UNL     1       2.227   2.132   1.708  0.00  0.00    +0.044 C 
ATOM     17  C   UNL     1       4.455   0.303   1.917  0.00  0.00    +0.044 C 
ATOM     18  H   UNL     1      -3.556  -4.038   2.639  0.00  0.00    -0.082 HD
ENDROOT
BRANCH   8  19
ATOM     19  O   UNL     1       2.491  -4.087   0.271  0.00  0.00    -0.387 OA
ATOM     20  H   UNL     1       3.529  -3.980   0.622  0.00  0.00    +0.210 HD
ENDBRANCH   8  19
BRANCH   1  21
ATOM     21  C   UNL     1      -4.581  -2.332   3.275  0.00  0.00    -0.042 C 
BRANCH  21  22
ATOM     22  C   UNL     1      -5.891  -2.930   2.759  0.00  0.00    +0.130 C 
BRANCH  22  33
ATOM     23  C   UNL     1      -9.573  -2.119   8.515  0.00  0.00    +0.044 C 
ATOM     24  C   UNL     1      -8.854  -2.200   7.193  0.00  0.00    -0.048 A 
ATOM     25  C   UNL     1      -7.763  -3.048   7.055  0.00  0.00    +0.004 A 
ATOM     26  C   UNL     1      -7.099  -3.135   5.865  0.00  0.00    +0.010 A 
ATOM     27  C   UNL     1      -7.524  -2.372   4.776  0.00  0.00    +0.005 A 
ATOM     28  C   UNL     1      -8.624  -1.506   4.912  0.00  0.00    +0.047 A 
ATOM     29  C   UNL     1      -9.286  -1.433   6.134  0.00  0.00    +0.029 A 
ATOM     30  N   UNL     1      -8.806  -0.886   3.697  0.00  0.00    -0.358 N 
ATOM     31  H   UNL     1      -9.623  -0.161   3.566  0.00  0.00    +0.166 HD
ATOM     32  C   UNL     1      -7.862  -1.321   2.807  0.00  0.00    +0.019 A 
ATOM     33  C   UNL     1      -7.055  -2.216   3.397  0.00  0.00    +0.007 A 
ATOM     34  C   UNL     1      -7.747  -0.862   1.375  0.00  0.00    +0.063 C 
ENDBRANCH  22  33
BRANCH  22  35
ATOM     35  O   UNL     1      -5.944  -4.319   3.092  0.00  0.00    -0.389 OA
ATOM     36  H   UNL     1      -5.172  -5.005   2.715  0.00  0.00    +0.210 HD
ENDBRANCH  22  35
ENDBRANCH  21  22
ENDBRANCH   1  21
TORSDOF 5
