REMARK  Name = ZINC04558154
REMARK  5 active torsions:
REMARK  status: ('A' for Active; 'I' for Inactive)
REMARK    1  A    between atoms: C_1  and  C_2
REMARK    2  A    between atoms: C_2  and  N_3
REMARK    3  A    between atoms: N_5  and  C_21
REMARK    4  A    between atoms: C_9  and  C_10
REMARK    5  A    between atoms: C_21  and  C_22
REMARK                            x       y       z     vdW  Elec       q    Type
REMARK                         _______ _______ _______ _____ _____    ______ ____
ROOT
ATOM      1  N   UNL     1       1.139   0.167  -1.256  0.00  0.00    -0.263 NA
ATOM      2  C   UNL     1       2.181  -0.610  -1.137  0.00  0.00    +0.163 C 
ATOM      3  N   UNL     1       3.049  -1.040  -2.120  0.00  0.00    -0.247 N 
ATOM      4  C   UNL     1       4.064  -1.833  -1.821  0.00  0.00    +0.259 C 
ATOM      5  O   UNL     1       4.840  -2.221  -2.675  0.00  0.00    -0.269 OA
ATOM      6  C   UNL     1       4.216  -2.224  -0.412  0.00  0.00    +0.078 C 
ATOM      7  C   UNL     1       5.157  -3.018   0.166  0.00  0.00    +0.030 C 
ATOM      8  S   UNL     1       2.838  -1.370   0.339  0.00  0.00    -0.049 S 
ENDROOT
BRANCH   7   9
ATOM      9  C   UNL     1       6.112  -3.748  -0.669  0.00  0.00    +0.001 A 
ATOM     10  C   UNL     1       5.864  -4.323  -1.883  0.00  0.00    +0.091 A 
ATOM     11  N   UNL     1       6.996  -4.909  -2.352  0.00  0.00    -0.360 N 
ATOM     12  H   UNL     1       7.067  -5.381  -3.196  0.00  0.00    +0.165 HD
ATOM     13  C   UNL     1       8.032  -4.738  -1.457  0.00  0.00    +0.047 A 
ATOM     14  C   UNL     1       7.534  -4.003  -0.369  0.00  0.00    +0.007 A 
ATOM     15  C   UNL     1       8.371  -3.675   0.694  0.00  0.00    +0.010 A 
ATOM     16  C   UNL     1       9.690  -4.073   0.672  0.00  0.00    +0.001 A 
ATOM     17  C   UNL     1      10.185  -4.796  -0.403  0.00  0.00    +0.002 A 
ATOM     18  C   UNL     1       9.366  -5.134  -1.458  0.00  0.00    +0.026 A 
ENDBRANCH   7   9
BRANCH   1  20
ATOM     19  C   UNL     1       0.454   2.016   0.191  0.00  0.00    +0.029 C 
ATOM     20  C   UNL     1       0.345   0.513  -0.075  0.00  0.00    +0.141 C 
ENDBRANCH   1  20
BRANCH   3  21
ATOM     21  C   UNL     1       2.843  -0.616  -3.507  0.00  0.00    +0.112 C 
ATOM     22  C   UNL     1       3.605   0.687  -3.760  0.00  0.00    +0.025 C 
ENDBRANCH   3  21
TORSDOF 3
