REMARK  Name = ZINC00177889
REMARK  6 active torsions:
REMARK  status: ('A' for Active; 'I' for Inactive)
REMARK    1  A    between atoms: C_1  and  C_2
REMARK    2  A    between atoms: C_2  and  C_3
REMARK    3  A    between atoms: C_3  and  C_4
REMARK    4  A    between atoms: C_8  and  C_18
REMARK    5  A    between atoms: C_13  and  N_17
REMARK    6  A    between atoms: C_14  and  C_15
REMARK                            x       y       z     vdW  Elec       q    Type
REMARK                         _______ _______ _______ _____ _____    ______ ____
ROOT
ATOM      1  C   UNL     1       0.739  -2.027  -1.265  0.00  0.00    +0.052 C 
ATOM      2  C   UNL     1       1.348  -2.525  -2.582  0.00  0.00    +0.136 C 
ATOM      3  C   UNL     1       1.007  -1.589  -3.719  0.00  0.00    +0.083 C 
ATOM      4  N   UNL     1       2.142  -1.093  -4.132  0.00  0.00    -0.150 NA
ATOM      5  N   UNL     1       3.225  -1.554  -3.383  0.00  0.00    -0.115 NA
ATOM      6  C   UNL     1       2.857  -2.359  -2.432  0.00  0.00    +0.227 C 
ATOM      7  O   UNL     1       3.527  -2.935  -1.410  0.00  0.00    -0.425 OA
ATOM      8  C   UNL     1       2.859  -2.926  -0.228  0.00  0.00    +0.200 C 
ATOM      9  C   UNL     1       1.574  -2.526  -0.116  0.00  0.00    +0.090 C 
ENDROOT
BRANCH   3  10
ATOM     10  C   UNL     1      -0.333  -1.296  -4.253  0.00  0.00    +0.000 A 
ATOM     11  C   UNL     1      -1.460  -1.908  -3.695  0.00  0.00    +0.011 A 
ATOM     12  C   UNL     1      -2.712  -1.629  -4.199  0.00  0.00    +0.022 A 
ATOM     13  C   UNL     1      -2.857  -0.745  -5.256  0.00  0.00    +0.059 A 
ATOM     14  C   UNL     1      -1.744  -0.135  -5.814  0.00  0.00    +0.060 A 
ATOM     15  C   UNL     1      -0.485  -0.401  -5.315  0.00  0.00    +0.031 A 
ATOM     16 CL   UNL     1      -1.936   0.971  -7.138  0.00  0.00    -0.082 Cl
ATOM     17 CL   UNL     1      -4.438  -0.401  -5.885  0.00  0.00    -0.082 Cl
ENDBRANCH   3  10
BRANCH   8  18
ATOM     18  N   UNL     1       3.517  -3.342   0.902  0.00  0.00    -0.328 N 
ATOM     19  H   UNL     1       4.440  -3.635   0.846  0.00  0.00    +0.145 HD
ATOM     20  H   UNL     1       3.059  -3.344   1.757  0.00  0.00    +0.145 HD
ENDBRANCH   8  18
BRANCH   9  21
ATOM     21  C   UNL     1       0.965  -2.578   1.179  0.00  0.00    +0.100 C 
ATOM     22  N   UNL     1       0.482  -2.620   2.206  0.00  0.00    -0.191 NA
ENDBRANCH   9  21
BRANCH   1  23
ATOM     23  C   UNL     1       0.718  -0.497  -1.257  0.00  0.00    +0.010 C 
BRANCH  23  25
ATOM     24  C   UNL     1      -0.019   1.526   0.010  0.00  0.00    +0.004 C 
ATOM     25  C   UNL     1       0.002  -0.004   0.002  0.00  0.00    -0.003 C 
ENDBRANCH  23  25
ENDBRANCH   1  23
TORSDOF 5
