REMARK  Name = ZINC21582573
REMARK  10 active torsions:
REMARK  status: ('A' for Active; 'I' for Inactive)
REMARK    1  A    between atoms: C_1  and  C_2
REMARK    2  A    between atoms: C_2  and  C_3
REMARK    3  A    between atoms: C_3  and  N_4
REMARK    4  A    between atoms: N_4  and  C_5
REMARK    5  A    between atoms: N_4  and  C_16
REMARK    6  A    between atoms: C_5  and  C_6
REMARK    7  A    between atoms: C_9  and  C_11
REMARK    8  A    between atoms: C_16  and  C_17
REMARK    9  A    between atoms: N_19  and  C_20
REMARK   10  A    between atoms: N_19  and  C_28
REMARK                            x       y       z     vdW  Elec       q    Type
REMARK                         _______ _______ _______ _____ _____    ______ ____
ROOT
ATOM      1  N   UNL     1       0.544  -2.131   1.265  0.00  0.00    +0.391 N 
ATOM      2  H   UNL     1       0.344  -1.145   1.329  0.00  0.00    -0.080 HD
ENDROOT
BRANCH   1   3
ATOM      3  C   UNL     1       1.257  -2.566   2.474  0.00  0.00    -0.078 C 
BRANCH   3   5
ATOM      4  C   UNL     1       3.185  -2.073   3.985  0.00  0.00    +0.002 C 
ATOM      5  C   UNL     1       2.517  -1.717   2.655  0.00  0.00    -0.022 C 
ENDBRANCH   3   5
ENDBRANCH   1   3
BRANCH   1   6
ATOM      6  C   UNL     1      -0.714  -2.880   1.143  0.00  0.00    +0.021 C 
BRANCH   6   7
ATOM      7  C   UNL     1      -1.623  -2.525   2.292  0.00  0.00    +0.202 A 
ATOM      8  N   UNL     1      -2.502  -1.563   2.307  0.00  0.00    -0.114 NA
ATOM      9  N   UNL     1      -3.102  -1.545   3.445  0.00  0.00    -0.107 NA
ATOM     10  C   UNL     1      -2.621  -2.505   4.204  0.00  0.00    +0.255 A 
ATOM     11  O   UNL     1      -1.678  -3.147   3.483  0.00  0.00    -0.422 OA
BRANCH  10  12
ATOM     12  C   UNL     1      -3.036  -2.824   5.578  0.00  0.00    +0.076 A 
ATOM     13  C   UNL     1      -3.998  -2.213   6.361  0.00  0.00    +0.021 A 
ATOM     14  C   UNL     1      -4.210  -2.696   7.632  0.00  0.00    +0.008 A 
ATOM     15  C   UNL     1      -3.474  -3.748   8.075  0.00  0.00    +0.046 A 
ATOM     16  S   UNL     1      -2.434  -4.104   6.668  0.00  0.00    -0.092 S 
ENDBRANCH  10  12
ENDBRANCH   6   7
ENDBRANCH   1   6
BRANCH   1  17
ATOM     17  C   UNL     1       1.381  -2.385   0.085  0.00  0.00    +0.019 C 
BRANCH  17  18
ATOM     18  C   UNL     1       0.721  -1.797  -1.135  0.00  0.00    +0.200 C 
ATOM     19  O   UNL     1      -0.273  -1.113  -1.016  0.00  0.00    -0.278 OA
ATOM     20  N   UNL     1       1.236  -2.031  -2.358  0.00  0.00    -0.295 N 
BRANCH  20  21
ATOM     21  C   UNL     1       0.654  -1.380  -3.535  0.00  0.00    +0.099 C 
ATOM     22  C   UNL     1       0.717   0.147  -3.368  0.00  0.00    +0.046 C 
ATOM     23  C   UNL     1      -0.170   0.832  -4.435  0.00  0.00    +0.168 C 
ATOM     24  S   UNL     1      -1.458  -0.438  -4.765  0.00  0.00    -0.029 S 
ATOM     25  O   UNL     1      -1.361  -0.854  -6.120  0.00  0.00    -0.174 OA
ATOM     26  O   UNL     1      -2.704   0.026  -4.263  0.00  0.00    -0.174 OA
ATOM     27  C   UNL     1      -0.840  -1.790  -3.677  0.00  0.00    +0.188 C 
ENDBRANCH  20  21
BRANCH  20  28
ATOM     28  C   UNL     1       2.378  -2.936  -2.512  0.00  0.00    +0.076 C 
ATOM     29  C   UNL     1       1.991  -4.357  -2.052  0.00  0.00    +0.022 C 
ATOM     30  C   UNL     1       3.269  -4.894  -1.361  0.00  0.00    +0.002 C 
ATOM     31  C   UNL     1       3.813  -3.642  -0.629  0.00  0.00    +0.002 C 
ATOM     32  C   UNL     1       3.536  -2.482  -1.607  0.00  0.00    +0.022 C 
ENDBRANCH  20  28
ENDBRANCH  17  18
ENDBRANCH   1  17
TORSDOF 9
