REMARK  Name = ZINC11659549
REMARK  9 active torsions:
REMARK  status: ('A' for Active; 'I' for Inactive)
REMARK    1  A    between atoms: C_1  and  N_54
REMARK    2  A    between atoms: C_2  and  N_54
REMARK    3  A    between atoms: C_3  and  C_5
REMARK    4  A    between atoms: C_3  and  C_24
REMARK    5  A    between atoms: C_3  and  N_54
REMARK    6  A    between atoms: C_5  and  N_6
REMARK    7  A    between atoms: C_7  and  C_9
REMARK    8  A    between atoms: N_12  and  C_15
REMARK    9  A    between atoms: C_20  and  N_21
REMARK                            x       y       z     vdW  Elec       q    Type
REMARK                         _______ _______ _______ _____ _____    ______ ____
ROOT
ATOM      1  N   UNL     1       0.333   0.601   0.102  0.00  0.00    -0.316 N 
ATOM      2  C   UNL     1       1.015   0.147  -0.968  0.00  0.00    +0.216 C 
ATOM      3  O   UNL     1       1.313   0.907  -1.865  0.00  0.00    -0.276 OA
ATOM      4  H   UNL     1       0.095  -0.007   0.819  0.00  0.00    +0.149 HD
ENDROOT
BRANCH   2   5
ATOM      5  C   UNL     1       1.408  -1.306  -1.049  0.00  0.00    +0.078 C 
ATOM      6  C   UNL     1       2.308  -1.660   0.138  0.00  0.00    +0.031 C 
ATOM      7  C   UNL     1       2.754  -3.119   0.016  0.00  0.00    +0.106 C 
ATOM      8  N   UNL     1       3.480  -3.308  -1.247  0.00  0.00    -0.328 N 
ATOM      9  C   UNL     1       2.620  -3.020  -2.402  0.00  0.00    +0.106 C 
ATOM     10  C   UNL     1       2.171  -1.558  -2.353  0.00  0.00    +0.031 C 
BRANCH   8  11
ATOM     11  C   UNL     1       4.014  -4.596  -1.330  0.00  0.00    +0.060 A 
ATOM     12  C   UNL     1       3.169  -5.699  -1.367  0.00  0.00    +0.025 A 
ATOM     13  C   UNL     1       3.700  -6.970  -1.454  0.00  0.00    +0.002 A 
ATOM     14  C   UNL     1       5.072  -7.148  -1.494  0.00  0.00    +0.002 A 
ATOM     15  C   UNL     1       5.915  -6.053  -1.451  0.00  0.00    +0.034 A 
ATOM     16  C   UNL     1       5.390  -4.778  -1.370  0.00  0.00    +0.147 A 
BRANCH  16  17
ATOM     17  N   UNL     1       6.294  -3.606  -1.324  0.00  0.00    +0.058 N 
ATOM     18  O   UNL     1       7.500  -3.766  -1.359  0.00  0.00    -0.126 OA
ATOM     19  O   UNL     1       5.830  -2.482  -1.252  0.00  0.00    -0.126 OA
ENDBRANCH  16  17
ENDBRANCH   8  11
ENDBRANCH   2   5
BRANCH   1  20
ATOM     20  C   UNL     1      -0.049   2.013   0.181  0.00  0.00    +0.094 C 
BRANCH  20  21
ATOM     21  C   UNL     1      -0.882   2.246   1.443  0.00  0.00    -0.014 C 
BRANCH  21  22
ATOM     22  C   UNL     1      -0.022   2.029   2.661  0.00  0.00    -0.022 A 
ATOM     23  C   UNL     1       0.589   2.947   3.449  0.00  0.00    +0.009 A 
ATOM     24  C   UNL     1       1.338   2.513   4.527  0.00  0.00    +0.008 A 
ATOM     25  C   UNL     1       1.438   1.182   4.764  0.00  0.00    +0.045 A 
ATOM     26  S   UNL     1       0.451   0.496   3.444  0.00  0.00    -0.103 S 
ENDBRANCH  21  22
BRANCH  21  29
ATOM     27  C   UNL     1      -2.835   1.500   2.665  0.00  0.00    -0.096 C 
ATOM     28  C   UNL     1      -2.819   1.422   0.245  0.00  0.00    -0.096 C 
ATOM     29  N   UNL     1      -1.999   1.278   1.466  0.00  0.00    +0.382 N 
ATOM     30  H   UNL     1      -1.615   0.327   1.500  0.00  0.00    -0.082 HD
ENDBRANCH  21  29
ENDBRANCH  20  21
ENDBRANCH   1  20
TORSDOF 7
