REMARK  Name = ZINC08909085
REMARK  11 active torsions:
REMARK  status: ('A' for Active; 'I' for Inactive)
REMARK    1  A    between atoms: C_1  and  C_2
REMARK    2  A    between atoms: C_2  and  O_3
REMARK    3  A    between atoms: O_3  and  C_4
REMARK    4  A    between atoms: C_9  and  N_10
REMARK    5  A    between atoms: C_11  and  C_13
REMARK    6  A    between atoms: C_13  and  S_14
REMARK    7  A    between atoms: S_14  and  C_15
REMARK    8  A    between atoms: C_21  and  C_23
REMARK    9  A    between atoms: N_28  and  C_30
REMARK   10  A    between atoms: C_33  and  C_37
REMARK   11  A    between atoms: C_34  and  C_36
REMARK                            x       y       z     vdW  Elec       q    Type
REMARK                         _______ _______ _______ _____ _____    ______ ____
ROOT
ATOM      1  C   UNL     1      -0.234   1.189   2.295  0.00  0.00    +0.160 A 
ATOM      2  N   UNL     1       0.862   0.447   2.223  0.00  0.00    -0.133 NA
ATOM      3  N   UNL     1       1.455   0.032   3.256  0.00  0.00    -0.125 NA
ATOM      4  C   UNL     1       1.016   0.304   4.474  0.00  0.00    +0.189 A 
ATOM      5  S   UNL     1      -0.428   1.284   4.073  0.00  0.00    -0.024 S 
ATOM      6  N   UNL     1       1.530  -0.067   5.714  0.00  0.00    -0.263 N 
ATOM      7  C   UNL     1       2.646  -0.820   5.784  0.00  0.00    +0.224 C 
ATOM      8  O   UNL     1       3.202  -1.174   4.766  0.00  0.00    -0.275 OA
ATOM      9  H   UNL     1       1.084   0.216   6.528  0.00  0.00    +0.157 HD
ENDROOT
BRANCH   7  10
ATOM     10  C   UNL     1       3.201  -1.221   7.126  0.00  0.00    +0.102 C 
ATOM     11  C   UNL     1       2.251  -2.206   7.846  0.00  0.00    +0.110 C 
ATOM     12  C   UNL     1       2.772  -3.573   7.460  0.00  0.00    +0.221 C 
ATOM     13  O   UNL     1       2.155  -4.610   7.580  0.00  0.00    -0.275 OA
ATOM     14  N   UNL     1       4.016  -3.470   6.963  0.00  0.00    -0.271 N 
ATOM     15  C   UNL     1       4.477  -2.077   6.962  0.00  0.00    +0.127 C 
BRANCH  14  16
ATOM     16  C   UNL     1       4.776  -4.553   6.507  0.00  0.00    +0.037 A 
ATOM     17  C   UNL     1       6.094  -4.362   6.113  0.00  0.00    +0.024 A 
ATOM     18  C   UNL     1       6.841  -5.433   5.662  0.00  0.00    +0.005 A 
ATOM     19  C   UNL     1       6.278  -6.695   5.604  0.00  0.00    -0.047 A 
ATOM     20  C   UNL     1       4.966  -6.888   5.996  0.00  0.00    -0.046 A 
ATOM     21  C   UNL     1       4.215  -5.822   6.452  0.00  0.00    +0.027 A 
ATOM     22  C   UNL     1       4.357  -8.265   5.931  0.00  0.00    +0.044 C 
ATOM     23  C   UNL     1       7.096  -7.861   5.113  0.00  0.00    +0.044 C 
ENDBRANCH  14  16
ENDBRANCH   7  10
BRANCH   1  24
ATOM     24  S   UNL     1      -1.221   1.879   1.009  0.00  0.00    -0.088 S 
BRANCH  24  25
ATOM     25  C   UNL     1      -0.390   1.350  -0.514  0.00  0.00    +0.172 C 
BRANCH  25  27
ATOM     26  N   UNL     1      -0.707   1.610  -2.953  0.00  0.00    -0.282 N 
ATOM     27  C   UNL     1      -1.143   1.880  -1.707  0.00  0.00    +0.228 C 
ATOM     28  O   UNL     1      -2.142   2.548  -1.546  0.00  0.00    -0.275 OA
ATOM     29  H   UNL     1       0.135   1.145  -3.083  0.00  0.00    +0.155 HD
BRANCH  26  35
ATOM     30  C   UNL     1      -0.853   2.206  -5.295  0.00  0.00    +0.142 A 
ATOM     31  C   UNL     1      -1.611   2.593  -6.388  0.00  0.00    +0.047 A 
ATOM     32  C   UNL     1      -2.975   2.777  -6.254  0.00  0.00    +0.004 A 
ATOM     33  C   UNL     1      -3.586   2.575  -5.031  0.00  0.00    +0.002 A 
ATOM     34  C   UNL     1      -2.838   2.183  -3.937  0.00  0.00    +0.027 A 
ATOM     35  C   UNL     1      -1.468   2.002  -4.062  0.00  0.00    +0.076 A 
BRANCH  30  36
ATOM     36  O   UNL     1       0.488   2.025  -5.426  0.00  0.00    -0.490 OA
BRANCH  36  38
ATOM     37  C   UNL     1       2.559   2.000  -6.672  0.00  0.00    +0.048 C 
ATOM     38  C   UNL     1       1.051   2.252  -6.720  0.00  0.00    +0.226 C 
ENDBRANCH  36  38
ENDBRANCH  30  36
ENDBRANCH  26  35
ENDBRANCH  25  27
ENDBRANCH  24  25
ENDBRANCH   1  24
TORSDOF 8
