REMARK  Name = ZINC20703999
REMARK  7 active torsions:
REMARK  status: ('A' for Active; 'I' for Inactive)
REMARK    1  A    between atoms: C_1  and  C_2
REMARK    2  A    between atoms: C_2  and  N_3
REMARK    3  A    between atoms: N_3  and  C_4
REMARK    4  A    between atoms: N_3  and  C_6
REMARK    5  A    between atoms: C_4  and  C_5
REMARK    6  A    between atoms: C_19  and  C_22
REMARK    7  A    between atoms: C_26  and  N_28
REMARK                            x       y       z     vdW  Elec       q    Type
REMARK                         _______ _______ _______ _____ _____    ______ ____
ROOT
ATOM      1  C   UNL     1       0.297   3.755   1.875  0.00  0.00    +0.030 A 
ATOM      2  C   UNL     1       1.352   3.074   2.468  0.00  0.00    +0.025 A 
ATOM      3  C   UNL     1       2.382   3.774   3.060  0.00  0.00    +0.025 A 
ATOM      4  C   UNL     1       2.368   5.163   3.080  0.00  0.00    +0.031 A 
ATOM      5  C   UNL     1       1.306   5.846   2.478  0.00  0.00    -0.018 A 
ATOM      6  C   UNL     1       0.281   5.143   1.884  0.00  0.00    +0.029 A 
ATOM      7  C   UNL     1       1.346   7.325   2.498  0.00  0.00    +0.049 C 
ATOM      8  C   UNL     1       0.107   8.143   2.456  0.00  0.00    -0.023 C 
ATOM      9  C   UNL     1       0.308   9.268   3.110  0.00  0.00    -0.030 C 
ATOM     10  C   UNL     1       1.711   9.270   3.719  0.00  0.00    +0.033 C 
ATOM     11  C   UNL     1       1.996   7.767   3.844  0.00  0.00    +0.029 C 
ATOM     12  C   UNL     1       3.447   7.329   3.755  0.00  0.00    +0.105 C 
ATOM     13  N   UNL     1       3.414   5.850   3.716  0.00  0.00    -0.336 N 
ATOM     14  H   UNL     1       4.219   5.270   4.191  0.00  0.00    +0.147 HD
ENDROOT
BRANCH  12  15
ATOM     15  C   UNL     1       4.208   7.801   4.967  0.00  0.00    -0.025 A 
ATOM     16  C   UNL     1       4.115   7.103   6.157  0.00  0.00    +0.007 A 
ATOM     17  C   UNL     1       4.813   7.535   7.268  0.00  0.00    +0.022 A 
ATOM     18  C   UNL     1       5.605   8.667   7.190  0.00  0.00    +0.071 A 
ATOM     19  C   UNL     1       5.698   9.365   6.000  0.00  0.00    +0.145 A 
ATOM     20  C   UNL     1       5.004   8.928   4.887  0.00  0.00    +0.039 A 
ATOM     21 CL   UNL     1       6.483   9.211   8.586  0.00  0.00    -0.081 Cl
BRANCH  19  22
ATOM     22  N   UNL     1       6.545  10.575   5.915  0.00  0.00    +0.058 N 
ATOM     23  O   UNL     1       6.627  11.190   4.867  0.00  0.00    -0.126 OA
ATOM     24  O   UNL     1       7.161  10.957   6.894  0.00  0.00    -0.126 OA
ENDBRANCH  19  22
ENDBRANCH  12  15
BRANCH   1  25
ATOM     25  N   UNL     1      -0.749   3.044   1.275  0.00  0.00    -0.330 N 
BRANCH  25  27
ATOM     26  C   UNL     1      -0.013   1.086   0.008  0.00  0.00    +0.024 C 
ATOM     27  C   UNL     1      -0.729   1.579   1.267  0.00  0.00    +0.102 C 
ENDBRANCH  25  27
BRANCH  25  28
ATOM     28  C   UNL     1      -1.863   3.765   0.655  0.00  0.00    +0.102 C 
ATOM     29  C   UNL     1      -2.961   3.999   1.695  0.00  0.00    +0.024 C 
ENDBRANCH  25  28
ENDBRANCH   1  25
TORSDOF 5
