REMARK  Name = ZINC09553986
REMARK  12 active torsions:
REMARK  status: ('A' for Active; 'I' for Inactive)
REMARK    1  A    between atoms: C_1  and  C_2
REMARK    2  A    between atoms: C_10  and  C_13
REMARK    3  A    between atoms: C_18  and  C_23
REMARK    4  A    between atoms: C_27  and  O_29
REMARK    5  A    between atoms: O_29  and  C_30
REMARK    6  A    between atoms: C_32  and  C_41
REMARK    7  A    between atoms: C_33  and  C_34
REMARK    8  A    between atoms: C_34  and  O_36
REMARK    9  A    between atoms: O_36  and  C_37
REMARK   10  A    between atoms: C_37  and  C_38
REMARK   11  A    between atoms: C_38  and  O_39
REMARK   12  A    between atoms: O_39  and  C_40
REMARK                            x       y       z     vdW  Elec       q    Type
REMARK                         _______ _______ _______ _____ _____    ______ ____
ROOT
ATOM      1  C   UNL     1       2.092   0.586  -3.640  0.00  0.00    +0.099 C 
ATOM      2  C   UNL     1       1.423   0.861  -2.316  0.00  0.00    +0.024 C 
ATOM      3  C   UNL     1       2.155   1.012  -1.192  0.00  0.00    +0.016 C 
ATOM      4  C   UNL     1       1.494   1.305   0.132  0.00  0.00    +0.059 C 
ATOM      5  C   UNL     1       0.105   0.664   0.166  0.00  0.00    +0.032 C 
ATOM      6  C   UNL     1      -0.716   1.220  -1.002  0.00  0.00    +0.088 C 
ATOM      7  C   UNL     1       0.021   0.958  -2.287  0.00  0.00    +0.162 C 
ATOM      8  O   UNL     1      -0.608   0.827  -3.319  0.00  0.00    -0.292 OA
ATOM      9  N   UNL     1       3.519   0.900  -1.231  0.00  0.00    -0.321 N 
ATOM     10  C   UNL     1       4.137   0.269  -2.274  0.00  0.00    +0.016 C 
ATOM     11  C   UNL     1       3.495   0.093  -3.442  0.00  0.00    +0.065 C 
ATOM     12  C   UNL     1       5.549  -0.233  -2.114  0.00  0.00    +0.061 C 
ATOM     13  H   UNL     1       4.129   1.320  -0.418  0.00  0.00    +0.152 HD
ENDROOT
BRANCH   1  23
ATOM     14  C   UNL     1       0.407   4.727  -9.707  0.00  0.00    +0.044 C 
ATOM     15  C   UNL     1       1.051   4.552  -8.356  0.00  0.00    -0.050 A 
ATOM     16  C   UNL     1       1.738   5.609  -7.777  0.00  0.00    +0.007 A 
ATOM     17  C   UNL     1       2.333   5.469  -6.541  0.00  0.00    +0.047 A 
ATOM     18  C   UNL     1       2.250   4.257  -5.865  0.00  0.00    +0.138 A 
ATOM     19  C   UNL     1       1.555   3.188  -6.453  0.00  0.00    +0.064 A 
ATOM     20  C   UNL     1       0.956   3.343  -7.703  0.00  0.00    +0.018 A 
ATOM     21  C   UNL     1       1.485   1.911  -5.718  0.00  0.00    +0.197 A 
ATOM     22  O   UNL     1       0.901   0.944  -6.178  0.00  0.00    -0.287 OA
ATOM     23  C   UNL     1       2.124   1.856  -4.451  0.00  0.00    +0.047 A 
ATOM     24  C   UNL     1       2.763   2.943  -3.981  0.00  0.00    +0.204 A 
ATOM     25  O   UNL     1       2.825   4.095  -4.656  0.00  0.00    -0.462 OA
ENDBRANCH   1  23
BRANCH   5  26
ATOM     26  C   UNL     1      -0.573   0.994   1.470  0.00  0.00    -0.040 A 
ATOM     27  C   UNL     1      -0.796   2.314   1.818  0.00  0.00    +0.004 A 
ATOM     28  C   UNL     1      -1.423   2.620   3.011  0.00  0.00    +0.004 A 
ATOM     29  C   UNL     1      -1.819   1.609   3.865  0.00  0.00    +0.045 A 
ATOM     30  C   UNL     1      -1.592   0.284   3.521  0.00  0.00    +0.120 A 
ATOM     31  C   UNL     1      -0.967  -0.021   2.320  0.00  0.00    +0.049 A 
BRANCH  30  32
ATOM     32  O   UNL     1      -1.981  -0.713   4.358  0.00  0.00    -0.495 OA
ATOM     33  C   UNL     1      -2.618  -0.325   5.577  0.00  0.00    +0.277 C 
ENDBRANCH  30  32
ENDBRANCH   5  26
BRANCH  11  34
ATOM     34  C   UNL     1       4.155  -0.568  -4.504  0.00  0.00    +0.338 C 
ATOM     35  O   UNL     1       3.849  -1.710  -4.793  0.00  0.00    -0.245 OA
BRANCH  34  36
ATOM     36  O   UNL     1       5.123   0.067  -5.196  0.00  0.00    -0.459 OA
BRANCH  36  37
ATOM     37  C   UNL     1       5.747  -0.661  -6.256  0.00  0.00    +0.260 C 
BRANCH  37  38
ATOM     38  C   UNL     1       6.811   0.215  -6.920  0.00  0.00    +0.200 C 
BRANCH  38  39
ATOM     39  O   UNL     1       7.855   0.489  -5.983  0.00  0.00    -0.380 OA
ATOM     40  C   UNL     1       8.905   1.305  -6.506  0.00  0.00    +0.194 C 
ENDBRANCH  38  39
ENDBRANCH  37  38
ENDBRANCH  36  37
ENDBRANCH  34  36
ENDBRANCH  11  34
TORSDOF 8
