REMARK  Name = ZINC63526361
REMARK  8 active torsions:
REMARK  status: ('A' for Active; 'I' for Inactive)
REMARK    1  A    between atoms: C_1  and  O_2
REMARK    2  A    between atoms: O_2  and  C_3
REMARK    3  A    between atoms: C_6  and  C_9
REMARK    4  A    between atoms: C_9  and  C_11
REMARK    5  A    between atoms: C_9  and  N_24
REMARK    6  A    between atoms: N_13  and  C_14
REMARK    7  A    between atoms: C_25  and  C_27
REMARK    8  A    between atoms: C_27  and  C_28
REMARK                            x       y       z     vdW  Elec       q    Type
REMARK                         _______ _______ _______ _____ _____    ______ ____
ROOT
ATOM      1  C   UNL     1       2.393  -2.539  -4.266  0.00  0.00    +0.190 C 
ENDROOT
BRANCH   1   5
ATOM      2  C   UNL     1       0.597  -0.142  -1.218  0.00  0.00    +0.120 A 
ATOM      3  C   UNL     1       1.276   0.462  -2.267  0.00  0.00    +0.046 A 
ATOM      4  C   UNL     1       1.856  -0.316  -3.251  0.00  0.00    +0.009 A 
ATOM      5  C   UNL     1       1.760  -1.694  -3.191  0.00  0.00    -0.018 A 
ATOM      6  C   UNL     1       1.083  -2.297  -2.147  0.00  0.00    +0.009 A 
ATOM      7  C   UNL     1       0.507  -1.525  -1.158  0.00  0.00    +0.046 A 
BRANCH   2   9
ATOM      8  C   UNL     1       0.159   2.038  -0.376  0.00  0.00    +0.277 C 
ATOM      9  O   UNL     1       0.026   0.621  -0.249  0.00  0.00    -0.495 OA
ENDBRANCH   2   9
ENDBRANCH   1   5
BRANCH   1  10
ATOM     10  C   UNL     1       1.338  -2.974  -5.250  0.00  0.00    +0.242 C 
ATOM     11  O   UNL     1       1.122  -4.155  -5.426  0.00  0.00    -0.273 OA
ATOM     12  N   UNL     1       0.633  -2.051  -5.934  0.00  0.00    -0.284 N 
ATOM     13  H   UNL     1       0.751  -1.109  -5.739  0.00  0.00    +0.155 HD
BRANCH  12  14
ATOM     14  C   UNL     1      -0.269  -2.454  -6.928  0.00  0.00    +0.037 A 
ATOM     15  C   UNL     1      -1.428  -1.722  -7.151  0.00  0.00    +0.027 A 
ATOM     16  C   UNL     1      -2.318  -2.119  -8.130  0.00  0.00    +0.051 A 
ATOM     17  C   UNL     1      -2.058  -3.248  -8.893  0.00  0.00    +0.162 A 
ATOM     18  C   UNL     1      -0.897  -3.981  -8.673  0.00  0.00    +0.164 A 
ATOM     19  C   UNL     1      -0.002  -3.580  -7.693  0.00  0.00    +0.072 A 
ATOM     20  O   UNL     1      -0.621  -5.087  -9.417  0.00  0.00    -0.485 OA
ATOM     21  C   UNL     1      -1.713  -5.668 -10.137  0.00  0.00    +0.270 C 
ATOM     22  C   UNL     1      -2.475  -4.540 -10.845  0.00  0.00    +0.270 C 
ATOM     23  O   UNL     1      -2.949  -3.626  -9.851  0.00  0.00    -0.485 OA
ENDBRANCH  12  14
ENDBRANCH   1  10
BRANCH   1  24
ATOM     24  N   UNL     1       3.010  -3.721  -3.658  0.00  0.00    -0.300 N 
ATOM     25  C   UNL     1       4.260  -3.647  -3.160  0.00  0.00    +0.218 C 
ATOM     26  O   UNL     1       4.875  -2.603  -3.216  0.00  0.00    -0.275 OA
ATOM     27  H   UNL     1       2.519  -4.556  -3.614  0.00  0.00    +0.150 HD
BRANCH  25  28
ATOM     28  C   UNL     1       4.895  -4.862  -2.534  0.00  0.00    +0.129 C 
BRANCH  28  29
ATOM     29  C   UNL     1       6.283  -4.516  -2.060  0.00  0.00    -0.033 C 
ATOM     30  C   UNL     1       6.646  -4.137  -0.814  0.00  0.00    -0.001 A 
ATOM     31  C   UNL     1       5.886  -3.941   0.426  0.00  0.00    +0.010 A 
ATOM     32  C   UNL     1       6.541  -3.548   1.542  0.00  0.00    +0.001 A 
ATOM     33  C   UNL     1       7.924  -3.324   1.544  0.00  0.00    +0.002 A 
ATOM     34  C   UNL     1       8.690  -3.483   0.444  0.00  0.00    +0.026 A 
ATOM     35  C   UNL     1       8.106  -3.894  -0.785  0.00  0.00    +0.043 A 
ATOM     36  N   UNL     1       8.626  -4.114  -1.968  0.00  0.00    -0.380 N 
ATOM     37  C   UNL     1       7.554  -4.528  -2.881  0.00  0.00    +0.145 C 
ATOM     38  H   UNL     1       9.563  -4.023  -2.201  0.00  0.00    +0.160 HD
ENDBRANCH  28  29
ENDBRANCH  25  28
ENDBRANCH   1  24
TORSDOF 7
