REMARK  Name = ZINC20757476
REMARK  6 active torsions:
REMARK  status: ('A' for Active; 'I' for Inactive)
REMARK    1  A    between atoms: C_1  and  C_2
REMARK    2  A    between atoms: C_5  and  C_11
REMARK    3  A    between atoms: C_7  and  N_8
REMARK    4  A    between atoms: C_11  and  C_25
REMARK    5  A    between atoms: N_12  and  N_13
REMARK    6  A    between atoms: C_14  and  C_16
REMARK                            x       y       z     vdW  Elec       q    Type
REMARK                         _______ _______ _______ _____ _____    ______ ____
ROOT
ATOM      1  C   UNL     1       1.208   3.561  -0.014  0.00  0.00    +0.063 C 
ATOM      2  N   UNL     1       2.303   4.205  -0.276  0.00  0.00    -0.184 NA
ATOM      3  C   UNL     1      -0.059   4.320   0.286  0.00  0.00    +0.068 C 
ENDROOT
BRANCH   1   8
ATOM      4  C   UNL     1       1.185  -2.190   0.001  0.00  0.00    +0.046 C 
ATOM      5  C   UNL     1       1.191  -0.683  -0.002  0.00  0.00    -0.020 A 
ATOM      6  C   UNL     1       0.026   0.011   0.274  0.00  0.00    +0.006 A 
ATOM      7  C   UNL     1       0.024   1.390   0.272  0.00  0.00    +0.010 A 
ATOM      8  C   UNL     1       1.202   2.087  -0.009  0.00  0.00    -0.000 A 
ATOM      9  C   UNL     1       2.374   1.380  -0.287  0.00  0.00    +0.042 A 
ATOM     10  C   UNL     1       2.361   0.000  -0.282  0.00  0.00    +0.130 A 
BRANCH  10  11
ATOM     11  N   UNL     1       3.602  -0.751  -0.577  0.00  0.00    +0.057 N 
ATOM     12  O   UNL     1       4.657  -0.156  -0.708  0.00  0.00    -0.126 OA
ATOM     13  O   UNL     1       3.569  -1.963  -0.688  0.00  0.00    -0.126 OA
ENDBRANCH  10  11
ENDBRANCH   1   8
BRANCH   2  14
ATOM     14  N   UNL     1       2.309   5.606  -0.280  0.00  0.00    -0.203 N 
ATOM     15  C   UNL     1       3.447   6.275  -0.552  0.00  0.00    +0.263 C 
ATOM     16  O   UNL     1       4.469   5.662  -0.793  0.00  0.00    -0.268 OA
ATOM     17  H   UNL     1       1.384   6.160  -0.061  0.00  0.00    +0.178 HD
BRANCH  15  18
ATOM     18  C   UNL     1       3.452   7.751  -0.556  0.00  0.00    +0.042 A 
ATOM     19  C   UNL     1       2.277   8.456  -0.284  0.00  0.00    +0.017 A 
ATOM     20  C   UNL     1       2.286   9.834  -0.283  0.00  0.00    +0.050 A 
ATOM     21  C   UNL     1       3.457  10.526  -0.563  0.00  0.00    +0.166 A 
ATOM     22  C   UNL     1       4.632   9.827  -0.841  0.00  0.00    +0.167 A 
ATOM     23  C   UNL     1       4.631   8.446  -0.838  0.00  0.00    +0.062 A 
ATOM     24  O   UNL     1       5.629  10.729  -1.080  0.00  0.00    -0.453 OA
ATOM     25  C   UNL     1       4.961  11.976  -1.348  0.00  0.00    +0.466 C 
ATOM     26  O   UNL     1       3.720  11.862  -0.627  0.00  0.00    -0.453 OA
ENDBRANCH  15  18
ENDBRANCH   2  14
TORSDOF 4
