REMARK  Name = ZINC08861223
REMARK  9 active torsions:
REMARK  status: ('A' for Active; 'I' for Inactive)
REMARK    1  A    between atoms: C_1  and  C_2
REMARK    2  A    between atoms: C_2  and  C_26
REMARK    3  A    between atoms: N_5  and  N_9
REMARK    4  A    between atoms: C_10  and  C_12
REMARK    5  A    between atoms: C_16  and  S_18
REMARK    6  A    between atoms: S_18  and  N_21
REMARK    7  A    between atoms: N_21  and  C_22
REMARK    8  A    between atoms: C_26  and  C_27
REMARK    9  A    between atoms: C_27  and  C_28
REMARK                            x       y       z     vdW  Elec       q    Type
REMARK                         _______ _______ _______ _____ _____    ______ ____
ROOT
ATOM      1  N   UNL     1      -6.059   7.490  -4.248  0.00  0.00    -0.220 N 
ATOM      2  C   UNL     1      -5.006   8.112  -4.815  0.00  0.00    +0.261 C 
ATOM      3  O   UNL     1      -3.912   8.057  -4.288  0.00  0.00    -0.269 OA
ATOM      4  H   UNL     1      -6.932   7.534  -4.669  0.00  0.00    +0.174 HD
ENDROOT
BRANCH   1   9
ATOM      5  C   UNL     1      -6.844   4.319  -0.953  0.00  0.00    +0.041 C 
ATOM      6  C   UNL     1      -5.662   5.123  -1.497  0.00  0.00    +0.112 C 
ATOM      7  C   UNL     1      -5.857   5.436  -2.967  0.00  0.00    +0.263 C 
ATOM      8  O   UNL     1      -5.959   4.643  -3.877  0.00  0.00    -0.271 OA
ATOM      9  N   UNL     1      -5.893   6.781  -3.052  0.00  0.00    -0.137 N 
ATOM     10  C   UNL     1      -5.749   7.355  -1.852  0.00  0.00    +0.326 C 
ATOM     11  O   UNL     1      -5.748   8.557  -1.674  0.00  0.00    -0.251 OA
ATOM     12  N   UNL     1      -5.605   6.453  -0.864  0.00  0.00    -0.284 N 
ATOM     13  H   UNL     1      -5.487   6.641   0.080  0.00  0.00    +0.151 HD
BRANCH   6  14
ATOM     14  C   UNL     1      -4.351   4.366  -1.277  0.00  0.00    +0.040 C 
BRANCH  14  15
ATOM     15  C   UNL     1      -4.127   4.160   0.222  0.00  0.00    +0.038 C 
BRANCH  15  16
ATOM     16  C   UNL     1      -2.835   3.413   0.439  0.00  0.00    -0.047 A 
ATOM     17  C   UNL     1      -2.834   2.032   0.479  0.00  0.00    +0.003 A 
ATOM     18  C   UNL     1      -1.650   1.348   0.683  0.00  0.00    +0.000 A 
ATOM     19  C   UNL     1      -0.466   2.045   0.837  0.00  0.00    +0.000 A 
ATOM     20  C   UNL     1      -0.467   3.426   0.792  0.00  0.00    +0.000 A 
ATOM     21  C   UNL     1      -1.652   4.111   0.593  0.00  0.00    +0.003 A 
ENDBRANCH  15  16
ENDBRANCH  14  15
ENDBRANCH   6  14
ENDBRANCH   1   9
BRANCH   2  22
ATOM     22  C   UNL     1      -5.182   8.860  -6.078  0.00  0.00    +0.040 A 
ATOM     23  C   UNL     1      -6.437   8.924  -6.686  0.00  0.00    +0.014 A 
ATOM     24  C   UNL     1      -6.595   9.624  -7.863  0.00  0.00    +0.023 A 
ATOM     25  C   UNL     1      -5.511  10.262  -8.443  0.00  0.00    +0.067 A 
ATOM     26  C   UNL     1      -4.263  10.202  -7.845  0.00  0.00    +0.124 A 
ATOM     27  C   UNL     1      -4.094   9.510  -6.664  0.00  0.00    +0.043 A 
ATOM     28 CL   UNL     1      -5.717  11.141  -9.926  0.00  0.00    -0.082 Cl
BRANCH  26  29
ATOM     29  S   UNL     1      -2.890  11.017  -8.590  0.00  0.00    +0.060 S 
ATOM     30  O   UNL     1      -3.316  12.340  -8.887  0.00  0.00    -0.153 OA
ATOM     31  O   UNL     1      -1.762  10.746  -7.770  0.00  0.00    -0.153 OA
BRANCH  29  32
ATOM     32  N   UNL     1      -2.609  10.274 -10.043  0.00  0.00    -0.187 NA
ATOM     33  H   UNL     1      -2.708  10.772 -10.870  0.00  0.00    +0.148 HD
BRANCH  32  34
ATOM     34  C   UNL     1      -2.210   8.865 -10.080  0.00  0.00    +0.077 C 
ATOM     35  C   UNL     1      -1.253   8.430 -11.192  0.00  0.00    +0.022 C 
ATOM     36  C   UNL     1      -2.725   8.015 -11.243  0.00  0.00    +0.022 C 
ENDBRANCH  32  34
ENDBRANCH  29  32
ENDBRANCH  26  29
ENDBRANCH   2  22
TORSDOF 8
