REMARK  Name = ZINC47163565
REMARK  8 active torsions:
REMARK  status: ('A' for Active; 'I' for Inactive)
REMARK    1  A    between atoms: C_1  and  C_2
REMARK    2  A    between atoms: C_3  and  C_29
REMARK    3  A    between atoms: C_4  and  N_17
REMARK    4  A    between atoms: C_14  and  C_15
REMARK    5  A    between atoms: C_29  and  C_30
REMARK    6  A    between atoms: C_30  and  C_31
REMARK    7  A    between atoms: C_31  and  C_32
REMARK    8  A    between atoms: C_31  and  C_33
REMARK                            x       y       z     vdW  Elec       q    Type
REMARK                         _______ _______ _______ _____ _____    ______ ____
ROOT
ATOM      1  C   UNL     1      -0.341   0.960   0.771  0.00  0.00    +0.045 C 
ATOM      2  C   UNL     1      -0.295  -0.517   0.472  0.00  0.00    -0.023 A 
ATOM      3  C   UNL     1      -1.459  -1.273   0.501  0.00  0.00    -0.005 A 
ATOM      4  C   UNL     1      -1.431  -2.623   0.230  0.00  0.00    +0.111 A 
ATOM      5  N   UNL     1      -0.264  -3.265  -0.077  0.00  0.00    -0.279 N 
ATOM      6  C   UNL     1       0.020  -4.585  -0.381  0.00  0.00    +0.075 A 
ATOM      7  C   UNL     1      -0.752  -5.733  -0.490  0.00  0.00    +0.028 A 
ATOM      8  C   UNL     1      -0.153  -6.931  -0.820  0.00  0.00    +0.002 A 
ATOM      9  C   UNL     1       1.215  -6.996  -1.042  0.00  0.00    +0.002 A 
ATOM     10  C   UNL     1       1.992  -5.877  -0.940  0.00  0.00    +0.030 A 
ATOM     11  C   UNL     1       1.406  -4.650  -0.607  0.00  0.00    +0.090 A 
ATOM     12  N   UNL     1       1.901  -3.401  -0.436  0.00  0.00    -0.226 NA
ATOM     13  C   UNL     1       0.922  -2.573  -0.122  0.00  0.00    +0.158 A 
ATOM     14  C   UNL     1       0.916  -1.133   0.157  0.00  0.00    +0.098 A 
ENDROOT
BRANCH   4  15
ATOM     15  N   UNL     1      -2.602  -3.340   0.268  0.00  0.00    -0.313 N 
ATOM     16  C   UNL     1      -2.949  -4.143   1.449  0.00  0.00    +0.125 C 
ATOM     17  C   UNL     1      -4.330  -3.705   1.951  0.00  0.00    +0.125 C 
ATOM     18  N   UNL     1      -5.258  -3.682   0.812  0.00  0.00    -0.314 N 
ATOM     19  C   UNL     1      -4.912  -2.878  -0.368  0.00  0.00    +0.125 C 
ATOM     20  C   UNL     1      -3.533  -3.312  -0.869  0.00  0.00    +0.125 C 
ATOM     21  C   UNL     1      -6.444  -4.407   0.851  0.00  0.00    +0.099 A 
ATOM     22  C   UNL     1      -6.822  -5.047   2.027  0.00  0.00    +0.042 A 
ATOM     23  C   UNL     1      -8.004  -5.765   2.052  0.00  0.00    +0.005 A 
ATOM     24  C   UNL     1      -8.770  -5.820   0.895  0.00  0.00    +0.018 A 
ATOM     25  C   UNL     1      -8.334  -5.162  -0.237  0.00  0.00    +0.084 A 
ATOM     26  N   UNL     1      -7.205  -4.479  -0.230  0.00  0.00    -0.350 N 
ATOM     27  H   UNL     1      -6.923  -4.022  -1.038  0.00  0.00    +0.166 HD
ENDBRANCH   4  15
BRANCH  14  28
ATOM     28  C   UNL     1       2.131  -0.376   0.114  0.00  0.00    +0.103 C 
ATOM     29  N   UNL     1       3.094   0.225   0.080  0.00  0.00    -0.191 NA
ENDBRANCH  14  28
BRANCH   3  30
ATOM     30  C   UNL     1      -2.769  -0.609   0.835  0.00  0.00    +0.039 C 
BRANCH  30  31
ATOM     31  C   UNL     1      -2.911  -0.495   2.354  0.00  0.00    +0.008 C 
BRANCH  31  32
ATOM     32  C   UNL     1      -4.223   0.217   2.692  0.00  0.00    -0.017 C 
ATOM     33  C   UNL     1      -5.401  -0.618   2.185  0.00  0.00    +0.007 C 
ATOM     34  C   UNL     1      -4.334   0.388   4.208  0.00  0.00    +0.007 C 
ENDBRANCH  31  32
ENDBRANCH  30  31
ENDBRANCH   3  30
TORSDOF 5
