REMARK  Name = ZINC60378175
REMARK  14 active torsions:
REMARK  status: ('A' for Active; 'I' for Inactive)
REMARK    1  A    between atoms: C_1  and  C_2
REMARK    2  A    between atoms: N_5  and  C_11
REMARK    3  A    between atoms: C_7  and  C_10
REMARK    4  A    between atoms: C_11  and  C_12
REMARK    5  A    between atoms: N_15  and  C_18
REMARK    6  A    between atoms: C_18  and  C_20
REMARK    7  A    between atoms: C_18  and  C_21
REMARK    8  A    between atoms: N_23  and  C_24
REMARK    9  A    between atoms: C_24  and  C_25
REMARK   10  A    between atoms: C_25  and  C_26
REMARK   11  A    between atoms: C_29  and  O_34
REMARK   12  A    between atoms: C_30  and  O_32
REMARK   13  A    between atoms: O_32  and  C_33
REMARK   14  A    between atoms: O_34  and  C_35
REMARK                            x       y       z     vdW  Elec       q    Type
REMARK                         _______ _______ _______ _____ _____    ______ ____
ROOT
ATOM      1  C   UNL     1       8.324   0.931  -3.101  0.00  0.00    +0.016 C 
ATOM      2  C   UNL     1       8.982  -0.094  -2.176  0.00  0.00    -0.004 C 
ENDROOT
BRANCH   1   6
ATOM      3  C   UNL     1       4.153   1.579  -2.517  0.00  0.00    -0.000 C 
ATOM      4  C   UNL     1       4.877   0.527  -1.672  0.00  0.00    -0.014 C 
ATOM      5  C   UNL     1       6.382   0.805  -1.702  0.00  0.00    -0.077 C 
ATOM      6  N   UNL     1       6.867   0.742  -3.085  0.00  0.00    +0.387 N 
ATOM      7  C   UNL     1       6.230   1.794  -3.886  0.00  0.00    -0.077 C 
ATOM      8  C   UNL     1       4.719   1.554  -3.940  0.00  0.00    -0.014 C 
ATOM      9  H   UNL     1       6.644  -0.161  -3.478  0.00  0.00    -0.081 HD
BRANCH   3  10
ATOM     10  C   UNL     1       2.657   1.261  -2.557  0.00  0.00    +0.088 C 
BRANCH  10  14
ATOM     11  C   UNL     1       2.388   2.457   1.514  0.00  0.00    +0.039 C 
ATOM     12  C   UNL     1       1.369   3.016   0.518  0.00  0.00    +0.130 C 
ATOM     13  C   UNL     1       1.914   2.870  -0.906  0.00  0.00    +0.115 C 
ATOM     14  N   UNL     1       2.082   1.444  -1.217  0.00  0.00    -0.297 NA
ATOM     15  C   UNL     1       0.803   0.729  -1.091  0.00  0.00    +0.115 C 
ATOM     16  C   UNL     1       0.270   0.895   0.335  0.00  0.00    +0.130 C 
ATOM     17  O   UNL     1       0.143   2.290   0.631  0.00  0.00    -0.371 OA
ATOM     18  C   UNL     1      -1.098   0.221   0.451  0.00  0.00    +0.039 C 
ENDBRANCH  10  14
ENDBRANCH   3  10
ENDBRANCH   1   6
BRANCH   1  19
ATOM     19  C   UNL     1       8.840   0.746  -4.504  0.00  0.00    +0.199 C 
ATOM     20  O   UNL     1       8.220   0.064  -5.293  0.00  0.00    -0.278 OA
ATOM     21  N   UNL     1       9.990   1.337  -4.883  0.00  0.00    -0.316 N 
ATOM     22  H   UNL     1      10.486   1.882  -4.253  0.00  0.00    +0.149 HD
BRANCH  21  23
ATOM     23  C   UNL     1      10.492   1.156  -6.248  0.00  0.00    +0.109 C 
BRANCH  23  24
ATOM     24  C   UNL     1      11.803   1.927  -6.415  0.00  0.00    +0.054 C 
BRANCH  24  25
ATOM     25  C   UNL     1      12.319   1.741  -7.819  0.00  0.00    -0.042 A 
ATOM     26  C   UNL     1      13.164   0.686  -8.110  0.00  0.00    +0.007 A 
ATOM     27  C   UNL     1      13.640   0.511  -9.396  0.00  0.00    +0.049 A 
ATOM     28  C   UNL     1      13.270   1.395 -10.397  0.00  0.00    +0.161 A 
ATOM     29  C   UNL     1      12.419   2.456 -10.105  0.00  0.00    +0.162 A 
ATOM     30  C   UNL     1      11.941   2.623  -8.815  0.00  0.00    +0.053 A 
BRANCH  29  31
ATOM     31  O   UNL     1      12.053   3.326 -11.085  0.00  0.00    -0.491 OA
ATOM     32  C   UNL     1      11.177   4.392 -10.712  0.00  0.00    +0.277 C 
ENDBRANCH  29  31
BRANCH  28  33
ATOM     33  O   UNL     1      13.737   1.224 -11.663  0.00  0.00    -0.491 OA
ATOM     34  C   UNL     1      14.607   0.113 -11.889  0.00  0.00    +0.277 C 
ENDBRANCH  28  33
ENDBRANCH  24  25
ENDBRANCH  23  24
ENDBRANCH  21  23
ENDBRANCH   1  19
TORSDOF 9
