REMARK  Name = ZINC10710781
REMARK  5 active torsions:
REMARK  status: ('A' for Active; 'I' for Inactive)
REMARK    1  A    between atoms: C_1  and  N_2
REMARK    2  A    between atoms: C_3  and  C_22
REMARK    3  A    between atoms: C_6  and  S_7
REMARK    4  A    between atoms: S_7  and  C_8
REMARK    5  A    between atoms: C_8  and  C_9
REMARK                            x       y       z     vdW  Elec       q    Type
REMARK                         _______ _______ _______ _____ _____    ______ ____
ROOT
ATOM      1  C   UNL     1      -1.315  -0.737   0.011  0.00  0.00    +0.151 C 
ENDROOT
BRANCH   1   2
ATOM      2  C   UNL     1       0.002  -0.004   0.002  0.00  0.00    +0.121 A 
ATOM      3  N   UNL     1       1.147  -0.736  -0.013  0.00  0.00    -0.310 N 
ATOM      4  H   UNL     1       1.098  -1.705  -0.017  0.00  0.00    +0.170 HD
ATOM      5  C   UNL     1       2.355  -0.125  -0.021  0.00  0.00    +0.259 A 
ATOM      6  O   UNL     1       3.388  -0.768  -0.035  0.00  0.00    -0.267 OA
ATOM      7  C   UNL     1       2.370   1.345  -0.013  0.00  0.00    +0.066 A 
ATOM      8  C   UNL     1       3.560   2.070  -0.020  0.00  0.00    +0.035 A 
ATOM      9  C   UNL     1       3.517   3.448  -0.012  0.00  0.00    +0.042 A 
ATOM     10  C   UNL     1       2.298   4.115   0.004  0.00  0.00    +0.022 A 
ATOM     11  C   UNL     1       1.111   3.417   0.011  0.00  0.00    +0.030 A 
ATOM     12  C   UNL     1       1.130   2.021   0.002  0.00  0.00    +0.078 A 
ATOM     13  N   UNL     1      -0.015   1.294   0.009  0.00  0.00    -0.233 NA
ATOM     14 CL   UNL     1       4.996   4.356  -0.021  0.00  0.00    -0.084 Cl
ENDBRANCH   1   2
BRANCH   1  15
ATOM     15  S   UNL     1      -2.672   0.461   0.031  0.00  0.00    -0.078 S 
BRANCH  15  21
ATOM     16  C   UNL     1      -5.921   1.075   0.067  0.00  0.00    +0.153 C 
ATOM     17  N   UNL     1      -5.370  -0.282   0.054  0.00  0.00    -0.305 N 
ATOM     18  C   UNL     1      -6.072  -1.467   0.054  0.00  0.00    +0.171 A 
ATOM     19  N   UNL     1      -5.187  -2.439   0.039  0.00  0.00    -0.128 NA
ATOM     20  N   UNL     1      -3.999  -1.950   0.026  0.00  0.00    -0.122 NA
ATOM     21  C   UNL     1      -4.049  -0.638   0.039  0.00  0.00    +0.192 A 
BRANCH  18  22
ATOM     22  C   UNL     1      -7.537  -1.616   0.067  0.00  0.00    +0.056 A 
ATOM     23  C   UNL     1      -8.295  -2.724  -0.213  0.00  0.00    +0.019 A 
ATOM     24  C   UNL     1      -9.666  -2.625  -0.129  0.00  0.00    +0.008 A 
ATOM     25  C   UNL     1     -10.224  -1.435   0.216  0.00  0.00    +0.046 A 
ATOM     26  S   UNL     1      -8.788  -0.400   0.445  0.00  0.00    -0.094 S 
ENDBRANCH  18  22
ENDBRANCH  15  21
ENDBRANCH   1  15
TORSDOF 4
