REMARK  Name = ZINC49334927
REMARK  3 active torsions:
REMARK  status: ('A' for Active; 'I' for Inactive)
REMARK    1  A    between atoms: C_3  and  S_6
REMARK    2  A    between atoms: S_6  and  N_9
REMARK    3  A    between atoms: N_9  and  C_10
REMARK                            x       y       z     vdW  Elec       q    Type
REMARK                         _______ _______ _______ _____ _____    ______ ____
ROOT
ATOM      1  C   UNL     1       4.486   1.072   2.453  0.00  0.00    +0.108 C 
ATOM      2  C   UNL     1       5.510   1.420   3.531  0.00  0.00    +0.025 C 
ATOM      3  C   UNL     1       5.430   0.353   4.630  0.00  0.00    +0.008 C 
ATOM      4  C   UNL     1       4.098   0.516   5.358  0.00  0.00    +0.053 C 
ATOM      5  C   UNL     1       2.956   0.565   4.376  0.00  0.00    +0.024 A 
ATOM      6  C   UNL     1       3.132   0.823   3.065  0.00  0.00    -0.009 A 
ATOM      7  C   UNL     1       2.015   0.866   2.207  0.00  0.00    +0.012 A 
ATOM      8  C   UNL     1       0.768   0.643   2.704  0.00  0.00    +0.070 A 
ATOM      9  C   UNL     1       0.620   0.371   4.074  0.00  0.00    +0.249 A 
ATOM     10  O   UNL     1      -0.489   0.165   4.542  0.00  0.00    -0.268 OA
ATOM     11  N   UNL     1       1.701   0.336   4.867  0.00  0.00    -0.326 N 
ATOM     12  H   UNL     1       1.590   0.145   5.811  0.00  0.00    +0.169 HD
ENDROOT
BRANCH   1  13
ATOM     13  N   UNL     1       4.389   2.184   1.504  0.00  0.00    -0.182 NA
ATOM     14  H   UNL     1       3.799   2.931   1.691  0.00  0.00    +0.149 HD
BRANCH  13  15
ATOM     15  S   UNL     1       5.286   2.165   0.112  0.00  0.00    +0.065 S 
ATOM     16  O   UNL     1       6.624   1.878   0.495  0.00  0.00    -0.153 OA
ATOM     17  O   UNL     1       4.935   3.336  -0.613  0.00  0.00    -0.153 OA
BRANCH  15  20
ATOM     18  C   UNL     1       3.436  -0.471  -2.359  0.00  0.00    +0.010 A 
ATOM     19  C   UNL     1       3.688   0.723  -1.709  0.00  0.00    +0.036 A 
ATOM     20  C   UNL     1       4.731   0.794  -0.846  0.00  0.00    +0.142 A 
ATOM     21  S   UNL     1       5.397  -0.860  -0.934  0.00  0.00    -0.077 S 
ATOM     22  C   UNL     1       4.240  -1.535  -2.114  0.00  0.00    +0.047 A 
ENDBRANCH  15  20
ENDBRANCH  13  15
ENDBRANCH   1  13
TORSDOF 3
