REMARK  Name = ZINC39325517
REMARK  8 active torsions:
REMARK  status: ('A' for Active; 'I' for Inactive)
REMARK    1  A    between atoms: C_1  and  O_2
REMARK    2  A    between atoms: O_2  and  C_3
REMARK    3  A    between atoms: C_8  and  C_15
REMARK    4  A    between atoms: C_15  and  N_16
REMARK    5  A    between atoms: N_16  and  C_17
REMARK    6  A    between atoms: N_16  and  S_27
REMARK    7  A    between atoms: C_17  and  C_18
REMARK    8  A    between atoms: S_27  and  C_30
REMARK                            x       y       z     vdW  Elec       q    Type
REMARK                         _______ _______ _______ _____ _____    ______ ____
ROOT
ATOM      1  N   UNL     1       1.767  -6.033  -5.660  0.00  0.00    -0.171 NA
ENDROOT
BRANCH   1   2
ATOM      2  S   UNL     1       3.142  -6.534  -6.435  0.00  0.00    +0.063 S 
ATOM      3  O   UNL     1       2.866  -7.826  -6.958  0.00  0.00    -0.153 OA
ATOM      4  O   UNL     1       3.562  -5.453  -7.257  0.00  0.00    -0.153 OA
BRANCH   2   5
ATOM      5  C   UNL     1       4.386  -6.744  -5.205  0.00  0.00    +0.124 A 
ATOM      6  C   UNL     1       4.867  -8.007  -4.917  0.00  0.00    +0.030 A 
ATOM      7  C   UNL     1       5.843  -8.172  -3.952  0.00  0.00    +0.002 A 
ATOM      8  C   UNL     1       6.339  -7.073  -3.275  0.00  0.00    +0.002 A 
ATOM      9  C   UNL     1       5.860  -5.810  -3.563  0.00  0.00    +0.022 A 
ATOM     10  C   UNL     1       4.887  -5.643  -4.533  0.00  0.00    +0.067 A 
ATOM     11 CL   UNL     1       4.289  -4.055  -4.900  0.00  0.00    -0.082 Cl
ENDBRANCH   2   5
ENDBRANCH   1   2
BRANCH   1  12
ATOM     12  C   UNL     1       1.408  -4.613  -5.649  0.00  0.00    +0.126 C 
BRANCH  12  18
ATOM     13  C   UNL     1       0.351  -0.534  -9.992  0.00  0.00    +0.122 A 
ATOM     14  C   UNL     1      -0.158   0.032  -8.814  0.00  0.00    +0.046 A 
ATOM     15  C   UNL     1      -0.311  -0.706  -7.688  0.00  0.00    +0.013 A 
ATOM     16  C   UNL     1       0.063  -2.122  -7.709  0.00  0.00    -0.007 A 
ATOM     17  C   UNL     1      -0.078  -2.895  -6.598  0.00  0.00    -0.003 C 
ATOM     18  C   UNL     1       0.333  -4.350  -6.705  0.00  0.00    +0.114 C 
ATOM     19  C   UNL     1       0.865  -4.827  -8.037  0.00  0.00    +0.225 C 
ATOM     20  O   UNL     1       1.209  -5.986  -8.178  0.00  0.00    -0.275 OA
ATOM     21  N   UNL     1       0.956  -3.981  -9.047  0.00  0.00    -0.284 N 
ATOM     22  C   UNL     1       0.596  -2.698  -8.958  0.00  0.00    +0.044 A 
ATOM     23  C   UNL     1       0.715  -1.860 -10.074  0.00  0.00    +0.069 A 
ATOM     24  H   UNL     1       1.300  -4.306  -9.894  0.00  0.00    +0.155 HD
BRANCH  13  26
ATOM     25  C   UNL     1       0.095   1.619 -10.960  0.00  0.00    +0.277 C 
ATOM     26  O   UNL     1       0.484   0.249 -11.089  0.00  0.00    -0.495 OA
ENDBRANCH  13  26
ENDBRANCH  12  18
ENDBRANCH   1  12
BRANCH   1  27
ATOM     27  C   UNL     1       0.909  -7.011  -4.986  0.00  0.00    +0.144 C 
BRANCH  27  28
ATOM     28  C   UNL     1      -0.178  -7.459  -5.927  0.00  0.00    -0.028 A 
ATOM     29  C   UNL     1      -1.378  -6.773  -5.972  0.00  0.00    +0.009 A 
ATOM     30  C   UNL     1      -2.379  -7.180  -6.834  0.00  0.00    +0.050 A 
ATOM     31  C   UNL     1      -2.182  -8.277  -7.657  0.00  0.00    +0.166 A 
ATOM     32  C   UNL     1      -0.973  -8.968  -7.612  0.00  0.00    +0.167 A 
ATOM     33  C   UNL     1       0.028  -8.551  -6.749  0.00  0.00    +0.054 A 
ATOM     34  O   UNL     1      -1.026  -9.997  -8.507  0.00  0.00    -0.453 OA
ATOM     35  C   UNL     1      -2.423 -10.178  -8.804  0.00  0.00    +0.466 C 
ATOM     36  O   UNL     1      -2.991  -8.874  -8.580  0.00  0.00    -0.453 OA
ENDBRANCH  27  28
ENDBRANCH   1  27
TORSDOF 7
