REMARK  Name = ZINC22402743
REMARK  14 active torsions:
REMARK  status: ('A' for Active; 'I' for Inactive)
REMARK    1  A    between atoms: C_1  and  C_2
REMARK    2  A    between atoms: C_2  and  C_3
REMARK    3  A    between atoms: C_2  and  C_4
REMARK    4  A    between atoms: C_4  and  C_6
REMARK    5  A    between atoms: C_4  and  N_23
REMARK    6  A    between atoms: N_8  and  C_9
REMARK    7  A    between atoms: C_9  and  C_10
REMARK    8  A    between atoms: C_10  and  C_12
REMARK    9  A    between atoms: C_10  and  N_17
REMARK   10  A    between atoms: C_24  and  C_26
REMARK   11  A    between atoms: C_28  and  O_34
REMARK   12  A    between atoms: C_30  and  O_32
REMARK   13  A    between atoms: O_32  and  C_33
REMARK   14  A    between atoms: O_34  and  C_35
REMARK                            x       y       z     vdW  Elec       q    Type
REMARK                         _______ _______ _______ _____ _____    ______ ____
ROOT
ATOM      1  C   UNL     1      -2.166   4.037   1.757  0.00  0.00    +0.162 C 
ENDROOT
BRANCH   1   2
ATOM      2  C   UNL     1      -2.136   5.522   2.012  0.00  0.00    +0.234 C 
ATOM      3  O   UNL     1      -1.081   6.077   2.238  0.00  0.00    -0.274 OA
ATOM      4  N   UNL     1      -3.280   6.233   1.989  0.00  0.00    -0.315 N 
ATOM      5  H   UNL     1      -4.245   5.719   1.863  0.00  0.00    +0.149 HD
BRANCH   4   6
ATOM      6  C   UNL     1      -3.240   7.690   2.133  0.00  0.00    +0.096 C 
BRANCH   6   7
ATOM      7  C   UNL     1      -4.648   8.260   1.951  0.00  0.00    +0.016 C 
BRANCH   7   8
ATOM      8  N   UNL     1      -5.567   7.606   2.892  0.00  0.00    +0.387 N 
ATOM      9  C   UNL     1      -6.955   8.019   2.647  0.00  0.00    -0.078 C 
ATOM     10  C   UNL     1      -7.895   7.213   3.545  0.00  0.00    -0.019 C 
ATOM     11  C   UNL     1      -7.523   7.453   5.011  0.00  0.00    -0.004 C 
ATOM     12  C   UNL     1      -6.059   7.060   5.229  0.00  0.00    -0.019 C 
ATOM     13  C   UNL     1      -5.172   7.871   4.282  0.00  0.00    -0.078 C 
ATOM     14  H   UNL     1      -5.506   6.520   2.728  0.00  0.00    -0.081 HD
ENDBRANCH   7   8
BRANCH   7  15
ATOM     15  C   UNL     1      -4.629   9.743   2.216  0.00  0.00    +0.093 A 
ATOM     16  C   UNL     1      -4.880  10.707   1.312  0.00  0.00    +0.043 A 
ATOM     17  C   UNL     1      -4.752  11.944   1.986  0.00  0.00    +0.041 A 
ATOM     18  C   UNL     1      -4.430  11.661   3.261  0.00  0.00    +0.195 A 
ATOM     19  O   UNL     1      -4.363  10.327   3.396  0.00  0.00    -0.469 OA
ENDBRANCH   7  15
ENDBRANCH   6   7
ENDBRANCH   4   6
ENDBRANCH   1   2
BRANCH   1  20
ATOM     20  N   UNL     1      -0.943   3.426   2.283  0.00  0.00    -0.300 N 
ATOM     21  C   UNL     1      -0.937   2.125   2.635  0.00  0.00    +0.245 C 
ATOM     22  O   UNL     1      -1.947   1.459   2.517  0.00  0.00    -0.270 OA
ATOM     23  H   UNL     1      -0.029   4.029   2.390  0.00  0.00    +0.150 HD
BRANCH  21  24
ATOM     24  C   UNL     1       0.297   1.508   3.166  0.00  0.00    +0.044 A 
ATOM     25  C   UNL     1       1.459   2.269   3.297  0.00  0.00    +0.059 A 
ATOM     26  C   UNL     1       2.615   1.687   3.791  0.00  0.00    +0.124 A 
ATOM     27  C   UNL     1       2.618   0.347   4.152  0.00  0.00    +0.091 A 
ATOM     28  C   UNL     1       1.466  -0.414   4.023  0.00  0.00    +0.124 A 
ATOM     29  C   UNL     1       0.305   0.162   3.532  0.00  0.00    +0.059 A 
BRANCH  28  30
ATOM     30  O   UNL     1       1.474  -1.725   4.379  0.00  0.00    -0.495 OA
ATOM     31  C   UNL     1       2.705  -2.253   4.878  0.00  0.00    +0.277 C 
ENDBRANCH  28  30
BRANCH  26  32
ATOM     32  O   UNL     1       3.746   2.428   3.920  0.00  0.00    -0.495 OA
ATOM     33  C   UNL     1       4.902   1.763   4.435  0.00  0.00    +0.277 C 
ENDBRANCH  26  32
ENDBRANCH  21  24
ENDBRANCH   1  20
BRANCH   1  35
ATOM     34  C   UNL     1      -2.392   2.277  -0.002  0.00  0.00    +0.009 C 
ATOM     35  C   UNL     1      -2.258   3.780   0.252  0.00  0.00    +0.012 C 
ATOM     36  C   UNL     1      -3.481   4.503  -0.316  0.00  0.00    +0.009 C 
ENDBRANCH   1  35
TORSDOF 10
