REMARK  Name = ZINC39888583
REMARK  9 active torsions:
REMARK  status: ('A' for Active; 'I' for Inactive)
REMARK    1  A    between atoms: C_1  and  N_2
REMARK    2  A    between atoms: C_3  and  C_25
REMARK    3  A    between atoms: C_5  and  C_17
REMARK    4  A    between atoms: C_7  and  C_12
REMARK    5  A    between atoms: C_7  and  O_16
REMARK    6  A    between atoms: N_8  and  C_11
REMARK    7  A    between atoms: C_17  and  C_19
REMARK    8  A    between atoms: C_28  and  O_34
REMARK    9  A    between atoms: C_29  and  N_31
REMARK                            x       y       z     vdW  Elec       q    Type
REMARK                         _______ _______ _______ _____ _____    ______ ____
ROOT
ATOM      1  C   UNL     1      -2.945   1.136  -0.629  0.00  0.00    +0.134 C 
ATOM      2  N   UNL     1      -1.875   0.182  -0.329  0.00  0.00    -0.281 N 
ATOM      3  C   UNL     1      -2.115  -1.249  -0.521  0.00  0.00    +0.123 C 
ATOM      4  C   UNL     1      -0.789  -1.940  -0.859  0.00  0.00    +0.144 C 
ATOM      5  C   UNL     1       0.220  -1.628   0.251  0.00  0.00    +0.245 C 
ATOM      6  N   UNL     1       0.334  -0.176   0.402  0.00  0.00    -0.252 N 
ATOM      7  C   UNL     1      -0.692   0.638   0.112  0.00  0.00    +0.307 C 
ATOM      8  O   UNL     1      -0.547   1.836   0.261  0.00  0.00    -0.252 OA
ATOM      9  C   UNL     1       1.596   0.400   0.873  0.00  0.00    +0.137 C 
ENDROOT
BRANCH   3  10
ATOM     10  C   UNL     1      -3.090  -1.448  -1.653  0.00  0.00    -0.024 A 
ATOM     11  C   UNL     1      -2.896  -0.792  -2.855  0.00  0.00    +0.009 A 
ATOM     12  C   UNL     1      -3.789  -0.973  -3.893  0.00  0.00    +0.048 A 
ATOM     13  C   UNL     1      -4.881  -1.813  -3.729  0.00  0.00    +0.147 A 
ATOM     14  C   UNL     1      -5.073  -2.470  -2.523  0.00  0.00    +0.168 A 
ATOM     15  C   UNL     1      -4.175  -2.290  -1.489  0.00  0.00    +0.042 A 
BRANCH  14  16
ATOM     16  N   UNL     1      -6.237  -3.367  -2.345  0.00  0.00    +0.060 N 
ATOM     17  O   UNL     1      -6.404  -3.939  -1.293  0.00  0.00    -0.126 OA
ATOM     18  O   UNL     1      -7.021  -3.527  -3.251  0.00  0.00    -0.126 OA
ENDBRANCH  14  16
BRANCH  13  19
ATOM     19  O   UNL     1      -5.761  -1.992  -4.750  0.00  0.00    -0.504 OA
ATOM     20  H   UNL     1      -5.536  -2.725  -5.339  0.00  0.00    +0.292 HD
ENDBRANCH  13  19
ENDBRANCH   3  10
BRANCH   5  21
ATOM     21  C   UNL     1      -0.260  -2.243   1.567  0.00  0.00    +0.436 C 
ATOM     22  F   UNL     1      -0.375  -3.629   1.419  0.00  0.00    -0.166 F 
ATOM     23  F   UNL     1       0.663  -1.957   2.579  0.00  0.00    -0.166 F 
ATOM     24  F   UNL     1      -1.506  -1.705   1.906  0.00  0.00    -0.166 F 
ENDBRANCH   5  21
BRANCH   5  25
ATOM     25  O   UNL     1       1.495  -2.173  -0.096  0.00  0.00    -0.364 OA
ATOM     26  H   UNL     1       2.184  -2.012   0.563  0.00  0.00    +0.212 HD
ENDBRANCH   5  25
BRANCH   4  27
ATOM     27  C   UNL     1      -0.272  -1.427  -2.178  0.00  0.00    +0.173 C 
ATOM     28  O   UNL     1       0.315  -0.367  -2.228  0.00  0.00    -0.292 OA
BRANCH  27  29
ATOM     29  C   UNL     1      -0.481  -2.212  -3.406  0.00  0.00    +0.018 A 
ATOM     30  C   UNL     1      -1.163  -3.431  -3.353  0.00  0.00    +0.011 A 
ATOM     31  C   UNL     1      -1.354  -4.160  -4.508  0.00  0.00    +0.001 A 
ATOM     32  C   UNL     1      -0.873  -3.688  -5.716  0.00  0.00    +0.000 A 
ATOM     33  C   UNL     1      -0.197  -2.482  -5.777  0.00  0.00    +0.001 A 
ATOM     34  C   UNL     1      -0.002  -1.739  -4.632  0.00  0.00    +0.011 A 
ENDBRANCH  27  29
ENDBRANCH   4  27
TORSDOF 7
