REMARK  Name = ZINC36802940
REMARK  10 active torsions:
REMARK  status: ('A' for Active; 'I' for Inactive)
REMARK    1  A    between atoms: C_1  and  C_2
REMARK    2  A    between atoms: C_5  and  C_8
REMARK    3  A    between atoms: C_8  and  C_37
REMARK    4  A    between atoms: N_11  and  C_15
REMARK    5  A    between atoms: C_15  and  C_16
REMARK    6  A    between atoms: C_16  and  C_18
REMARK    7  A    between atoms: C_20  and  C_36
REMARK    8  A    between atoms: N_21  and  C_24
REMARK    9  A    between atoms: C_22  and  C_23
REMARK   10  A    between atoms: C_24  and  C_25
REMARK                            x       y       z     vdW  Elec       q    Type
REMARK                         _______ _______ _______ _____ _____    ______ ____
ROOT
ATOM      1  C   UNL     1      -3.917  -5.345   1.650  0.00  0.00    +0.183 C 
ATOM      2  O   UNL     1      -3.906  -4.209   1.224  0.00  0.00    -0.290 OA
ENDROOT
BRANCH   1   3
ATOM      3  C   UNL     1      -5.067  -5.830   2.415  0.00  0.00    +0.040 A 
ATOM      4  C   UNL     1      -5.241  -7.164   3.004  0.00  0.00    +0.034 A 
ATOM      5  C   UNL     1      -6.440  -7.157   3.609  0.00  0.00    +0.017 A 
ATOM      6  N   UNL     1      -7.019  -5.933   3.443  0.00  0.00    -0.344 N 
ATOM      7  C   UNL     1      -6.211  -5.123   2.736  0.00  0.00    +0.027 A 
ATOM      8  C   UNL     1      -6.503  -3.694   2.357  0.00  0.00    +0.064 C 
ATOM      9  C   UNL     1      -7.050  -8.318   4.353  0.00  0.00    +0.063 C 
BRANCH   6  10
ATOM     10  C   UNL     1      -8.334  -5.552   3.966  0.00  0.00    +0.169 C 
BRANCH  10  11
ATOM     11  C   UNL     1      -8.174  -4.960   5.367  0.00  0.00    +0.230 C 
ATOM     12  C   UNL     1      -9.555  -4.662   5.964  0.00  0.00    +0.275 C 
ATOM     13  O   UNL     1      -9.368  -4.098   7.267  0.00  0.00    -0.485 OA
ATOM     14  C   UNL     1      -8.433  -3.115   7.379  0.00  0.00    +0.162 A 
ATOM     15  C   UNL     1      -8.447  -2.286   8.491  0.00  0.00    +0.049 A 
ATOM     16  C   UNL     1      -7.503  -1.286   8.621  0.00  0.00    +0.004 A 
ATOM     17  C   UNL     1      -6.540  -1.110   7.644  0.00  0.00    +0.004 A 
ATOM     18  C   UNL     1      -6.522  -1.931   6.533  0.00  0.00    +0.049 A 
ATOM     19  C   UNL     1      -7.468  -2.936   6.396  0.00  0.00    +0.163 A 
ATOM     20  O   UNL     1      -7.441  -3.732   5.292  0.00  0.00    -0.480 OA
ENDBRANCH  10  11
ENDBRANCH   6  10
ENDBRANCH   1   3
BRANCH   1  21
ATOM     21  C   UNL     1      -2.746  -6.258   1.391  0.00  0.00    +0.197 C 
BRANCH  21  25
ATOM     22  C   UNL     1       0.059  -4.275  -0.021  0.00  0.00    +0.135 C 
ATOM     23  C   UNL     1      -0.728  -4.825   1.151  0.00  0.00    +0.251 C 
ATOM     24  O   UNL     1      -0.502  -4.654   2.330  0.00  0.00    -0.272 OA
ATOM     25  N   UNL     1      -1.732  -5.543   0.611  0.00  0.00    -0.216 N 
ATOM     26  C   UNL     1      -1.689  -5.524  -0.726  0.00  0.00    +0.310 C 
ATOM     27  O   UNL     1      -2.490  -6.100  -1.437  0.00  0.00    -0.252 OA
ATOM     28  N   UNL     1      -0.660  -4.796  -1.197  0.00  0.00    -0.281 N 
ATOM     29  C   UNL     1       1.499  -4.794   0.002  0.00  0.00    +0.047 C 
ATOM     30  H   UNL     1      -0.435  -4.644  -2.128  0.00  0.00    +0.152 HD
BRANCH  22  35
ATOM     31  C   UNL     1      -0.018   1.503   0.010  0.00  0.00    +0.044 C 
ATOM     32  C   UNL     1       0.002  -0.004   0.002  0.00  0.00    -0.050 A 
ATOM     33  C   UNL     1       0.006  -0.689  -1.199  0.00  0.00    +0.004 A 
ATOM     34  C   UNL     1       0.025  -2.071  -1.206  0.00  0.00    +0.006 A 
ATOM     35  C   UNL     1       0.040  -2.768  -0.013  0.00  0.00    -0.015 A 
ATOM     36  C   UNL     1       0.037  -2.084   1.188  0.00  0.00    +0.006 A 
ATOM     37  C   UNL     1       0.023  -0.702   1.195  0.00  0.00    +0.004 A 
ENDBRANCH  22  35
ENDBRANCH  21  25
ENDBRANCH   1  21
TORSDOF 6
