REMARK  Name = ZINC42665866
REMARK  3 active torsions:
REMARK  status: ('A' for Active; 'I' for Inactive)
REMARK    1  A    between atoms: N_4  and  S_7
REMARK    2  A    between atoms: S_7  and  N_10
REMARK    3  A    between atoms: N_10  and  C_11
REMARK                            x       y       z     vdW  Elec       q    Type
REMARK                         _______ _______ _______ _____ _____    ______ ____
ROOT
ATOM      1  S   UNL     1       3.402  -0.819   1.496  0.00  0.00    +0.097 S 
ATOM      2  O   UNL     1       3.075  -2.106   0.989  0.00  0.00    -0.141 OA
ATOM      3  O   UNL     1       4.484  -0.052   0.987  0.00  0.00    -0.141 OA
ENDROOT
BRANCH   1   7
ATOM      4  C   UNL     1      -0.019   1.526   0.010  0.00  0.00    +0.003 C 
ATOM      5  C   UNL     1       1.417   2.058  -0.000  0.00  0.00    +0.017 C 
ATOM      6  C   UNL     1       2.144   1.577   1.259  0.00  0.00    +0.110 C 
ATOM      7  N   UNL     1       2.043   0.113   1.334  0.00  0.00    -0.167 NA
ATOM      8  C   UNL     1       0.714  -0.508   1.262  0.00  0.00    +0.110 C 
ATOM      9  C   UNL     1       0.002  -0.004   0.002  0.00  0.00    +0.017 C 
ENDBRANCH   1   7
BRANCH   1  10
ATOM     10  N   UNL     1       3.677  -1.005   3.119  0.00  0.00    -0.177 NA
ATOM     11  H   UNL     1       4.475  -0.629   3.522  0.00  0.00    +0.149 HD
BRANCH  10  12
ATOM     12  C   UNL     1       2.715  -1.739   3.945  0.00  0.00    +0.078 C 
ATOM     13  C   UNL     1       3.189  -3.194   4.142  0.00  0.00    +0.020 C 
ATOM     14  C   UNL     1       3.930  -3.171   5.502  0.00  0.00    +0.002 C 
ATOM     15  C   UNL     1       3.065  -2.203   6.346  0.00  0.00    +0.002 C 
ATOM     16  C   UNL     1       2.636  -1.109   5.347  0.00  0.00    +0.020 C 
ENDBRANCH  10  12
ENDBRANCH   1  10
TORSDOF 3
