REMARK  Name = ZINC55494809
REMARK  4 active torsions:
REMARK  status: ('A' for Active; 'I' for Inactive)
REMARK    1  A    between atoms: C_1  and  C_2
REMARK    2  A    between atoms: C_5  and  C_8
REMARK    3  A    between atoms: C_17  and  C_19
REMARK    4  A    between atoms: C_19  and  C_20
REMARK                            x       y       z     vdW  Elec       q    Type
REMARK                         _______ _______ _______ _____ _____    ______ ____
ROOT
ATOM      1  C   UNL     1       0.060  -4.255  -0.021  0.00  0.00    +0.004 A 
ATOM      2  C   UNL     1      -0.825  -4.953  -0.774  0.00  0.00    +0.056 A 
ATOM      3  S   UNL     1      -0.397  -6.651  -0.444  0.00  0.00    -0.076 S 
ATOM      4  C   UNL     1       0.945  -6.388   0.686  0.00  0.00    +0.116 A 
ATOM      5  C   UNL     1       1.035  -4.989   0.776  0.00  0.00    +0.080 A 
ATOM      6  C   UNL     1       2.062  -4.488   1.637  0.00  0.00    +0.260 A 
ATOM      7  O   UNL     1       2.215  -3.288   1.785  0.00  0.00    -0.267 OA
ATOM      8  N   UNL     1       2.856  -5.362   2.283  0.00  0.00    -0.310 N 
ATOM      9  H   UNL     1       3.554  -5.028   2.868  0.00  0.00    +0.170 HD
ATOM     10  C   UNL     1       2.700  -6.702   2.131  0.00  0.00    +0.118 A 
ATOM     11  N   UNL     1       1.765  -7.190   1.360  0.00  0.00    -0.226 NA
ENDROOT
BRANCH   1  16
ATOM     12  C   UNL     1      -0.018   1.503   0.010  0.00  0.00    +0.044 C 
ATOM     13  C   UNL     1       0.002  -0.004   0.002  0.00  0.00    -0.050 A 
ATOM     14  C   UNL     1       0.006  -0.686  -1.201  0.00  0.00    +0.004 A 
ATOM     15  C   UNL     1       0.024  -2.066  -1.215  0.00  0.00    +0.009 A 
ATOM     16  C   UNL     1       0.040  -2.772  -0.013  0.00  0.00    -0.017 A 
ATOM     17  C   UNL     1       0.037  -2.079   1.196  0.00  0.00    +0.009 A 
ATOM     18  C   UNL     1       0.023  -0.699   1.198  0.00  0.00    +0.004 A 
ENDBRANCH   1  16
BRANCH  10  19
ATOM     19  C   UNL     1       3.612  -7.643   2.874  0.00  0.00    +0.150 C 
BRANCH  19  20
ATOM     20  C   UNL     1       3.243  -9.067   2.545  0.00  0.00    +0.141 A 
ATOM     21  N   UNL     1       2.376  -9.811   3.180  0.00  0.00    -0.134 NA
ATOM     22  N   UNL     1       2.306 -10.968   2.621  0.00  0.00    -0.134 NA
ATOM     23  C   UNL     1       3.120 -11.012   1.605  0.00  0.00    +0.133 A 
ATOM     24  N   UNL     1       3.741  -9.811   1.533  0.00  0.00    -0.314 N 
ATOM     25  C   UNL     1       4.759  -9.414   0.560  0.00  0.00    +0.125 C 
ATOM     26  C   UNL     1       4.553 -10.197  -0.740  0.00  0.00    +0.022 C 
ATOM     27  C   UNL     1       5.338 -11.507  -0.682  0.00  0.00    +0.002 C 
ATOM     28  C   UNL     1       4.840 -12.378   0.468  0.00  0.00    +0.008 C 
ATOM     29  C   UNL     1       3.341 -12.167   0.663  0.00  0.00    +0.076 C 
ENDBRANCH  19  20
ENDBRANCH  10  19
TORSDOF 3
