REMARK  Name = ZINC50453575
REMARK  5 active torsions:
REMARK  status: ('A' for Active; 'I' for Inactive)
REMARK    1  A    between atoms: C_1  and  C_2
REMARK    2  A    between atoms: C_2  and  N_3
REMARK    3  A    between atoms: N_3  and  C_4
REMARK    4  A    between atoms: C_9  and  N_10
REMARK    5  A    between atoms: C_11  and  C_13
REMARK                            x       y       z     vdW  Elec       q    Type
REMARK                         _______ _______ _______ _____ _____    ______ ____
ROOT
ATOM      1  N   UNL     1       0.688  -0.474  -1.204  0.00  0.00    -0.263 N 
ATOM      2  C   UNL     1      -0.025  -0.801  -2.300  0.00  0.00    +0.286 C 
ATOM      3  O   UNL     1      -1.227  -0.618  -2.321  0.00  0.00    -0.266 OA
ENDROOT
BRANCH   2   4
ATOM      4  C   UNL     1       0.651  -1.378  -3.471  0.00  0.00    +0.191 A 
ATOM      5  C   UNL     1       0.057  -1.648  -4.662  0.00  0.00    +0.063 A 
ATOM      6  C   UNL     1       1.102  -2.207  -5.519  0.00  0.00    +0.021 A 
ATOM      7  C   UNL     1       1.135  -2.675  -6.834  0.00  0.00    +0.011 A 
ATOM      8  C   UNL     1       2.307  -3.148  -7.355  0.00  0.00    +0.001 A 
ATOM      9  C   UNL     1       3.462  -3.166  -6.586  0.00  0.00    +0.004 A 
ATOM     10  C   UNL     1       3.450  -2.708  -5.286  0.00  0.00    +0.047 A 
ATOM     11  C   UNL     1       2.270  -2.222  -4.734  0.00  0.00    +0.136 A 
ATOM     12  O   UNL     1       1.956  -1.715  -3.526  0.00  0.00    -0.450 OA
ENDBRANCH   2   4
BRANCH   1  13
ATOM     13  C   UNL     1       2.084  -0.582  -1.219  0.00  0.00    +0.057 A 
ATOM     14  C   UNL     1       2.694  -1.769  -0.840  0.00  0.00    +0.025 A 
ATOM     15  C   UNL     1       4.072  -1.873  -0.855  0.00  0.00    +0.002 A 
ATOM     16  C   UNL     1       4.847  -0.797  -1.247  0.00  0.00    +0.002 A 
ATOM     17  C   UNL     1       4.249   0.389  -1.626  0.00  0.00    +0.024 A 
ATOM     18  C   UNL     1       2.866   0.501  -1.620  0.00  0.00    +0.046 A 
BRANCH  18  19
ATOM     19  N   UNL     1       2.258   1.699  -2.010  0.00  0.00    -0.357 N 
ATOM     20  H   UNL     1       1.291   1.778  -2.001  0.00  0.00    +0.142 HD
ATOM     21  H   UNL     1       2.803   2.452  -2.289  0.00  0.00    +0.142 HD
ENDBRANCH  18  19
ENDBRANCH   1  13
BRANCH   1  23
ATOM     22  C   UNL     1      -0.036   1.525   0.005  0.00  0.00    +0.025 C 
ATOM     23  C   UNL     1       0.003  -0.005   0.002  0.00  0.00    +0.111 C 
ENDBRANCH   1  23
TORSDOF 4
