REMARK  Name = ZINC59888159
REMARK  14 active torsions:
REMARK  status: ('A' for Active; 'I' for Inactive)
REMARK    1  A    between atoms: C_1  and  C_2
REMARK    2  A    between atoms: C_3  and  C_11
REMARK    3  A    between atoms: C_4  and  C_10
REMARK    4  A    between atoms: N_5  and  C_7
REMARK    5  A    between atoms: C_7  and  C_8
REMARK    6  A    between atoms: C_8  and  O_9
REMARK    7  A    between atoms: N_12  and  N_13
REMARK    8  A    between atoms: C_16  and  S_19
REMARK    9  A    between atoms: S_19  and  C_20
REMARK   10  A    between atoms: C_20  and  C_21
REMARK   11  A    between atoms: C_21  and  C_22
REMARK   12  A    between atoms: N_24  and  C_25
REMARK   13  A    between atoms: C_25  and  C_26
REMARK   14  A    between atoms: C_25  and  C_32
REMARK                            x       y       z     vdW  Elec       q    Type
REMARK                         _______ _______ _______ _____ _____    ______ ____
ROOT
ATOM      1  N   UNL     1      -0.034   1.333  -4.151  0.00  0.00    -0.205 N 
ATOM      2  C   UNL     1      -0.053   2.685  -4.438  0.00  0.00    +0.232 A 
ATOM      3  N   UNL     1      -0.057   3.663  -3.556  0.00  0.00    -0.186 NA
ATOM      4  C   UNL     1      -0.076   4.840  -4.191  0.00  0.00    +0.210 A 
ATOM      5  N   UNL     1      -0.086   4.626  -5.485  0.00  0.00    -0.144 NA
ATOM      6  N   UNL     1      -0.067   3.235  -5.671  0.00  0.00    -0.245 N 
ATOM      7  H   UNL     1      -0.029   0.684  -4.872  0.00  0.00    +0.177 HD
ATOM      8  H   UNL     1      -0.065   2.761  -6.517  0.00  0.00    +0.192 HD
ENDROOT
BRANCH   1  10
ATOM      9  C   UNL     1      -0.004  -0.369  -2.549  0.00  0.00    +0.141 C 
ATOM     10  N   UNL     1      -0.022   0.899  -2.818  0.00  0.00    -0.187 NA
BRANCH   9  13
ATOM     11  C   UNL     1      -0.018   1.503   0.010  0.00  0.00    +0.068 C 
ATOM     12  C   UNL     1       0.002  -0.004   0.002  0.00  0.00    +0.069 A 
ATOM     13  C   UNL     1       0.008  -0.826  -1.145  0.00  0.00    +0.038 A 
ATOM     14  C   UNL     1       0.028  -2.134  -0.712  0.00  0.00    +0.045 A 
ATOM     15  N   UNL     1       0.034  -2.111   0.636  0.00  0.00    -0.266 N 
ATOM     16  N   UNL     1       0.023  -0.776   1.055  0.00  0.00    -0.176 NA
ATOM     17  C   UNL     1       0.041  -3.363  -1.584  0.00  0.00    +0.066 C 
BRANCH  15  18
ATOM     18  C   UNL     1       0.053  -3.285   1.513  0.00  0.00    +0.171 C 
BRANCH  18  19
ATOM     19  C   UNL     1       1.503  -3.674   1.812  0.00  0.00    +0.179 C 
BRANCH  19  20
ATOM     20  O   UNL     1       1.522  -4.818   2.667  0.00  0.00    -0.393 OA
ATOM     21  H   UNL     1       2.411  -5.121   2.899  0.00  0.00    +0.209 HD
ENDBRANCH  19  20
ENDBRANCH  18  19
ENDBRANCH  15  18
ENDBRANCH   9  13
ENDBRANCH   1  10
BRANCH   4  22
ATOM     22  S   UNL     1      -0.088   6.422  -3.415  0.00  0.00    -0.084 S 
BRANCH  22  23
ATOM     23  C   UNL     1      -0.115   7.591  -4.801  0.00  0.00    +0.086 C 
BRANCH  23  24
ATOM     24  C   UNL     1      -0.127   9.023  -4.261  0.00  0.00    +0.107 C 
BRANCH  24  25
ATOM     25  C   UNL     1      -0.149   9.994  -5.413  0.00  0.00    +0.215 C 
ATOM     26  O   UNL     1      -0.154   9.582  -6.554  0.00  0.00    -0.276 OA
ATOM     27  N   UNL     1      -0.162  11.320  -5.176  0.00  0.00    -0.304 N 
ATOM     28  H   UNL     1      -0.158  11.650  -4.264  0.00  0.00    +0.150 HD
BRANCH  27  29
ATOM     29  C   UNL     1      -0.183  12.265  -6.296  0.00  0.00    +0.134 C 
BRANCH  29  30
ATOM     30  C   UNL     1      -1.606  12.477  -6.747  0.00  0.00    -0.023 A 
ATOM     31  C   UNL     1      -2.619  12.584  -5.813  0.00  0.00    +0.006 A 
ATOM     32  C   UNL     1      -3.923  12.779  -6.226  0.00  0.00    +0.000 A 
ATOM     33  C   UNL     1      -4.215  12.867  -7.575  0.00  0.00    +0.000 A 
ATOM     34  C   UNL     1      -3.201  12.761  -8.509  0.00  0.00    +0.000 A 
ATOM     35  C   UNL     1      -1.896  12.570  -8.095  0.00  0.00    +0.006 A 
ENDBRANCH  29  30
BRANCH  29  36
ATOM     36  C   UNL     1       0.405  13.580  -5.855  0.00  0.00    -0.023 A 
ATOM     37  C   UNL     1       0.122  14.077  -4.597  0.00  0.00    +0.006 A 
ATOM     38  C   UNL     1       0.662  15.284  -4.192  0.00  0.00    +0.000 A 
ATOM     39  C   UNL     1       1.486  15.993  -5.046  0.00  0.00    +0.000 A 
ATOM     40  C   UNL     1       1.770  15.496  -6.305  0.00  0.00    +0.000 A 
ATOM     41  C   UNL     1       1.233  14.287  -6.707  0.00  0.00    +0.006 A 
ENDBRANCH  29  36
ENDBRANCH  27  29
ENDBRANCH  24  25
ENDBRANCH  23  24
ENDBRANCH  22  23
ENDBRANCH   4  22
TORSDOF 12
