REMARK  Name = ZINC44714660
REMARK  7 active torsions:
REMARK  status: ('A' for Active; 'I' for Inactive)
REMARK    1  A    between atoms: C_1  and  C_2
REMARK    2  A    between atoms: C_3  and  C_14
REMARK    3  A    between atoms: C_6  and  C_12
REMARK    4  A    between atoms: C_14  and  C_15
REMARK    5  A    between atoms: C_15  and  N_16
REMARK    6  A    between atoms: C_17  and  C_19
REMARK    7  A    between atoms: C_30  and  C_32
REMARK                            x       y       z     vdW  Elec       q    Type
REMARK                         _______ _______ _______ _____ _____    ______ ____
ROOT
ATOM      1  C   UNL     1       2.556   1.088  -6.467  0.00  0.00    +0.100 C 
ATOM      2  C   UNL     1       1.775   2.415  -6.591  0.00  0.00    +0.121 C 
ATOM      3  N   UNL     1       2.812   3.470  -6.496  0.00  0.00    -0.295 N 
ATOM      4  C   UNL     1       3.958   2.930  -7.264  0.00  0.00    +0.115 C 
ATOM      5  C   UNL     1       3.987   1.429  -6.913  0.00  0.00    -0.004 C 
ATOM      6  C   UNL     1       4.368   0.607  -8.141  0.00  0.00    -0.010 C 
ATOM      7  C   UNL     1       5.816   0.920  -8.530  0.00  0.00    -0.082 C 
ATOM      8  N   UNL     1       6.706   0.602  -7.408  0.00  0.00    +0.379 N 
ATOM      9  C   UNL     1       6.394   1.463  -6.261  0.00  0.00    -0.082 C 
ATOM     10  C   UNL     1       4.971   1.172  -5.775  0.00  0.00    -0.010 C 
ATOM     11  C   UNL     1       2.730   4.653  -5.856  0.00  0.00    +0.265 C 
ATOM     12  O   UNL     1       1.753   4.913  -5.182  0.00  0.00    -0.268 OA
ATOM     13  H   UNL     1       6.582  -0.365  -7.145  0.00  0.00    -0.086 HD
ATOM     14  H   UNL     1       7.664   0.751  -7.688  0.00  0.00    -0.086 HD
ENDROOT
BRANCH  11  15
ATOM     15  C   UNL     1       3.833   5.637  -5.973  0.00  0.00    +0.126 A 
ATOM     16  C   UNL     1       3.787   6.812  -5.209  0.00  0.00    +0.033 A 
ATOM     17  C   UNL     1       4.796   7.726  -5.308  0.00  0.00    +0.012 A 
ATOM     18  C   UNL     1       5.860   7.451  -6.186  0.00  0.00    +0.000 A 
ATOM     19  C   UNL     1       6.931   8.346  -6.337  0.00  0.00    +0.010 A 
ATOM     20  C   UNL     1       7.944   8.046  -7.196  0.00  0.00    +0.001 A 
ATOM     21  C   UNL     1       7.933   6.861  -7.930  0.00  0.00    +0.002 A 
ATOM     22  C   UNL     1       6.913   5.970  -7.810  0.00  0.00    +0.028 A 
ATOM     23  C   UNL     1       5.846   6.243  -6.932  0.00  0.00    +0.072 A 
ATOM     24  N   UNL     1       4.837   5.385  -6.791  0.00  0.00    -0.242 NA
ENDBRANCH  11  15
BRANCH   1  26
ATOM     25  N   UNL     1       2.596  -0.712  -4.771  0.00  0.00    -0.315 N 
ATOM     26  C   UNL     1       2.552   0.608  -5.039  0.00  0.00    +0.218 C 
ATOM     27  O   UNL     1       2.508   1.410  -4.130  0.00  0.00    -0.275 OA
ATOM     28  H   UNL     1       2.631  -1.353  -5.498  0.00  0.00    +0.149 HD
BRANCH  25  29
ATOM     29  C   UNL     1       2.592  -1.179  -3.382  0.00  0.00    +0.109 C 
BRANCH  29  30
ATOM     30  C   UNL     1       2.649  -2.708  -3.358  0.00  0.00    +0.056 C 
BRANCH  30  33
ATOM     31  C   UNL     1       0.138  -3.383  -1.662  0.00  0.00    +0.063 C 
ATOM     32  C   UNL     1       1.565  -3.482  -1.189  0.00  0.00    +0.017 A 
ATOM     33  C   UNL     1       2.645  -3.187  -1.929  0.00  0.00    -0.018 A 
ATOM     34  C   UNL     1       3.819  -3.422  -1.084  0.00  0.00    +0.004 A 
ATOM     35  C   UNL     1       5.192  -3.297  -1.281  0.00  0.00    +0.029 A 
ATOM     36  C   UNL     1       6.063  -3.610  -0.241  0.00  0.00    +0.052 A 
ATOM     37  C   UNL     1       5.556  -4.046   0.991  0.00  0.00    +0.021 A 
ATOM     38  C   UNL     1       4.212  -4.169   1.186  0.00  0.00    +0.027 A 
ATOM     39  C   UNL     1       3.323  -3.861   0.159  0.00  0.00    +0.047 A 
ATOM     40  N   UNL     1       1.951  -3.881   0.062  0.00  0.00    -0.358 N 
ATOM     41  H   UNL     1       1.347  -4.141   0.775  0.00  0.00    +0.166 HD
BRANCH  36  42
ATOM     42  C   UNL     1       7.477  -3.488  -0.430  0.00  0.00    +0.099 C 
ATOM     43  N   UNL     1       8.599  -3.390  -0.580  0.00  0.00    -0.191 NA
ENDBRANCH  36  42
ENDBRANCH  30  33
ENDBRANCH  29  30
ENDBRANCH  25  29
ENDBRANCH   1  26
TORSDOF 6
