REMARK  Name = ZINC20751422
REMARK  2 active torsions:
REMARK  status: ('A' for Active; 'I' for Inactive)
REMARK    1  A    between atoms: C_9  and  O_31
REMARK    2  A    between atoms: C_10  and  C_11
REMARK                            x       y       z     vdW  Elec       q    Type
REMARK                         _______ _______ _______ _____ _____    ______ ____
ROOT
ATOM      1  C   UNL     1       2.474   1.304  -0.015  0.00  0.00    +0.109 C 
ATOM      2  C   UNL     1       2.802   0.802   1.377  0.00  0.00    +0.029 C 
ATOM      3  C   UNL     1       3.069   1.842   2.471  0.00  0.00    +0.033 C 
ATOM      4  C   UNL     1       4.043   1.087   3.379  0.00  0.00    -0.030 C 
ATOM      5  C   UNL     1       4.699   0.171   2.676  0.00  0.00    -0.023 C 
ATOM      6  C   UNL     1       4.260   0.258   1.262  0.00  0.00    +0.049 C 
ATOM      7  C   UNL     1       4.205  -0.923   0.370  0.00  0.00    -0.019 A 
ATOM      8  C   UNL     1       5.047  -2.013   0.562  0.00  0.00    +0.006 A 
ATOM      9  C   UNL     1       5.010  -3.095  -0.261  0.00  0.00    +0.009 A 
ATOM     10  C   UNL     1       4.107  -3.115  -1.339  0.00  0.00    -0.016 A 
ATOM     11  C   UNL     1       4.050  -4.214  -2.215  0.00  0.00    +0.008 A 
ATOM     12  C   UNL     1       3.168  -4.202  -3.252  0.00  0.00    +0.001 A 
ATOM     13  C   UNL     1       2.318  -3.116  -3.457  0.00  0.00    +0.001 A 
ATOM     14  C   UNL     1       2.346  -2.038  -2.626  0.00  0.00    +0.010 A 
ATOM     15  C   UNL     1       3.243  -2.017  -1.545  0.00  0.00    +0.003 A 
ATOM     16  C   UNL     1       3.282  -0.904  -0.665  0.00  0.00    +0.039 A 
ATOM     17  N   UNL     1       2.373   0.123  -0.887  0.00  0.00    -0.336 N 
ATOM     18  H   UNL     1       1.603   0.084  -1.672  0.00  0.00    +0.147 HD
ENDROOT
BRANCH   1  28
ATOM     19  C   UNL     1       1.039   6.195  -0.467  0.00  0.00    +0.001 A 
ATOM     20  C   UNL     1       2.261   5.526  -0.484  0.00  0.00    +0.001 A 
ATOM     21  C   UNL     1       2.323   4.175  -0.333  0.00  0.00    +0.009 A 
ATOM     22  C   UNL     1       1.138   3.440  -0.157  0.00  0.00    -0.009 A 
ATOM     23  C   UNL     1      -0.106   4.120  -0.139  0.00  0.00    -0.017 A 
ATOM     24  C   UNL     1      -0.129   5.516  -0.298  0.00  0.00    +0.008 A 
ATOM     25  C   UNL     1      -1.292   3.387   0.037  0.00  0.00    +0.012 A 
ATOM     26  C   UNL     1      -1.235   2.036   0.182  0.00  0.00    +0.046 A 
ATOM     27  C   UNL     1      -0.009   1.363   0.171  0.00  0.00    +0.122 A 
ATOM     28  C   UNL     1       1.163   2.045   0.002  0.00  0.00    +0.022 A 
BRANCH  27  29
ATOM     29  O   UNL     1       0.016   0.013   0.324  0.00  0.00    -0.506 OA
ATOM     30  H   UNL     1       0.976  -0.523   0.315  0.00  0.00    +0.292 HD
ENDBRANCH  27  29
ENDBRANCH   1  28
TORSDOF 2
