REMARK  Name = ZINC09425186
REMARK  14 active torsions:
REMARK  status: ('A' for Active; 'I' for Inactive)
REMARK    1  A    between atoms: C_1  and  C_2
REMARK    2  A    between atoms: C_2  and  C_3
REMARK    3  A    between atoms: C_6  and  C_9
REMARK    4  A    between atoms: C_11  and  C_24
REMARK    5  A    between atoms: C_12  and  O_23
REMARK    6  A    between atoms: N_15  and  C_16
REMARK    7  A    between atoms: C_16  and  C_17
REMARK    8  A    between atoms: C_17  and  C_18
REMARK    9  A    between atoms: C_18  and  N_69
REMARK   10  A    between atoms: C_19  and  C_20
REMARK   11  A    between atoms: C_19  and  N_69
REMARK   12  A    between atoms: C_21  and  C_22
REMARK   13  A    between atoms: C_21  and  N_69
REMARK   14  A    between atoms: C_24  and  C_26
REMARK                            x       y       z     vdW  Elec       q    Type
REMARK                         _______ _______ _______ _____ _____    ______ ____
ROOT
ATOM      1  C   UNL     1       2.297   1.358  -0.911  0.00  0.00    +0.144 C 
ATOM      2  C   UNL     1       1.081   0.628  -1.433  0.00  0.00    +0.071 C 
ATOM      3  C   UNL     1       1.414  -0.681  -1.510  0.00  0.00    +0.188 C 
ATOM      4  C   UNL     1       2.810  -0.854  -1.057  0.00  0.00    +0.282 C 
ATOM      5  O   UNL     1       3.402  -1.915  -1.010  0.00  0.00    -0.267 OA
ATOM      6  N   UNL     1       3.330   0.336  -0.706  0.00  0.00    -0.284 N 
ENDROOT
BRANCH   1  10
ATOM      7  C   UNL     1       1.377   3.280   2.792  0.00  0.00    -0.048 A 
ATOM      8  C   UNL     1       1.413   4.015   1.621  0.00  0.00    +0.004 A 
ATOM      9  C   UNL     1       1.711   3.393   0.423  0.00  0.00    +0.006 A 
ATOM     10  C   UNL     1       1.972   2.036   0.396  0.00  0.00    -0.022 A 
ATOM     11  C   UNL     1       1.932   1.300   1.565  0.00  0.00    +0.006 A 
ATOM     12  C   UNL     1       1.639   1.923   2.764  0.00  0.00    +0.004 A 
BRANCH   7  14
ATOM     13  C   UNL     1      -0.460   3.921   4.329  0.00  0.00    +0.009 C 
ATOM     14  C   UNL     1       1.052   3.958   4.098  0.00  0.00    +0.032 C 
ENDBRANCH   7  14
ENDBRANCH   1  10
BRANCH   3  15
ATOM     15  O   UNL     1       0.599  -1.674  -1.933  0.00  0.00    -0.502 OA
ATOM     16  H   UNL     1       1.087  -2.546  -1.894  0.00  0.00    +0.292 HD
ENDBRANCH   3  15
BRANCH   2  17
ATOM     17  C   UNL     1      -0.209   1.225  -1.793  0.00  0.00    +0.195 C 
ATOM     18  O   UNL     1      -1.203   0.965  -1.141  0.00  0.00    -0.287 OA
BRANCH  17  19
ATOM     19  C   UNL     1      -0.302   2.140  -2.947  0.00  0.00    +0.026 A 
ATOM     20  C   UNL     1       0.820   2.378  -3.747  0.00  0.00    +0.015 A 
ATOM     21  C   UNL     1       0.730   3.233  -4.822  0.00  0.00    +0.050 A 
ATOM     22  C   UNL     1      -0.473   3.864  -5.117  0.00  0.00    +0.162 A 
ATOM     23  C   UNL     1      -1.596   3.630  -4.326  0.00  0.00    +0.163 A 
ATOM     24  C   UNL     1      -1.514   2.769  -3.248  0.00  0.00    +0.061 A 
ATOM     25  O   UNL     1      -2.783   4.236  -4.604  0.00  0.00    -0.485 OA
ATOM     26  C   UNL     1      -2.735   5.377  -5.468  0.00  0.00    +0.270 C 
ATOM     27  C   UNL     1      -1.843   5.033  -6.669  0.00  0.00    +0.270 C 
ATOM     28  O   UNL     1      -0.537   4.710  -6.179  0.00  0.00    -0.485 OA
ENDBRANCH  17  19
ENDBRANCH   2  17
BRANCH   6  29
ATOM     29  C   UNL     1       4.688   0.571  -0.207  0.00  0.00    +0.107 C 
BRANCH  29  30
ATOM     30  C   UNL     1       5.623   0.850  -1.386  0.00  0.00    +0.000 C 
BRANCH  30  31
ATOM     31  C   UNL     1       7.040   1.095  -0.865  0.00  0.00    -0.077 C 
BRANCH  31  32
ATOM     32  N   UNL     1       7.920   1.400  -2.012  0.00  0.00    +0.379 N 
ATOM     33  H   UNL     1       7.709   0.749  -2.777  0.00  0.00    -0.082 HD
BRANCH  32  34
ATOM     34  C   UNL     1       7.681   2.782  -2.479  0.00  0.00    -0.082 C 
ATOM     35  C   UNL     1       8.434   2.996  -3.794  0.00  0.00    -0.017 C 
ENDBRANCH  32  34
BRANCH  32  36
ATOM     36  C   UNL     1       9.336   1.238  -1.620  0.00  0.00    -0.082 C 
ATOM     37  C   UNL     1       9.667  -0.256  -1.584  0.00  0.00    -0.017 C 
ENDBRANCH  32  36
ENDBRANCH  31  32
ENDBRANCH  30  31
ENDBRANCH  29  30
ENDBRANCH   6  29
TORSDOF 11
