REMARK  Name = ZINC39710453
REMARK  10 active torsions:
REMARK  status: ('A' for Active; 'I' for Inactive)
REMARK    1  A    between atoms: C_1  and  C_2
REMARK    2  A    between atoms: C_2  and  C_3
REMARK    3  A    between atoms: C_10  and  C_15
REMARK    4  A    between atoms: C_15  and  C_17
REMARK    5  A    between atoms: C_15  and  N_26
REMARK    6  A    between atoms: N_21  and  C_22
REMARK    7  A    between atoms: C_22  and  C_23
REMARK    8  A    between atoms: C_23  and  O_24
REMARK    9  A    between atoms: O_24  and  C_25
REMARK   10  A    between atoms: N_29  and  C_32
REMARK                            x       y       z     vdW  Elec       q    Type
REMARK                         _______ _______ _______ _____ _____    ______ ____
ROOT
ATOM      1  C   UNL     1       1.158  -1.293   6.936  0.00  0.00    +0.142 C 
ENDROOT
BRANCH   1   9
ATOM      2  C   UNL     1       0.564  -1.535   1.136  0.00  0.00    -0.047 A 
ATOM      3  C   UNL     1       1.946  -1.583   0.948  0.00  0.00    +0.005 A 
ATOM      4  C   UNL     1       2.817  -1.805   1.967  0.00  0.00    +0.024 A 
ATOM      5  C   UNL     1       2.346  -1.999   3.279  0.00  0.00    +0.040 A 
ATOM      6  N   UNL     1       3.210  -2.215   4.271  0.00  0.00    -0.284 N 
ATOM      7  C   UNL     1       2.837  -2.406   5.525  0.00  0.00    +0.226 C 
ATOM      8  O   UNL     1       3.671  -2.599   6.388  0.00  0.00    -0.275 OA
ATOM      9  C   UNL     1       1.367  -2.382   5.882  0.00  0.00    +0.123 C 
ATOM     10  C   UNL     1       0.381  -2.135   4.757  0.00  0.00    -0.003 C 
ATOM     11  C   UNL     1       0.892  -1.953   3.507  0.00  0.00    -0.007 A 
ATOM     12  C   UNL     1       0.011  -1.705   2.365  0.00  0.00    +0.013 A 
ATOM     13  H   UNL     1       4.157  -2.235   4.063  0.00  0.00    +0.155 HD
BRANCH   2  15
ATOM     14  C   UNL     1      -0.460   0.224  -0.280  0.00  0.00    +0.009 C 
ATOM     15  C   UNL     1      -0.333  -1.283  -0.048  0.00  0.00    +0.032 C 
ENDBRANCH   2  15
ENDBRANCH   1   9
BRANCH   1  16
ATOM     16  N   UNL     1       2.004  -1.573   8.104  0.00  0.00    -0.289 NA
ATOM     17  C   UNL     1       1.657  -2.866   8.708  0.00  0.00    +0.104 C 
ATOM     18  C   UNL     1       2.674  -3.204   9.803  0.00  0.00    +0.120 C 
ATOM     19  N   UNL     1       2.739  -2.076  10.745  0.00  0.00    -0.325 N 
ATOM     20  C   UNL     1       2.947  -0.726  10.199  0.00  0.00    +0.120 C 
ATOM     21  C   UNL     1       1.919  -0.485   9.088  0.00  0.00    +0.104 C 
BRANCH  19  22
ATOM     22  C   UNL     1       2.606  -2.281  12.121  0.00  0.00    +0.065 A 
ATOM     23  C   UNL     1       3.729  -2.523  12.900  0.00  0.00    +0.026 A 
ATOM     24  C   UNL     1       3.595  -2.725  14.260  0.00  0.00    +0.002 A 
ATOM     25  C   UNL     1       2.344  -2.688  14.847  0.00  0.00    +0.003 A 
ATOM     26  C   UNL     1       1.222  -2.447  14.076  0.00  0.00    +0.040 A 
ATOM     27  C   UNL     1       1.349  -2.238  12.715  0.00  0.00    +0.144 A 
ATOM     28  F   UNL     1       0.253  -1.997  11.962  0.00  0.00    -0.204 F 
ENDBRANCH  19  22
ENDBRANCH   1  16
BRANCH   1  29
ATOM     29  C   UNL     1      -0.289  -1.273   7.357  0.00  0.00    +0.170 A 
ATOM     30  N   UNL     1      -0.953  -2.252   7.921  0.00  0.00    -0.112 NA
ATOM     31  N   UNL     1      -2.159  -1.848   8.127  0.00  0.00    -0.023 NA
ATOM     32  N   UNL     1      -2.281  -0.636   7.710  0.00  0.00    -0.044 NA
ATOM     33  N   UNL     1      -1.148  -0.244   7.233  0.00  0.00    -0.225 N 
BRANCH  33  34
ATOM     34  C   UNL     1      -0.853   1.072   6.661  0.00  0.00    +0.175 C 
BRANCH  34  35
ATOM     35  C   UNL     1      -1.252   1.087   5.184  0.00  0.00    +0.183 C 
BRANCH  35  36
ATOM     36  O   UNL     1      -0.885   2.340   4.604  0.00  0.00    -0.381 OA
ATOM     37  C   UNL     1      -1.314   2.502   3.251  0.00  0.00    +0.194 C 
ENDBRANCH  35  36
ENDBRANCH  34  35
ENDBRANCH  33  34
ENDBRANCH   1  29
TORSDOF 8
