REMARK  Name = ZINC14547769
REMARK  2 active torsions:
REMARK  status: ('A' for Active; 'I' for Inactive)
REMARK    1  A    between atoms: C_9  and  O_28
REMARK    2  A    between atoms: C_10  and  C_11
REMARK                            x       y       z     vdW  Elec       q    Type
REMARK                         _______ _______ _______ _____ _____    ______ ____
ROOT
ATOM      1  C   UNL     1      -2.522  -0.046   0.026  0.00  0.00    +0.109 C 
ATOM      2  C   UNL     1      -3.170  -0.143  -1.358  0.00  0.00    +0.029 C 
ATOM      3  C   UNL     1      -2.407   0.836  -2.298  0.00  0.00    +0.033 C 
ATOM      4  C   UNL     1      -3.047   2.178  -2.000  0.00  0.00    -0.030 C 
ATOM      5  C   UNL     1      -4.236   2.013  -1.473  0.00  0.00    -0.023 C 
ATOM      6  C   UNL     1      -4.550   0.541  -1.342  0.00  0.00    +0.049 C 
ATOM      7  C   UNL     1      -5.329   0.259  -0.096  0.00  0.00    -0.018 A 
ATOM      8  C   UNL     1      -6.673   0.603  -0.059  0.00  0.00    +0.026 A 
ATOM      9  C   UNL     1      -7.429   0.357   1.071  0.00  0.00    +0.041 A 
ATOM     10  C   UNL     1      -6.853  -0.235   2.181  0.00  0.00    +0.022 A 
ATOM     11  C   UNL     1      -5.517  -0.581   2.155  0.00  0.00    +0.024 A 
ATOM     12  C   UNL     1      -4.756  -0.333   1.019  0.00  0.00    +0.031 A 
ATOM     13  N   UNL     1      -3.402  -0.687   1.009  0.00  0.00    -0.336 N 
ATOM     14 CL   UNL     1      -9.109   0.793   1.098  0.00  0.00    -0.084 Cl
ATOM     15  H   UNL     1      -3.055  -1.340   1.637  0.00  0.00    +0.147 HD
ENDROOT
BRANCH   1  25
ATOM     16  C   UNL     1       2.380   1.424  -0.013  0.00  0.00    +0.001 A 
ATOM     17  C   UNL     1       1.156   2.091   0.002  0.00  0.00    +0.001 A 
ATOM     18  C   UNL     1      -0.017   1.402   0.010  0.00  0.00    +0.009 A 
ATOM     19  C   UNL     1       0.002  -0.004   0.002  0.00  0.00    -0.009 A 
ATOM     20  C   UNL     1       1.247  -0.682  -0.013  0.00  0.00    -0.017 A 
ATOM     21  C   UNL     1       2.438   0.065  -0.021  0.00  0.00    +0.008 A 
ATOM     22  C   UNL     1       1.269  -2.087  -0.021  0.00  0.00    +0.012 A 
ATOM     23  C   UNL     1       0.098  -2.780  -0.013  0.00  0.00    +0.046 A 
ATOM     24  C   UNL     1      -1.131  -2.114   0.003  0.00  0.00    +0.122 A 
ATOM     25  C   UNL     1      -1.188  -0.749   0.010  0.00  0.00    +0.022 A 
BRANCH  24  26
ATOM     26  O   UNL     1      -2.284  -2.833   0.011  0.00  0.00    -0.506 OA
ATOM     27  H   UNL     1      -2.608  -3.046   0.897  0.00  0.00    +0.292 HD
ENDBRANCH  24  26
ENDBRANCH   1  25
TORSDOF 2
