REMARK  Name = ZINC62038911
REMARK  9 active torsions:
REMARK  status: ('A' for Active; 'I' for Inactive)
REMARK    1  A    between atoms: C_1  and  C_2
REMARK    2  A    between atoms: C_6  and  C_9
REMARK    3  A    between atoms: C_16  and  S_18
REMARK    4  A    between atoms: S_18  and  C_19
REMARK    5  A    between atoms: C_19  and  C_21
REMARK    6  A    between atoms: C_19  and  C_22
REMARK    7  A    between atoms: N_24  and  C_25
REMARK    8  A    between atoms: C_27  and  C_32
REMARK    9  A    between atoms: C_30  and  O_31
REMARK                            x       y       z     vdW  Elec       q    Type
REMARK                         _______ _______ _______ _____ _____    ______ ____
ROOT
ATOM      1  C   UNL     1       0.684   1.354   0.029  0.00  0.00    +0.088 C 
ATOM      2  C   UNL     1       0.555  -0.146  -0.018  0.00  0.00    +0.128 A 
ATOM      3  N   UNL     1       0.412  -0.746  -1.183  0.00  0.00    -0.225 NA
ATOM      4  C   UNL     1       0.297  -2.059  -1.250  0.00  0.00    +0.113 A 
ATOM      5  C   UNL     1       0.322  -2.858  -0.088  0.00  0.00    +0.047 A 
ATOM      6  C   UNL     1       0.183  -4.291  -0.325  0.00  0.00    +0.001 A 
ATOM      7  C   UNL     1       0.045  -4.731  -1.598  0.00  0.00    +0.056 A 
ATOM      8  S   UNL     1       0.094  -3.233  -2.563  0.00  0.00    -0.076 S 
ATOM      9  C   UNL     1       0.478  -2.152   1.135  0.00  0.00    +0.110 A 
ATOM     10  N   UNL     1       0.592  -0.833   1.110  0.00  0.00    -0.225 NA
ENDROOT
BRANCH   6  11
ATOM     11  C   UNL     1       0.193  -5.248   0.807  0.00  0.00    -0.017 A 
ATOM     12  C   UNL     1      -0.756  -5.140   1.823  0.00  0.00    +0.010 A 
ATOM     13  C   UNL     1      -0.742  -6.033   2.874  0.00  0.00    +0.020 A 
ATOM     14  C   UNL     1       0.213  -7.035   2.922  0.00  0.00    +0.041 A 
ATOM     15  C   UNL     1       1.157  -7.146   1.917  0.00  0.00    +0.020 A 
ATOM     16  C   UNL     1       1.149  -6.262   0.857  0.00  0.00    +0.010 A 
ATOM     17 CL   UNL     1       0.225  -8.154   4.249  0.00  0.00    -0.084 Cl
ENDBRANCH   6  11
BRANCH   9  18
ATOM     18  S   UNL     1       0.526  -3.022   2.666  0.00  0.00    -0.093 S 
BRANCH  18  19
ATOM     19  C   UNL     1       0.734  -1.715   3.907  0.00  0.00    +0.136 C 
ATOM     20  C   UNL     1      -0.506  -0.819   3.917  0.00  0.00    +0.029 C 
BRANCH  19  21
ATOM     21  C   UNL     1       0.914  -2.338   5.268  0.00  0.00    +0.230 C 
ATOM     22  O   UNL     1       0.553  -3.479   5.465  0.00  0.00    -0.274 OA
ATOM     23  N   UNL     1       1.477  -1.628   6.265  0.00  0.00    -0.282 N 
ATOM     24  H   UNL     1       1.702  -0.694   6.128  0.00  0.00    +0.155 HD
BRANCH  23  25
ATOM     25  C   UNL     1       1.736  -2.238   7.500  0.00  0.00    +0.076 A 
ATOM     26  C   UNL     1       2.090  -3.573   7.551  0.00  0.00    +0.038 A 
ATOM     27  C   UNL     1       2.348  -4.178   8.786  0.00  0.00    +0.016 A 
ATOM     28  C   UNL     1       2.247  -3.427   9.964  0.00  0.00    +0.015 A 
ATOM     29  C   UNL     1       1.895  -2.097   9.905  0.00  0.00    +0.048 A 
ATOM     30  C   UNL     1       1.644  -1.495   8.679  0.00  0.00    +0.138 A 
BRANCH  30  31
ATOM     31  O   UNL     1       1.303  -0.182   8.627  0.00  0.00    -0.505 OA
ATOM     32  H   UNL     1       0.351  -0.021   8.683  0.00  0.00    +0.292 HD
ENDBRANCH  30  31
BRANCH  27  33
ATOM     33  C   UNL     1       2.723  -5.596   8.847  0.00  0.00    +0.258 C 
ATOM     34  O   UNL     1       2.947  -6.119   9.919  0.00  0.00    -0.296 OA
ENDBRANCH  27  33
ENDBRANCH  23  25
ENDBRANCH  19  21
ENDBRANCH  18  19
ENDBRANCH   9  18
TORSDOF 7
