REMARK  Name = ZINC08868818
REMARK  11 active torsions:
REMARK  status: ('A' for Active; 'I' for Inactive)
REMARK    1  A    between atoms: C_1  and  C_2
REMARK    2  A    between atoms: C_5  and  S_8
REMARK    3  A    between atoms: S_8  and  N_11
REMARK    4  A    between atoms: C_15  and  C_17
REMARK    5  A    between atoms: N_19  and  C_20
REMARK    6  A    between atoms: C_20  and  C_21
REMARK    7  A    between atoms: C_21  and  C_22
REMARK    8  A    between atoms: C_22  and  N_66
REMARK    9  A    between atoms: C_23  and  N_66
REMARK   10  A    between atoms: C_24  and  N_66
REMARK   11  A    between atoms: C_28  and  C_34
REMARK                            x       y       z     vdW  Elec       q    Type
REMARK                         _______ _______ _______ _____ _____    ______ ____
ROOT
ATOM      1  C   UNL     1       1.897   6.663   0.610  0.00  0.00    +0.240 C 
ATOM      2  O   UNL     1       0.972   6.283   1.296  0.00  0.00    -0.273 OA
ATOM      3  N   UNL     1       2.755   5.769   0.081  0.00  0.00    -0.249 N 
ATOM      4  C   UNL     1       2.524   4.412   0.235  0.00  0.00    +0.168 A 
ATOM      5  N   UNL     1       1.589   3.809   0.932  0.00  0.00    -0.224 NA
ATOM      6  C   UNL     1       1.481   2.465   0.993  0.00  0.00    +0.083 A 
ATOM      7  C   UNL     1       0.529   1.696   1.701  0.00  0.00    -0.024 A 
ATOM      8  C   UNL     1       0.560   0.327   1.656  0.00  0.00    +0.005 A 
ATOM      9  C   UNL     1       1.519  -0.352   0.919  0.00  0.00    +0.001 A 
ATOM     10  C   UNL     1       2.466   0.367   0.213  0.00  0.00    +0.017 A 
ATOM     11  C   UNL     1       2.443   1.739   0.253  0.00  0.00    +0.041 A 
ATOM     12  S   UNL     1       3.422   3.035  -0.467  0.00  0.00    -0.052 S 
ATOM     13  C   UNL     1      -0.536   2.391   2.510  0.00  0.00    +0.046 C 
ENDROOT
BRANCH   1  18
ATOM     14  N   UNL     1       0.781   8.812   0.337  0.00  0.00    -0.165 NA
ATOM     15  C   UNL     1       0.756   9.811   1.421  0.00  0.00    +0.110 C 
ATOM     16  C   UNL     1       2.245  10.150   1.682  0.00  0.00    +0.019 C 
ATOM     17  C   UNL     1       2.919   8.766   1.484  0.00  0.00    +0.031 C 
ATOM     18  C   UNL     1       2.086   8.135   0.349  0.00  0.00    +0.166 C 
BRANCH  14  19
ATOM     19  S   UNL     1      -0.456   8.505  -0.721  0.00  0.00    +0.062 S 
ATOM     20  O   UNL     1      -1.155   9.730  -0.894  0.00  0.00    -0.153 OA
ATOM     21  O   UNL     1       0.110   7.790  -1.810  0.00  0.00    -0.153 OA
BRANCH  19  26
ATOM     22  C   UNL     1      -4.263   4.722   2.035  0.00  0.00    +0.044 C 
ATOM     23  C   UNL     1      -3.312   5.667   1.347  0.00  0.00    -0.050 A 
ATOM     24  C   UNL     1      -3.398   7.026   1.582  0.00  0.00    +0.005 A 
ATOM     25  C   UNL     1      -2.526   7.893   0.951  0.00  0.00    +0.029 A 
ATOM     26  C   UNL     1      -1.567   7.400   0.084  0.00  0.00    +0.106 A 
ATOM     27  C   UNL     1      -1.485   6.041  -0.155  0.00  0.00    +0.029 A 
ATOM     28  C   UNL     1      -2.354   5.174   0.481  0.00  0.00    +0.005 A 
ENDBRANCH  19  26
ENDBRANCH  14  19
ENDBRANCH   1  18
BRANCH   3  29
ATOM     29  C   UNL     1       3.933   6.232  -0.656  0.00  0.00    +0.114 C 
BRANCH  29  30
ATOM     30  C   UNL     1       3.597   6.327  -2.146  0.00  0.00    +0.001 C 
BRANCH  30  31
ATOM     31  C   UNL     1       4.827   6.811  -2.916  0.00  0.00    -0.078 C 
BRANCH  31  34
ATOM     32  C   UNL     1       5.576   7.585  -5.085  0.00  0.00    -0.097 C 
ATOM     33  C   UNL     1       4.239   5.573  -4.912  0.00  0.00    -0.097 C 
ATOM     34  N   UNL     1       4.481   6.918  -4.349  0.00  0.00    +0.376 N 
ATOM     35  H   UNL     1       3.626   7.479  -4.445  0.00  0.00    -0.083 HD
ENDBRANCH  31  34
ENDBRANCH  30  31
ENDBRANCH  29  30
ENDBRANCH   3  29
TORSDOF 7
