REMARK  Name = ZINC08791022
REMARK  3 active torsions:
REMARK  status: ('A' for Active; 'I' for Inactive)
REMARK    1  A    between atoms: C_4  and  N_7
REMARK    2  A    between atoms: C_12  and  C_29
REMARK    3  A    between atoms: C_29  and  C_30
REMARK                            x       y       z     vdW  Elec       q    Type
REMARK                         _______ _______ _______ _____ _____    ______ ____
ROOT
ATOM      1  N   UNL     1       3.379  -1.875   2.237  0.00  0.00    -0.210 N 
ATOM      2  C   UNL     1       3.883  -2.937   1.597  0.00  0.00    +0.228 C 
ATOM      3  O   UNL     1       5.035  -3.309   1.658  0.00  0.00    -0.275 OA
ATOM      4  C   UNL     1       2.792  -3.600   0.787  0.00  0.00    +0.074 C 
ATOM      5  C   UNL     1       3.078  -3.388  -0.715  0.00  0.00    -0.053 C 
ATOM      6  C   UNL     1       1.169  -2.114  -0.274  0.00  0.00    +0.050 C 
ATOM      7  C   UNL     1       1.533  -2.737   1.078  0.00  0.00    +0.088 C 
ATOM      8  C   UNL     1       2.076  -1.662   2.018  0.00  0.00    +0.229 C 
ATOM      9  O   UNL     1       1.425  -0.758   2.496  0.00  0.00    -0.275 OA
ATOM     10  C   UNL     1       1.675  -0.703  -0.386  0.00  0.00    -0.026 A 
ATOM     11  C   UNL     1       2.928  -0.137  -0.319  0.00  0.00    +0.004 A 
ATOM     12  C   UNL     1       3.080   1.230  -0.463  0.00  0.00    +0.002 A 
ATOM     13  C   UNL     1       1.970   2.028  -0.674  0.00  0.00    +0.022 A 
ATOM     14  C   UNL     1       0.711   1.465  -0.742  0.00  0.00    +0.062 A 
ATOM     15  C   UNL     1       0.550   0.088  -0.599  0.00  0.00    +0.054 A 
ATOM     16  N   UNL     1      -0.600  -0.705  -0.630  0.00  0.00    -0.285 N 
ATOM     17  C   UNL     1      -0.322  -2.010  -0.448  0.00  0.00    +0.211 C 
ATOM     18  O   UNL     1      -1.119  -2.924  -0.426  0.00  0.00    -0.277 OA
ATOM     19 CL   UNL     1      -0.674   2.475  -1.015  0.00  0.00    -0.082 Cl
ATOM     20  H   UNL     1      -1.495  -0.356  -0.767  0.00  0.00    +0.155 HD
ATOM     21  N   UNL     1       1.784  -2.978  -1.266  0.00  0.00    +0.394 N 
ATOM     22  H   UNL     1       1.194  -3.801  -1.435  0.00  0.00    -0.083 HD
ATOM     23  H   UNL     1       1.919  -2.467  -2.147  0.00  0.00    -0.083 HD
ENDROOT
BRANCH   1  27
ATOM     24  C   UNL     1       5.680   0.569   4.709  0.00  0.00    +0.000 A 
ATOM     25  C   UNL     1       4.673  -0.208   5.251  0.00  0.00    +0.002 A 
ATOM     26  C   UNL     1       3.909  -1.019   4.434  0.00  0.00    +0.024 A 
ATOM     27  C   UNL     1       4.153  -1.053   3.068  0.00  0.00    +0.044 A 
ATOM     28  C   UNL     1       5.168  -0.276   2.527  0.00  0.00    +0.024 A 
ATOM     29  C   UNL     1       5.926   0.536   3.348  0.00  0.00    +0.002 A 
ENDBRANCH   1  27
BRANCH   5  30
ATOM     30  C   UNL     1       3.570  -4.689  -1.353  0.00  0.00    +0.022 C 
BRANCH  30  31
ATOM     31  C   UNL     1       3.886  -4.447  -2.806  0.00  0.00    -0.024 A 
ATOM     32  C   UNL     1       3.069  -4.669  -3.849  0.00  0.00    +0.087 A 
ATOM     33  N   UNL     1       3.699  -4.329  -5.015  0.00  0.00    -0.360 N 
ATOM     34  H   UNL     1       3.308  -4.399  -5.900  0.00  0.00    +0.165 HD
ATOM     35  C   UNL     1       4.972  -3.878  -4.746  0.00  0.00    +0.047 A 
ATOM     36  C   UNL     1       5.145  -3.933  -3.350  0.00  0.00    +0.003 A 
ATOM     37  C   UNL     1       6.355  -3.531  -2.783  0.00  0.00    +0.010 A 
ATOM     38  C   UNL     1       7.367  -3.086  -3.586  0.00  0.00    +0.001 A 
ATOM     39  C   UNL     1       7.201  -3.030  -4.963  0.00  0.00    +0.002 A 
ATOM     40  C   UNL     1       6.015  -3.422  -5.544  0.00  0.00    +0.026 A 
ENDBRANCH  30  31
ENDBRANCH   5  30
TORSDOF 3
