REMARK  Name = ZINC09167770
REMARK  6 active torsions:
REMARK  status: ('A' for Active; 'I' for Inactive)
REMARK    1  A    between atoms: C_1  and  C_2
REMARK    2  A    between atoms: C_9  and  N_14
REMARK    3  A    between atoms: C_10  and  C_11
REMARK    4  A    between atoms: C_15  and  C_17
REMARK    5  A    between atoms: C_17  and  N_56
REMARK    6  A    between atoms: C_23  and  C_25
REMARK                            x       y       z     vdW  Elec       q    Type
REMARK                         _______ _______ _______ _____ _____    ______ ____
ROOT
ATOM      1  N   UNL     1       1.400   3.420  -0.105  0.00  0.00    -0.281 N 
ATOM      2  C   UNL     1       1.222   2.084  -0.097  0.00  0.00    +0.201 C 
ATOM      3  O   UNL     1       2.182   1.343  -0.130  0.00  0.00    -0.278 OA
ATOM      4  H   UNL     1       0.633   4.012  -0.078  0.00  0.00    +0.155 HD
ENDROOT
BRANCH   1  12
ATOM      5  C   UNL     1       8.780   5.991  -0.464  0.00  0.00    +0.008 C 
ATOM      6  C   UNL     1       7.271   5.880  -0.694  0.00  0.00    -0.009 C 
ATOM      7  C   UNL     1       6.540   6.914   0.167  0.00  0.00    +0.008 C 
ATOM      8  C   UNL     1       5.066   6.980  -0.239  0.00  0.00    +0.037 C 
ATOM      9  C   UNL     1       4.488   5.570  -0.217  0.00  0.00    -0.023 A 
ATOM     10  C   UNL     1       5.295   4.487  -0.244  0.00  0.00    -0.004 A 
ATOM     11  S   UNL     1       4.193   3.102  -0.196  0.00  0.00    -0.077 S 
ATOM     12  C   UNL     1       2.682   3.947  -0.151  0.00  0.00    +0.084 A 
ATOM     13  C   UNL     1       3.065   5.281  -0.167  0.00  0.00    +0.068 A 
ATOM     14  C   UNL     1       6.791   4.476  -0.297  0.00  0.00    +0.046 C 
BRANCH  13  15
ATOM     15  C   UNL     1       2.071   6.358  -0.133  0.00  0.00    +0.244 C 
ATOM     16  O   UNL     1       1.695   6.806   0.934  0.00  0.00    -0.270 OA
ATOM     17  N   UNL     1       1.573   6.852  -1.284  0.00  0.00    -0.325 N 
ATOM     18  H   UNL     1       1.873   6.495  -2.135  0.00  0.00    +0.145 HD
ATOM     19  H   UNL     1       0.915   7.564  -1.262  0.00  0.00    +0.145 HD
ENDBRANCH  13  15
ENDBRANCH   1  12
BRANCH   2  20
ATOM     20  C   UNL     1      -0.171   1.510  -0.046  0.00  0.00    +0.019 C 
BRANCH  20  28
ATOM     21  C   UNL     1       0.449  -0.456  -1.316  0.00  0.00    -0.059 C 
ATOM     22  C   UNL     1       0.679  -1.967  -1.210  0.00  0.00    +0.089 C 
ATOM     23  N   UNL     1      -0.576  -2.602  -0.780  0.00  0.00    -0.299 N 
ATOM     24  C   UNL     1      -1.256  -2.066   0.409  0.00  0.00    +0.089 C 
ATOM     25  C   UNL     1      -1.410  -0.551   0.239  0.00  0.00    -0.059 C 
ATOM     26  C   UNL     1      -1.089  -3.648  -1.458  0.00  0.00    +0.282 C 
ATOM     27  O   UNL     1      -2.091  -4.206  -1.048  0.00  0.00    -0.267 OA
ATOM     28  N   UNL     1      -0.078   0.036  -0.024  0.00  0.00    +0.387 N 
ATOM     29  H   UNL     1       0.564  -0.246   0.726  0.00  0.00    -0.081 HD
BRANCH  26  30
ATOM     30  C   UNL     1      -0.442  -4.114  -2.688  0.00  0.00    +0.189 A 
ATOM     31  C   UNL     1      -0.924  -5.069  -3.537  0.00  0.00    +0.054 A 
ATOM     32  C   UNL     1       0.012  -5.196  -4.575  0.00  0.00    +0.042 A 
ATOM     33  C   UNL     1       1.012  -4.325  -4.318  0.00  0.00    +0.196 A 
ATOM     34  O   UNL     1       0.733  -3.671  -3.183  0.00  0.00    -0.458 OA
ENDBRANCH  26  30
ENDBRANCH  20  28
ENDBRANCH   2  20
TORSDOF 5
