REMARK  Name = ZINC45895403
REMARK  10 active torsions:
REMARK  status: ('A' for Active; 'I' for Inactive)
REMARK    1  A    between atoms: C_1  and  C_2
REMARK    2  A    between atoms: N_4  and  C_5
REMARK    3  A    between atoms: C_6  and  C_26
REMARK    4  A    between atoms: C_7  and  S_24
REMARK    5  A    between atoms: N_9  and  C_10
REMARK    6  A    between atoms: C_10  and  C_11
REMARK    7  A    between atoms: N_13  and  C_14
REMARK    8  A    between atoms: C_19  and  C_20
REMARK    9  A    between atoms: S_24  and  C_25
REMARK   10  A    between atoms: C_28  and  C_31
REMARK                            x       y       z     vdW  Elec       q    Type
REMARK                         _______ _______ _______ _____ _____    ______ ____
ROOT
ATOM      1  C   UNL     1      -1.074  -2.178  -0.178  0.00  0.00    +0.137 A 
ATOM      2  C   UNL     1      -2.131  -3.077  -0.252  0.00  0.00    +0.112 A 
ATOM      3  C   UNL     1      -1.570  -4.379  -0.225  0.00  0.00    +0.133 A 
ATOM      4  N   UNL     1      -0.269  -4.258  -0.140  0.00  0.00    -0.162 NA
ATOM      5  N   UNL     1       0.063  -2.899  -0.116  0.00  0.00    -0.240 N 
ENDROOT
BRANCH   1   9
ATOM      6  C   UNL     1      -0.626   1.428   0.766  0.00  0.00    +0.109 C 
ATOM      7  C   UNL     1      -0.488  -0.072   0.735  0.00  0.00    +0.215 C 
ATOM      8  O   UNL     1       0.239  -0.630   1.530  0.00  0.00    -0.276 OA
ATOM      9  N   UNL     1      -1.171  -0.794  -0.175  0.00  0.00    -0.270 N 
ATOM     10  H   UNL     1      -1.731  -0.345  -0.828  0.00  0.00    +0.156 HD
ENDBRANCH   1   9
BRANCH   2  11
ATOM     11  C   UNL     1      -3.560  -2.742  -0.342  0.00  0.00    +0.265 A 
ATOM     12  N   UNL     1      -4.553  -3.604  -0.406  0.00  0.00    -0.187 NA
ATOM     13  C   UNL     1      -5.721  -2.949  -0.478  0.00  0.00    +0.202 A 
ATOM     14  N   UNL     1      -5.487  -1.659  -0.461  0.00  0.00    -0.056 NA
ATOM     15  O   UNL     1      -4.080  -1.501  -0.366  0.00  0.00    -0.332 OA
BRANCH  13  16
ATOM     16  C   UNL     1      -7.061  -3.582  -0.565  0.00  0.00    +0.022 A 
ATOM     17  C   UNL     1      -7.180  -4.970  -0.570  0.00  0.00    +0.012 A 
ATOM     18  C   UNL     1      -8.428  -5.554  -0.650  0.00  0.00    +0.001 A 
ATOM     19  C   UNL     1      -9.560  -4.763  -0.726  0.00  0.00    +0.000 A 
ATOM     20  C   UNL     1      -9.448  -3.384  -0.721  0.00  0.00    +0.001 A 
ATOM     21  C   UNL     1      -8.206  -2.790  -0.635  0.00  0.00    +0.012 A 
ENDBRANCH  13  16
ENDBRANCH   2  11
BRANCH   3  22
ATOM     22  S   UNL     1      -2.466  -5.895  -0.292  0.00  0.00    -0.107 S 
ATOM     23  C   UNL     1      -1.179  -7.170  -0.218  0.00  0.00    +0.091 C 
ENDBRANCH   3  22
BRANCH   5  24
ATOM     24  C   UNL     1       1.420  -2.352  -0.033  0.00  0.00    +0.241 C 
BRANCH  24  25
ATOM     25  C   UNL     1       1.886  -2.379   1.400  0.00  0.00    +0.239 C 
ATOM     26  O   UNL     1       1.156  -2.813   2.267  0.00  0.00    -0.273 OA
ATOM     27  N   UNL     1       3.112  -1.921   1.719  0.00  0.00    -0.283 N 
ATOM     28  H   UNL     1       3.719  -1.633   1.019  0.00  0.00    +0.155 HD
BRANCH  27  29
ATOM     29  C   UNL     1       3.511  -1.863   3.059  0.00  0.00    +0.045 A 
ATOM     30  C   UNL     1       3.061  -2.818   3.961  0.00  0.00    +0.024 A 
ATOM     31  C   UNL     1       3.456  -2.757   5.283  0.00  0.00    +0.002 A 
ATOM     32  C   UNL     1       4.299  -1.746   5.708  0.00  0.00    +0.001 A 
ATOM     33  C   UNL     1       4.749  -0.794   4.813  0.00  0.00    +0.014 A 
ATOM     34  C   UNL     1       4.362  -0.853   3.488  0.00  0.00    +0.076 A 
BRANCH  34  35
ATOM     35  C   UNL     1       4.859   0.181   2.510  0.00  0.00    +0.419 C 
ATOM     36  F   UNL     1       5.695   1.086   3.173  0.00  0.00    -0.166 F 
ATOM     37  F   UNL     1       5.573  -0.450   1.486  0.00  0.00    -0.166 F 
ATOM     38  F   UNL     1       3.769   0.868   1.964  0.00  0.00    -0.166 F 
ENDBRANCH  34  35
ENDBRANCH  27  29
ENDBRANCH  24  25
ENDBRANCH   5  24
TORSDOF 8
