REMARK  Name = ZINC60214661
REMARK  9 active torsions:
REMARK  status: ('A' for Active; 'I' for Inactive)
REMARK    1  A    between atoms: C_1  and  C_2
REMARK    2  A    between atoms: C_2  and  C_3
REMARK    3  A    between atoms: C_2  and  C_4
REMARK    4  A    between atoms: C_2  and  C_23
REMARK    5  A    between atoms: C_4  and  N_5
REMARK    6  A    between atoms: C_6  and  C_8
REMARK    7  A    between atoms: C_8  and  C_9
REMARK    8  A    between atoms: C_12  and  S_14
REMARK    9  A    between atoms: S_14  and  N_17
REMARK                            x       y       z     vdW  Elec       q    Type
REMARK                         _______ _______ _______ _____ _____    ______ ____
ROOT
ATOM      1  N   UNL     1      -2.119  -0.061   1.218  0.00  0.00    -0.314 N 
ATOM      2  C   UNL     1      -3.403  -0.406   1.442  0.00  0.00    +0.218 C 
ATOM      3  O   UNL     1      -3.990  -1.106   0.645  0.00  0.00    -0.275 OA
ATOM      4  H   UNL     1      -1.649   0.499   1.855  0.00  0.00    +0.149 HD
ENDROOT
BRANCH   1   5
ATOM      5  C   UNL     1      -1.433  -0.534   0.013  0.00  0.00    +0.115 C 
BRANCH   5   7
ATOM      6  C   UNL     1      -0.019   1.526   0.010  0.00  0.00    +0.017 C 
ATOM      7  C   UNL     1       0.002  -0.004   0.002  0.00  0.00    +0.006 C 
ATOM      8  C   UNL     1       0.742  -0.511   1.242  0.00  0.00    +0.017 C 
BRANCH   7   9
ATOM      9  C   UNL     1       0.707  -0.490  -1.238  0.00  0.00    -0.037 A 
ATOM     10  C   UNL     1       0.035  -1.284  -2.148  0.00  0.00    +0.008 A 
ATOM     11  C   UNL     1       0.677  -1.732  -3.287  0.00  0.00    +0.050 A 
ATOM     12  C   UNL     1       1.998  -1.386  -3.519  0.00  0.00    +0.166 A 
ATOM     13  C   UNL     1       2.676  -0.586  -2.602  0.00  0.00    +0.167 A 
ATOM     14  C   UNL     1       2.024  -0.136  -1.466  0.00  0.00    +0.053 A 
ATOM     15  O   UNL     1       3.950  -0.389  -3.053  0.00  0.00    -0.453 OA
ATOM     16  C   UNL     1       4.168  -1.409  -4.045  0.00  0.00    +0.466 C 
ATOM     17  O   UNL     1       2.847  -1.690  -4.544  0.00  0.00    -0.453 OA
ENDBRANCH   7   9
ENDBRANCH   5   7
ENDBRANCH   1   5
BRANCH   2  18
ATOM     18  C   UNL     1      -4.108   0.081   2.682  0.00  0.00    +0.138 C 
BRANCH  18  19
ATOM     19  C   UNL     1      -5.522  -0.441   2.692  0.00  0.00    +0.000 A 
ATOM     20  C   UNL     1      -6.003  -1.592   3.222  0.00  0.00    +0.013 A 
ATOM     21  C   UNL     1      -7.353  -1.868   3.113  0.00  0.00    +0.036 A 
ATOM     22  C   UNL     1      -8.156  -0.978   2.479  0.00  0.00    +0.143 A 
ATOM     23  S   UNL     1      -6.999   0.300   2.018  0.00  0.00    -0.073 S 
BRANCH  22  24
ATOM     24  S   UNL     1      -9.893  -1.060   2.192  0.00  0.00    +0.067 S 
ATOM     25  O   UNL     1     -10.156  -0.238   1.063  0.00  0.00    -0.152 OA
ATOM     26  O   UNL     1     -10.247  -2.435   2.232  0.00  0.00    -0.152 OA
BRANCH  24  27
ATOM     27  N   UNL     1     -10.637  -0.341   3.484  0.00  0.00    -0.176 NA
ATOM     28  C   UNL     1     -11.015  -1.131   4.665  0.00  0.00    +0.109 C 
ATOM     29  C   UNL     1     -10.418  -0.469   5.911  0.00  0.00    +0.017 C 
ATOM     30  C   UNL     1     -10.859   0.995   5.967  0.00  0.00    +0.003 C 
ATOM     31  C   UNL     1     -10.338   1.734   4.732  0.00  0.00    +0.017 C 
ATOM     32  C   UNL     1     -10.928   1.099   3.475  0.00  0.00    +0.109 C 
ENDBRANCH  24  27
ENDBRANCH  22  24
ENDBRANCH  18  19
ENDBRANCH   2  18
TORSDOF 7
