REMARK  Name = ZINC09330119
REMARK  8 active torsions:
REMARK  status: ('A' for Active; 'I' for Inactive)
REMARK    1  A    between atoms: C_1  and  C_2
REMARK    2  A    between atoms: C_2  and  C_3
REMARK    3  A    between atoms: C_3  and  N_4
REMARK    4  A    between atoms: C_15  and  C_16
REMARK    5  A    between atoms: C_15  and  O_25
REMARK    6  A    between atoms: N_30  and  C_31
REMARK    7  A    between atoms: C_31  and  C_32
REMARK    8  A    between atoms: C_32  and  N_67
REMARK                            x       y       z     vdW  Elec       q    Type
REMARK                         _______ _______ _______ _____ _____    ______ ____
ROOT
ATOM      1  N   UNL     1       1.386   3.828   0.592  0.00  0.00    -0.269 N 
ATOM      2  C   UNL     1       1.421   4.831   1.562  0.00  0.00    +0.042 A 
ATOM      3  C   UNL     1       1.462   4.753   2.952  0.00  0.00    +0.024 A 
ATOM      4  C   UNL     1       1.488   5.904   3.711  0.00  0.00    +0.002 A 
ATOM      5  C   UNL     1       1.475   7.145   3.099  0.00  0.00    +0.000 A 
ATOM      6  C   UNL     1       1.435   7.231   1.719  0.00  0.00    +0.008 A 
ATOM      7  C   UNL     1       1.408   6.084   0.958  0.00  0.00    +0.011 A 
ATOM      8  C   UNL     1       1.365   5.830  -0.526  0.00  0.00    +0.174 C 
ATOM      9  C   UNL     1       1.357   4.328  -0.657  0.00  0.00    +0.253 C 
ATOM     10  O   UNL     1       1.327   3.693  -1.690  0.00  0.00    -0.272 OA
ATOM     11  C   UNL     1       2.568   6.421  -1.212  0.00  0.00    +0.086 C 
ATOM     12  C   UNL     1       3.900   6.139  -0.952  0.00  0.00    +0.169 C 
ATOM     13  C   UNL     1       2.064   7.315  -2.168  0.00  0.00    +0.250 C 
ATOM     14  O   UNL     1       2.728   7.994  -2.932  0.00  0.00    -0.282 OA
ATOM     15  C   UNL     1       0.579   7.290  -2.090  0.00  0.00    +0.288 C 
ATOM     16  O   UNL     1      -0.166   7.952  -2.784  0.00  0.00    -0.266 OA
ATOM     17  N   UNL     1       0.182   6.428  -1.136  0.00  0.00    -0.275 N 
ENDROOT
BRANCH  12  18
ATOM     18  C   UNL     1       4.953   6.902  -1.622  0.00  0.00    +0.171 A 
ATOM     19  C   UNL     1       6.046   6.365  -2.233  0.00  0.00    +0.061 A 
ATOM     20  C   UNL     1       6.800   7.448  -2.751  0.00  0.00    +0.021 A 
ATOM     21  C   UNL     1       7.998   7.537  -3.469  0.00  0.00    +0.011 A 
ATOM     22  C   UNL     1       8.483   8.762  -3.828  0.00  0.00    +0.001 A 
ATOM     23  C   UNL     1       7.796   9.920  -3.487  0.00  0.00    +0.004 A 
ATOM     24  C   UNL     1       6.614   9.854  -2.782  0.00  0.00    +0.047 A 
ATOM     25  C   UNL     1       6.101   8.619  -2.405  0.00  0.00    +0.136 A 
ATOM     26  O   UNL     1       4.996   8.248  -1.726  0.00  0.00    -0.452 OA
ENDBRANCH  12  18
BRANCH  12  27
ATOM     27  O   UNL     1       4.226   5.160  -0.080  0.00  0.00    -0.503 OA
ATOM     28  H   UNL     1       5.221   5.092  -0.012  0.00  0.00    +0.292 HD
ENDBRANCH  12  27
BRANCH   1  29
ATOM     29  C   UNL     1       1.389   2.395   0.898  0.00  0.00    +0.113 C 
BRANCH  29  31
ATOM     30  C   UNL     1      -0.050   0.407   1.367  0.00  0.00    +0.005 C 
ATOM     31  C   UNL     1      -0.052   1.903   1.048  0.00  0.00    +0.016 C 
ENDBRANCH  29  31
ENDBRANCH   1  29
BRANCH  17  32
ATOM     32  C   UNL     1      -1.207   6.137  -0.771  0.00  0.00    +0.091 C 
BRANCH  32  33
ATOM     33  C   UNL     1      -1.657   7.098   0.332  0.00  0.00    -0.059 C 
BRANCH  33  39
ATOM     34  C   UNL     1      -3.961   7.109  -0.415  0.00  0.00    -0.050 C 
ATOM     35  C   UNL     1      -5.390   6.736  -0.013  0.00  0.00    +0.141 C 
ATOM     36  O   UNL     1      -5.743   7.437   1.182  0.00  0.00    -0.383 OA
ATOM     37  C   UNL     1      -4.876   7.165   2.286  0.00  0.00    +0.141 C 
ATOM     38  C   UNL     1      -3.441   7.543   1.908  0.00  0.00    -0.050 C 
ATOM     39  N   UNL     1      -3.052   6.780   0.703  0.00  0.00    +0.384 N 
ATOM     40  H   UNL     1      -3.123   5.776   0.906  0.00  0.00    -0.082 HD
ENDBRANCH  33  39
ENDBRANCH  32  33
ENDBRANCH  17  32
TORSDOF 7
