REMARK  Name = ZINC08437909
REMARK  12 active torsions:
REMARK  status: ('A' for Active; 'I' for Inactive)
REMARK    1  A    between atoms: C_1  and  N_2
REMARK    2  A    between atoms: C_3  and  S_7
REMARK    3  A    between atoms: S_7  and  C_8
REMARK    4  A    between atoms: C_8  and  C_9
REMARK    5  A    between atoms: C_9  and  N_10
REMARK    6  A    between atoms: N_10  and  C_11
REMARK    7  A    between atoms: C_11  and  C_12
REMARK    8  A    between atoms: C_14  and  O_28
REMARK    9  A    between atoms: C_15  and  O_19
REMARK   10  A    between atoms: O_19  and  C_20
REMARK   11  A    between atoms: C_20  and  C_21
REMARK   12  A    between atoms: O_28  and  C_29
REMARK                            x       y       z     vdW  Elec       q    Type
REMARK                         _______ _______ _______ _____ _____    ______ ____
ROOT
ATOM      1  C   UNL     1       0.018  -3.876  -8.141  0.00  0.00    -0.060 A 
ATOM      2  C   UNL     1       1.223  -4.457  -8.492  0.00  0.00    +0.051 A 
ATOM      3  C   UNL     1       1.239  -5.651  -9.194  0.00  0.00    +0.163 A 
ATOM      4  C   UNL     1       0.040  -6.264  -9.546  0.00  0.00    +0.176 A 
ATOM      5  C   UNL     1      -1.165  -5.677  -9.191  0.00  0.00    +0.063 A 
ATOM      6  C   UNL     1      -1.173  -4.487  -8.485  0.00  0.00    +0.021 A 
ATOM      7 BR   UNL     1      -2.796  -6.506  -9.667  0.00  0.00    -0.046 Br
ENDROOT
BRANCH   3   8
ATOM      8  O   UNL     1       2.423  -6.223  -9.540  0.00  0.00    -0.491 OA
ATOM      9  C   UNL     1       3.614  -5.537  -9.147  0.00  0.00    +0.277 C 
ENDBRANCH   3   8
BRANCH   1  10
ATOM     10  C   UNL     1       0.004  -2.578  -7.377  0.00  0.00    -0.047 C 
BRANCH  10  11
ATOM     11  N   UNL     1       0.014  -2.858  -5.935  0.00  0.00    +0.382 N 
ATOM     12  H   UNL     1       0.847  -3.377  -5.699  0.00  0.00    -0.085 HD
ATOM     13  H   UNL     1      -0.801  -3.400  -5.692  0.00  0.00    -0.085 HD
BRANCH  11  14
ATOM     14  C   UNL     1       0.000  -1.592  -5.190  0.00  0.00    -0.071 C 
BRANCH  14  15
ATOM     15  C   UNL     1       0.011  -1.884  -3.688  0.00  0.00    +0.058 C 
BRANCH  15  16
ATOM     16  S   UNL     1      -0.006  -0.321  -2.768  0.00  0.00    -0.086 S 
BRANCH  16  19
ATOM     17  C   UNL     1      -0.018   1.461   0.010  0.00  0.00    +0.177 C 
ATOM     18  N   UNL     1       0.002  -0.004   0.002  0.00  0.00    -0.223 N 
ATOM     19  C   UNL     1       0.008  -0.820  -1.078  0.00  0.00    +0.209 A 
ATOM     20  N   UNL     1       0.027  -2.056  -0.629  0.00  0.00    -0.102 NA
ATOM     21  N   UNL     1       0.033  -2.068   0.655  0.00  0.00    -0.022 NA
ATOM     22  N   UNL     1       0.025  -0.864   1.114  0.00  0.00    -0.043 NA
ENDBRANCH  16  19
ENDBRANCH  15  16
ENDBRANCH  14  15
ENDBRANCH  11  14
ENDBRANCH  10  11
ENDBRANCH   1  10
BRANCH   4  23
ATOM     23  O   UNL     1       0.050  -7.436 -10.236  0.00  0.00    -0.483 OA
BRANCH  23  24
ATOM     24  C   UNL     1       0.064  -8.641  -9.468  0.00  0.00    +0.267 C 
BRANCH  24  25
ATOM     25  C   UNL     1       0.074  -9.828 -10.396  0.00  0.00    +0.025 A 
ATOM     26  C   UNL     1       0.075  -9.635 -11.765  0.00  0.00    +0.010 A 
ATOM     27  C   UNL     1       0.084 -10.724 -12.617  0.00  0.00    +0.001 A 
ATOM     28  C   UNL     1       0.092 -12.007 -12.101  0.00  0.00    +0.003 A 
ATOM     29  C   UNL     1       0.091 -12.202 -10.733  0.00  0.00    +0.039 A 
ATOM     30  C   UNL     1       0.087 -11.112  -9.879  0.00  0.00    +0.130 A 
ATOM     31  F   UNL     1       0.091 -11.301  -8.541  0.00  0.00    -0.205 F 
ENDBRANCH  24  25
ENDBRANCH  23  24
ENDBRANCH   4  23
TORSDOF 10
