REMARK  Name = ZINC54359309
REMARK  2 active torsions:
REMARK  status: ('A' for Active; 'I' for Inactive)
REMARK    1  A    between atoms: C_6  and  C_7
REMARK    2  A    between atoms: N_13  and  C_14
REMARK                            x       y       z     vdW  Elec       q    Type
REMARK                         _______ _______ _______ _____ _____    ______ ____
ROOT
ATOM      1  C   UNL     1      -1.260  -0.759   0.010  0.00  0.00    +0.079 C 
ATOM      2  N   UNL     1      -1.215  -2.047   0.008  0.00  0.00    -0.176 NA
ATOM      3  N   UNL     1      -2.166  -2.885  -0.013  0.00  0.00    -0.259 N 
ATOM      4  C   UNL     1      -3.399  -2.622  -0.392  0.00  0.00    +0.149 C 
ATOM      5  S   UNL     1      -3.775  -0.977  -0.929  0.00  0.00    -0.085 S 
ATOM      6  C   UNL     1      -2.566   0.002   0.026  0.00  0.00    +0.134 C 
ATOM      7  N   UNL     1      -4.367  -3.597  -0.373  0.00  0.00    -0.321 N 
ATOM      8  H   UNL     1      -4.146  -4.494  -0.076  0.00  0.00    +0.148 HD
ATOM      9  H   UNL     1      -1.970  -3.791   0.274  0.00  0.00    +0.191 HD
ENDROOT
BRANCH   1  15
ATOM     10  C   UNL     1      -0.017   1.395   0.010  0.00  0.00    +0.011 A 
ATOM     11  C   UNL     1       1.168   2.098   0.002  0.00  0.00    +0.024 A 
ATOM     12  C   UNL     1       2.381   1.420  -0.013  0.00  0.00    +0.037 A 
ATOM     13  C   UNL     1       2.405   0.029  -0.020  0.00  0.00    -0.025 A 
ATOM     14  C   UNL     1       1.226  -0.682  -0.013  0.00  0.00    +0.015 A 
ATOM     15  C   UNL     1       0.002  -0.004   0.002  0.00  0.00    -0.001 A 
ATOM     16  C   UNL     1       3.724  -0.699  -0.035  0.00  0.00    +0.046 C 
ATOM     17  C   UNL     1       4.741   0.106  -0.846  0.00  0.00    +0.101 C 
ATOM     18  C   UNL     1       4.728   1.544  -0.403  0.00  0.00    +0.218 C 
ATOM     19  O   UNL     1       5.762   2.176  -0.390  0.00  0.00    -0.275 OA
ATOM     20  N   UNL     1       3.582   2.136  -0.020  0.00  0.00    -0.285 N 
ATOM     21  H   UNL     1       3.589   3.067   0.252  0.00  0.00    +0.155 HD
ENDBRANCH   1  15
BRANCH   7  22
ATOM     22  C   UNL     1      -5.732  -3.282  -0.800  0.00  0.00    +0.072 C 
ATOM     23  C   UNL     1      -6.511  -2.691   0.377  0.00  0.00    +0.022 C 
ATOM     24  C   UNL     1      -7.937  -2.363  -0.069  0.00  0.00    +0.002 C 
ATOM     25  C   UNL     1      -8.629  -3.640  -0.548  0.00  0.00    +0.000 C 
ATOM     26  C   UNL     1      -7.850  -4.231  -1.725  0.00  0.00    +0.002 C 
ATOM     27  C   UNL     1      -6.424  -4.560  -1.279  0.00  0.00    +0.022 C 
ENDBRANCH   7  22
TORSDOF 2
