REMARK  Name = ZINC59588738
REMARK  6 active torsions:
REMARK  status: ('A' for Active; 'I' for Inactive)
REMARK    1  A    between atoms: C_3  and  N_16
REMARK    2  A    between atoms: C_6  and  C_7
REMARK    3  A    between atoms: C_17  and  C_19
REMARK    4  A    between atoms: C_19  and  S_20
REMARK    5  A    between atoms: S_20  and  C_21
REMARK    6  A    between atoms: C_24  and  C_26
REMARK                            x       y       z     vdW  Elec       q    Type
REMARK                         _______ _______ _______ _____ _____    ______ ____
ROOT
ATOM      1  N   UNL     1       3.583   2.133  -0.021  0.00  0.00    -0.285 N 
ATOM      2  C   UNL     1       4.657   1.654   0.636  0.00  0.00    +0.228 C 
ATOM      3  O   UNL     1       4.612   0.559   1.157  0.00  0.00    -0.275 OA
ATOM      4  H   UNL     1       3.640   2.978  -0.494  0.00  0.00    +0.155 HD
ENDROOT
BRANCH   1   7
ATOM      5  C   UNL     1      -0.014   1.377  -0.001  0.00  0.00    +0.012 A 
ATOM      6  C   UNL     1       1.169   2.086  -0.002  0.00  0.00    +0.024 A 
ATOM      7  C   UNL     1       2.384   1.412  -0.020  0.00  0.00    +0.033 A 
ATOM      8  C   UNL     1       2.409   0.023  -0.038  0.00  0.00    +0.024 A 
ATOM      9  C   UNL     1       1.229  -0.690  -0.037  0.00  0.00    +0.012 A 
ATOM     10  C   UNL     1       0.009  -0.016  -0.018  0.00  0.00    -0.000 A 
BRANCH  10  11
ATOM     11  C   UNL     1      -1.262  -0.781  -0.017  0.00  0.00    +0.064 A 
ATOM     12  C   UNL     1      -2.516  -0.253  -0.006  0.00  0.00    +0.113 A 
ATOM     13  N   UNL     1      -3.381  -1.305  -0.009  0.00  0.00    -0.335 N 
ATOM     14  C   UNL     1      -2.643  -2.442  -0.022  0.00  0.00    +0.087 A 
ATOM     15  N   UNL     1      -1.382  -2.125  -0.033  0.00  0.00    -0.343 N 
ATOM     16  C   UNL     1      -3.236  -3.831  -0.027  0.00  0.00    +0.072 C 
ATOM     17  C   UNL     1      -4.710  -3.726   0.383  0.00  0.00    +0.009 C 
ATOM     18  C   UNL     1      -5.385  -2.624  -0.439  0.00  0.00    +0.022 C 
ATOM     19  C   UNL     1      -4.845  -1.258  -0.003  0.00  0.00    +0.123 C 
ATOM     20  H   UNL     1      -0.645  -2.755  -0.048  0.00  0.00    +0.167 HD
ENDBRANCH  10  11
ENDBRANCH   1   7
BRANCH   2  21
ATOM     21  C   UNL     1       5.916   2.478   0.723  0.00  0.00    +0.175 C 
BRANCH  21  22
ATOM     22  S   UNL     1       7.172   1.566   1.663  0.00  0.00    -0.056 S 
BRANCH  22  23
ATOM     23  C   UNL     1       8.563   2.647   1.675  0.00  0.00    +0.278 A 
ATOM     24  N   UNL     1       8.628   3.836   1.122  0.00  0.00    -0.101 NA
ATOM     25  N   UNL     1       9.794   4.341   1.328  0.00  0.00    -0.106 NA
ATOM     26  C   UNL     1      10.519   3.496   2.020  0.00  0.00    +0.249 A 
ATOM     27  O   UNL     1       9.753   2.408   2.259  0.00  0.00    -0.411 OA
BRANCH  26  28
ATOM     28  C   UNL     1      11.914   3.698   2.462  0.00  0.00    +0.039 A 
ATOM     29  C   UNL     1      12.569   2.704   3.191  0.00  0.00    +0.014 A 
ATOM     30  C   UNL     1      13.872   2.898   3.600  0.00  0.00    +0.021 A 
ATOM     31  C   UNL     1      14.530   4.076   3.289  0.00  0.00    +0.041 A 
ATOM     32  C   UNL     1      13.886   5.066   2.566  0.00  0.00    +0.021 A 
ATOM     33  C   UNL     1      12.585   4.881   2.146  0.00  0.00    +0.014 A 
ATOM     34 CL   UNL     1      16.169   4.313   3.808  0.00  0.00    -0.084 Cl
ENDBRANCH  26  28
ENDBRANCH  22  23
ENDBRANCH  21  22
ENDBRANCH   2  21
TORSDOF 6
