REMARK  Name = ZINC63253361
REMARK  10 active torsions:
REMARK  status: ('A' for Active; 'I' for Inactive)
REMARK    1  A    between atoms: C_1  and  C_2
REMARK    2  A    between atoms: C_6  and  N_8
REMARK    3  A    between atoms: C_9  and  C_28
REMARK    4  A    between atoms: C_12  and  S_13
REMARK    5  A    between atoms: S_13  and  C_14
REMARK    6  A    between atoms: C_14  and  C_15
REMARK    7  A    between atoms: N_17  and  C_18
REMARK    8  A    between atoms: C_23  and  C_24
REMARK    9  A    between atoms: C_24  and  O_26
REMARK   10  A    between atoms: O_26  and  C_27
REMARK                            x       y       z     vdW  Elec       q    Type
REMARK                         _______ _______ _______ _____ _____    ______ ____
ROOT
ATOM      1  N   UNL     1       0.060  -2.815   2.386  0.00  0.00    -0.270 N 
ATOM      2  C   UNL     1      -0.918  -3.672   2.867  0.00  0.00    +0.168 A 
ATOM      3  N   UNL     1      -0.487  -4.133   4.032  0.00  0.00    -0.128 NA
ATOM      4  N   UNL     1       0.665  -3.632   4.300  0.00  0.00    -0.122 NA
ATOM      5  C   UNL     1       1.050  -2.823   3.324  0.00  0.00    +0.197 A 
ENDROOT
BRANCH   2   6
ATOM      6  C   UNL     1      -2.132  -3.989   2.239  0.00  0.00    +0.025 C 
ATOM      7  C   UNL     1      -3.127  -4.844   2.712  0.00  0.00    +0.006 A 
ATOM      8  C   UNL     1      -3.241  -5.617   3.888  0.00  0.00    +0.010 A 
ATOM      9  C   UNL     1      -4.349  -6.375   4.091  0.00  0.00    +0.001 A 
ATOM     10  C   UNL     1      -5.391  -6.412   3.162  0.00  0.00    +0.002 A 
ATOM     11  C   UNL     1      -5.349  -5.695   2.011  0.00  0.00    +0.026 A 
ATOM     12  C   UNL     1      -4.223  -4.879   1.729  0.00  0.00    +0.043 A 
ATOM     13  N   UNL     1      -3.945  -4.101   0.702  0.00  0.00    -0.380 N 
ATOM     14  C   UNL     1      -2.638  -3.471   0.911  0.00  0.00    +0.152 C 
ATOM     15  H   UNL     1      -4.517  -3.964  -0.070  0.00  0.00    +0.160 HD
ENDBRANCH   2   6
BRANCH   1  21
ATOM     16  C   UNL     1      -0.046   1.506   0.040  0.00  0.00    +0.044 C 
ATOM     17  C   UNL     1      -0.013  -0.001   0.019  0.00  0.00    -0.048 A 
ATOM     18  C   UNL     1      -0.004  -0.674  -1.189  0.00  0.00    +0.003 A 
ATOM     19  C   UNL     1       0.026  -2.056  -1.213  0.00  0.00    +0.002 A 
ATOM     20  C   UNL     1       0.048  -2.769  -0.030  0.00  0.00    +0.026 A 
ATOM     21  C   UNL     1       0.038  -2.095   1.185  0.00  0.00    +0.051 A 
ATOM     22  C   UNL     1       0.014  -0.707   1.205  0.00  0.00    +0.029 A 
ENDBRANCH   1  21
BRANCH   5  23
ATOM     23  S   UNL     1       2.561  -1.920   3.252  0.00  0.00    -0.076 S 
BRANCH  23  24
ATOM     24  C   UNL     1       3.414  -2.370   4.789  0.00  0.00    +0.173 C 
BRANCH  24  25
ATOM     25  C   UNL     1       4.740  -1.656   4.855  0.00  0.00    +0.228 C 
ATOM     26  O   UNL     1       5.076  -0.917   3.954  0.00  0.00    -0.275 OA
ATOM     27  N   UNL     1       5.552  -1.839   5.915  0.00  0.00    -0.284 N 
ATOM     28  H   UNL     1       5.250  -2.366   6.671  0.00  0.00    +0.155 HD
BRANCH  27  29
ATOM     29  C   UNL     1       6.824  -1.273   5.923  0.00  0.00    +0.047 A 
ATOM     30  C   UNL     1       7.468  -0.985   4.727  0.00  0.00    +0.024 A 
ATOM     31  C   UNL     1       8.729  -0.423   4.738  0.00  0.00    +0.002 A 
ATOM     32  C   UNL     1       9.361  -0.142   5.939  0.00  0.00    +0.001 A 
ATOM     33  C   UNL     1       8.738  -0.420   7.136  0.00  0.00    +0.017 A 
ATOM     34  C   UNL     1       7.459  -0.984   7.141  0.00  0.00    +0.080 A 
BRANCH  34  35
ATOM     35  C   UNL     1       6.784  -1.279   8.417  0.00  0.00    +0.341 C 
ATOM     36  O   UNL     1       5.714  -1.855   8.420  0.00  0.00    -0.245 OA
BRANCH  35  37
ATOM     37  O   UNL     1       7.353  -0.910   9.582  0.00  0.00    -0.464 OA
ATOM     38  C   UNL     1       6.643  -1.227  10.780  0.00  0.00    +0.280 C 
ENDBRANCH  35  37
ENDBRANCH  34  35
ENDBRANCH  27  29
ENDBRANCH  24  25
ENDBRANCH  23  24
ENDBRANCH   5  23
TORSDOF 8
