REMARK  Name = ZINC64178637
REMARK  7 active torsions:
REMARK  status: ('A' for Active; 'I' for Inactive)
REMARK    1  A    between atoms: C_1  and  C_2
REMARK    2  A    between atoms: C_2  and  C_4
REMARK    3  A    between atoms: C_2  and  S_13
REMARK    4  A    between atoms: S_13  and  C_14
REMARK    5  A    between atoms: C_18  and  C_27
REMARK    6  A    between atoms: N_19  and  C_20
REMARK    7  A    between atoms: C_20  and  C_21
REMARK                            x       y       z     vdW  Elec       q    Type
REMARK                         _______ _______ _______ _____ _____    ______ ____
ROOT
ATOM      1  C   UNL     1      -0.062  -0.221   3.017  0.00  0.00    +0.237 C 
ATOM      2  N   UNL     1      -0.154   1.244   3.128  0.00  0.00    -0.237 N 
ATOM      3  N   UNL     1      -1.454   1.591   2.744  0.00  0.00    -0.169 NA
ATOM      4  C   UNL     1      -2.151   0.535   2.419  0.00  0.00    +0.147 C 
ATOM      5  N   UNL     1      -1.396  -0.636   2.551  0.00  0.00    -0.283 N 
ATOM      6  H   UNL     1       0.549   1.849   3.412  0.00  0.00    +0.171 HD
ENDROOT
BRANCH   4   7
ATOM      7  C   UNL     1      -3.489   0.569   1.994  0.00  0.00    +0.022 C 
ATOM      8  C   UNL     1      -4.269   1.701   1.757  0.00  0.00    +0.006 A 
ATOM      9  C   UNL     1      -4.000   3.083   1.856  0.00  0.00    +0.010 A 
ATOM     10  C   UNL     1      -4.972   3.982   1.555  0.00  0.00    +0.001 A 
ATOM     11  C   UNL     1      -6.244   3.574   1.146  0.00  0.00    +0.002 A 
ATOM     12  C   UNL     1      -6.572   2.264   1.030  0.00  0.00    +0.026 A 
ATOM     13  C   UNL     1      -5.608   1.266   1.327  0.00  0.00    +0.043 A 
ATOM     14  N   UNL     1      -5.677  -0.050   1.292  0.00  0.00    -0.380 N 
ATOM     15  C   UNL     1      -4.383  -0.613   1.691  0.00  0.00    +0.152 C 
ATOM     16  H   UNL     1      -6.458  -0.565   1.039  0.00  0.00    +0.160 HD
ENDBRANCH   4   7
BRANCH   1  17
ATOM     17  S   UNL     1       1.206  -0.688   1.807  0.00  0.00    -0.106 S 
BRANCH  17  19
ATOM     18  C   UNL     1       0.765   1.664   0.481  0.00  0.00    +0.029 C 
ATOM     19  C   UNL     1       0.688   0.149   0.283  0.00  0.00    +0.133 C 
BRANCH  19  20
ATOM     20  C   UNL     1       1.598  -0.257  -0.848  0.00  0.00    +0.232 C 
ATOM     21  O   UNL     1       2.692  -0.722  -0.608  0.00  0.00    -0.274 OA
ATOM     22  N   UNL     1       1.197  -0.103  -2.125  0.00  0.00    -0.254 N 
ATOM     23  C   UNL     1       2.036  -0.477  -3.167  0.00  0.00    +0.221 A 
ATOM     24  N   UNL     1       3.225  -0.988  -2.887  0.00  0.00    -0.223 NA
ATOM     25  C   UNL     1       4.049  -1.354  -3.855  0.00  0.00    +0.116 A 
ATOM     26  C   UNL     1       3.653  -1.197  -5.174  0.00  0.00    +0.039 A 
ATOM     27  C   UNL     1       2.402  -0.659  -5.431  0.00  0.00    +0.116 A 
ATOM     28  N   UNL     1       1.625  -0.319  -4.416  0.00  0.00    -0.223 NA
ATOM     29  H   UNL     1       0.322   0.269  -2.317  0.00  0.00    +0.158 HD
ENDBRANCH  19  20
ENDBRANCH  17  19
ENDBRANCH   1  17
BRANCH   5  30
ATOM     30  C   UNL     1      -1.841  -2.005   2.279  0.00  0.00    +0.140 C 
BRANCH  30  31
ATOM     31  C   UNL     1      -1.697  -2.301   0.784  0.00  0.00    +0.136 C 
ATOM     32  C   UNL     1      -2.288  -3.692   0.467  0.00  0.00    +0.035 C 
ATOM     33  C   UNL     1      -1.278  -4.248  -0.574  0.00  0.00    +0.031 C 
ATOM     34  C   UNL     1       0.046  -3.631  -0.059  0.00  0.00    +0.160 C 
ATOM     35  O   UNL     1      -0.311  -2.325   0.425  0.00  0.00    -0.375 OA
ENDBRANCH  30  31
ENDBRANCH   5  30
TORSDOF 6
