REMARK  Name = ZINC62316935
REMARK  10 active torsions:
REMARK  status: ('A' for Active; 'I' for Inactive)
REMARK    1  A    between atoms: C_1  and  C_2
REMARK    2  A    between atoms: C_2  and  O_3
REMARK    3  A    between atoms: O_3  and  C_4
REMARK    4  A    between atoms: C_4  and  C_5
REMARK    5  A    between atoms: C_12  and  C_14
REMARK    6  A    between atoms: C_14  and  C_16
REMARK    7  A    between atoms: C_14  and  C_22
REMARK    8  A    between atoms: C_16  and  C_17
REMARK    9  A    between atoms: C_25  and  O_28
REMARK   10  A    between atoms: O_28  and  C_29
REMARK                            x       y       z     vdW  Elec       q    Type
REMARK                         _______ _______ _______ _____ _____    ______ ____
ROOT
ATOM      1  C   UNL     1      -6.476  -5.319   0.877  0.00  0.00    +0.110 C 
ENDROOT
BRANCH   1   8
ATOM      2  C   UNL     1      -2.784  -2.364   0.930  0.00  0.00    +0.032 C 
ATOM      3  C   UNL     1      -3.438  -1.499  -0.150  0.00  0.00    +0.009 C 
ATOM      4  C   UNL     1      -4.934  -1.814  -0.221  0.00  0.00    +0.019 C 
ATOM      5  C   UNL     1      -5.124  -3.287  -0.599  0.00  0.00    +0.108 C 
ATOM      6  N   UNL     1      -4.377  -4.120   0.353  0.00  0.00    -0.301 N 
ATOM      7  C   UNL     1      -2.950  -3.842   0.567  0.00  0.00    +0.113 C 
ATOM      8  C   UNL     1      -4.989  -5.119   1.019  0.00  0.00    +0.223 C 
ATOM      9  O   UNL     1      -4.343  -5.857   1.732  0.00  0.00    -0.275 OA
BRANCH   2  10
ATOM     10  C   UNL     1      -1.295  -2.025   1.023  0.00  0.00    +0.164 C 
BRANCH  10  11
ATOM     11  O   UNL     1      -1.140  -0.677   1.474  0.00  0.00    -0.380 OA
BRANCH  11  13
ATOM     12  C   UNL     1       0.265   1.192   2.083  0.00  0.00    +0.034 C 
ATOM     13  C   UNL     1       0.220  -0.258   1.596  0.00  0.00    +0.156 C 
ENDBRANCH  11  13
ENDBRANCH  10  11
ENDBRANCH   2  10
ENDBRANCH   1   8
BRANCH   1  14
ATOM     14  C   UNL     1      -7.005  -6.034   2.094  0.00  0.00    -0.035 A 
ATOM     15  C   UNL     1      -6.523  -7.288   2.422  0.00  0.00    +0.008 A 
ATOM     16  C   UNL     1      -7.006  -7.945   3.536  0.00  0.00    +0.046 A 
ATOM     17  C   UNL     1      -7.976  -7.346   4.327  0.00  0.00    +0.120 A 
ATOM     18  C   UNL     1      -8.458  -6.088   3.996  0.00  0.00    +0.046 A 
ATOM     19  C   UNL     1      -7.967  -5.432   2.883  0.00  0.00    +0.008 A 
BRANCH  17  20
ATOM     20  O   UNL     1      -8.454  -7.991   5.424  0.00  0.00    -0.495 OA
ATOM     21  C   UNL     1      -9.451  -7.314   6.191  0.00  0.00    +0.277 C 
ENDBRANCH  17  20
ENDBRANCH   1  14
BRANCH   1  22
ATOM     22  C   UNL     1      -6.760  -6.158  -0.371  0.00  0.00    +0.060 C 
BRANCH  22  23
ATOM     23  C   UNL     1      -8.249  -6.250  -0.585  0.00  0.00    -0.009 A 
ATOM     24  C   UNL     1      -9.060  -5.436  -1.303  0.00  0.00    +0.011 A 
ATOM     25  C   UNL     1     -10.412  -5.718  -1.361  0.00  0.00    +0.008 A 
ATOM     26  C   UNL     1     -10.887  -6.801  -0.699  0.00  0.00    +0.045 A 
ATOM     27  S   UNL     1      -9.400  -7.466   0.034  0.00  0.00    -0.102 S 
ENDBRANCH  22  23
ENDBRANCH   1  22
TORSDOF 8
