REMARK  Name = ZINC64056468
REMARK  7 active torsions:
REMARK  status: ('A' for Active; 'I' for Inactive)
REMARK    1  A    between atoms: C_4  and  C_7
REMARK    2  A    between atoms: C_9  and  C_17
REMARK    3  A    between atoms: C_17  and  C_19
REMARK    4  A    between atoms: C_19  and  O_20
REMARK    5  A    between atoms: O_20  and  C_21
REMARK    6  A    between atoms: C_21  and  C_23
REMARK    7  A    between atoms: C_23  and  N_24
REMARK                            x       y       z     vdW  Elec       q    Type
REMARK                         _______ _______ _______ _____ _____    ______ ____
ROOT
ATOM      1  C   UNL     1       4.194  -0.399  -2.594  0.00  0.00    +0.199 C 
ATOM      2  O   UNL     1       4.099   0.809  -2.523  0.00  0.00    -0.289 OA
ENDROOT
BRANCH   1   4
ATOM      3  C   UNL     1       3.711  -0.707  -0.038  0.00  0.00    +0.144 C 
ATOM      4  C   UNL     1       4.019  -1.190  -1.438  0.00  0.00    +0.034 C 
ATOM      5  C   UNL     1       4.095  -2.568  -1.348  0.00  0.00    +0.007 A 
ATOM      6  C   UNL     1       4.350  -3.582  -2.301  0.00  0.00    +0.010 A 
ATOM      7  C   UNL     1       4.362  -4.881  -1.927  0.00  0.00    +0.001 A 
ATOM      8  C   UNL     1       4.128  -5.286  -0.603  0.00  0.00    +0.002 A 
ATOM      9  C   UNL     1       3.876  -4.398   0.383  0.00  0.00    +0.026 A 
ATOM     10  C   UNL     1       3.844  -2.962   0.060  0.00  0.00    +0.044 A 
ATOM     11  N   UNL     1       3.628  -1.909   0.798  0.00  0.00    -0.373 N 
ATOM     12  H   UNL     1       3.442  -1.918   1.750  0.00  0.00    +0.161 HD
BRANCH   3  16
ATOM     13  C   UNL     1      -0.017   1.378   0.010  0.00  0.00    +0.000 A 
ATOM     14  C   UNL     1       1.171   2.086   0.002  0.00  0.00    +0.000 A 
ATOM     15  C   UNL     1       2.377   1.411  -0.013  0.00  0.00    +0.006 A 
ATOM     16  C   UNL     1       2.396   0.029  -0.020  0.00  0.00    -0.021 A 
ATOM     17  C   UNL     1       1.208  -0.679  -0.012  0.00  0.00    +0.006 A 
ATOM     18  C   UNL     1       0.002  -0.004   0.002  0.00  0.00    +0.000 A 
ENDBRANCH   3  16
ENDBRANCH   1   4
BRANCH   1  19
ATOM     19  C   UNL     1       4.498  -1.055  -3.916  0.00  0.00    +0.311 C 
BRANCH  19  20
ATOM     20  O   UNL     1       4.630  -0.052  -4.926  0.00  0.00    -0.455 OA
BRANCH  20  21
ATOM     21  C   UNL     1       4.904  -0.473  -6.171  0.00  0.00    +0.325 C 
ATOM     22  O   UNL     1       5.027  -1.654  -6.396  0.00  0.00    -0.249 OA
BRANCH  21  23
ATOM     23  C   UNL     1       5.057   0.527  -7.288  0.00  0.00    +0.230 C 
BRANCH  23  24
ATOM     24  N   UNL     1       5.350  -0.179  -8.538  0.00  0.00    -0.271 N 
ATOM     25  C   UNL     1       6.742  -0.447  -8.902  0.00  0.00    +0.214 C 
ATOM     26  N   UNL     1       6.841  -1.711  -9.641  0.00  0.00    -0.328 N 
ATOM     27  C   UNL     1       5.899  -1.986 -10.626  0.00  0.00    +0.040 A 
ATOM     28  C   UNL     1       6.200  -2.780 -11.720  0.00  0.00    +0.024 A 
ATOM     29  C   UNL     1       5.228  -3.035 -12.668  0.00  0.00    +0.002 A 
ATOM     30  C   UNL     1       3.955  -2.502 -12.533  0.00  0.00    +0.001 A 
ATOM     31  C   UNL     1       3.641  -1.705 -11.452  0.00  0.00    +0.015 A 
ATOM     32  C   UNL     1       4.613  -1.436 -10.491  0.00  0.00    +0.058 A 
ATOM     33  C   UNL     1       4.333  -0.575  -9.329  0.00  0.00    +0.250 C 
ATOM     34  O   UNL     1       3.195  -0.221  -9.088  0.00  0.00    -0.270 OA
ATOM     35  H   UNL     1       7.550  -2.343  -9.445  0.00  0.00    +0.148 HD
ENDBRANCH  23  24
ENDBRANCH  21  23
ENDBRANCH  20  21
ENDBRANCH  19  20
ENDBRANCH   1  19
TORSDOF 7
