REMARK  Name = ZINC16734831
REMARK  8 active torsions:
REMARK  status: ('A' for Active; 'I' for Inactive)
REMARK    1  A    between atoms: C_1  and  C_2
REMARK    2  A    between atoms: C_5  and  C_8
REMARK    3  A    between atoms: C_8  and  N_9
REMARK    4  A    between atoms: C_13  and  C_14
REMARK    5  A    between atoms: C_15  and  N_26
REMARK    6  A    between atoms: C_20  and  C_25
REMARK    7  A    between atoms: N_26  and  C_27
REMARK    8  A    between atoms: C_27  and  C_28
REMARK                            x       y       z     vdW  Elec       q    Type
REMARK                         _______ _______ _______ _____ _____    ______ ____
ROOT
ATOM      1  C   UNL     1      -3.332   0.796  -5.146  0.00  0.00    +0.081 A 
ATOM      2  C   UNL     1      -3.177   0.499  -3.771  0.00  0.00    +0.134 A 
ATOM      3  N   UNL     1      -3.876  -0.491  -3.234  0.00  0.00    -0.214 NA
ATOM      4  C   UNL     1      -4.723  -1.223  -3.959  0.00  0.00    +0.142 A 
ATOM      5  C   UNL     1      -5.438  -2.260  -3.334  0.00  0.00    +0.047 A 
ATOM      6  C   UNL     1      -6.306  -3.014  -4.066  0.00  0.00    +0.008 A 
ATOM      7  C   UNL     1      -6.474  -2.745  -5.431  0.00  0.00    -0.034 A 
ATOM      8  C   UNL     1      -5.779  -1.743  -6.015  0.00  0.00    +0.099 A 
ATOM      9  N   UNL     1      -4.909  -0.984  -5.292  0.00  0.00    -0.267 N 
ATOM     10  C   UNL     1      -4.230   0.009  -5.906  0.00  0.00    +0.267 A 
ATOM     11  O   UNL     1      -4.392   0.228  -7.095  0.00  0.00    -0.267 OA
ATOM     12  C   UNL     1      -7.432  -3.572  -6.249  0.00  0.00    +0.045 C 
ENDROOT
BRANCH   1  17
ATOM     13  N   UNL     1      -2.246   5.411  -4.963  0.00  0.00    -0.251 N 
ATOM     14  C   UNL     1      -1.970   4.287  -5.602  0.00  0.00    +0.259 C 
ATOM     15  O   UNL     1      -1.122   4.256  -6.477  0.00  0.00    -0.269 OA
ATOM     16  C   UNL     1      -2.695   3.115  -5.243  0.00  0.00    +0.077 C 
ATOM     17  C   UNL     1      -2.604   1.850  -5.746  0.00  0.00    +0.037 C 
ATOM     18  S   UNL     1      -3.751   3.751  -3.949  0.00  0.00    -0.061 S 
ATOM     19  C   UNL     1      -3.182   5.444  -3.988  0.00  0.00    +0.121 C 
ATOM     20  S   UNL     1      -3.692   6.771  -3.034  0.00  0.00    -0.027 S 
BRANCH  13  21
ATOM     21  C   UNL     1      -1.524   6.636  -5.312  0.00  0.00    +0.150 C 
BRANCH  21  26
ATOM     22  C   UNL     1       3.241   7.053  -2.069  0.00  0.00    +0.044 C 
ATOM     23  C   UNL     1       1.998   6.944  -2.915  0.00  0.00    -0.050 A 
ATOM     24  C   UNL     1       2.047   6.294  -4.134  0.00  0.00    +0.003 A 
ATOM     25  C   UNL     1       0.907   6.194  -4.910  0.00  0.00    +0.005 A 
ATOM     26  C   UNL     1      -0.281   6.745  -4.467  0.00  0.00    -0.030 A 
ATOM     27  C   UNL     1      -0.328   7.401  -3.251  0.00  0.00    +0.005 A 
ATOM     28  C   UNL     1       0.811   7.496  -2.472  0.00  0.00    +0.003 A 
ENDBRANCH  21  26
ENDBRANCH  13  21
ENDBRANCH   1  17
BRANCH   2  29
ATOM     29  N   UNL     1      -2.311   1.237  -2.995  0.00  0.00    -0.326 N 
ATOM     30  H   UNL     1      -1.800   1.960  -3.392  0.00  0.00    +0.148 HD
BRANCH  29  31
ATOM     31  C   UNL     1      -2.159   0.929  -1.571  0.00  0.00    +0.134 C 
BRANCH  31  32
ATOM     32  C   UNL     1      -1.145   1.889  -0.947  0.00  0.00    +0.135 C 
ATOM     33  C   UNL     1      -0.971   1.565   0.553  0.00  0.00    +0.035 C 
ATOM     34  C   UNL     1       0.559   1.761   0.759  0.00  0.00    +0.031 C 
ATOM     35  C   UNL     1       1.101   1.282  -0.612  0.00  0.00    +0.160 C 
ATOM     36  O   UNL     1       0.132   1.724  -1.576  0.00  0.00    -0.375 OA
ENDBRANCH  31  32
ENDBRANCH  29  31
ENDBRANCH   2  29
TORSDOF 6
