REMARK  Name = ZINC49279597
REMARK  7 active torsions:
REMARK  status: ('A' for Active; 'I' for Inactive)
REMARK    1  A    between atoms: C_1  and  C_2
REMARK    2  A    between atoms: C_2  and  C_3
REMARK    3  A    between atoms: C_3  and  N_4
REMARK    4  A    between atoms: N_7  and  N_8
REMARK    5  A    between atoms: C_9  and  C_11
REMARK    6  A    between atoms: C_14  and  C_16
REMARK    7  A    between atoms: C_16  and  C_17
REMARK                            x       y       z     vdW  Elec       q    Type
REMARK                         _______ _______ _______ _____ _____    ______ ____
ROOT
ATOM      1  N   UNL     1      -1.330  -4.720  -0.011  0.00  0.00    -0.229 N 
ATOM      2  C   UNL     1      -1.312  -6.067  -0.018  0.00  0.00    +0.267 C 
ATOM      3  O   UNL     1      -2.358  -6.690  -0.011  0.00  0.00    -0.268 OA
ATOM      4  H   UNL     1      -0.497  -4.223  -0.016  0.00  0.00    +0.173 HD
ENDROOT
BRANCH   1   8
ATOM      5  N   UNL     1      -1.413  -1.998   0.005  0.00  0.00    -0.298 N 
ATOM      6  C   UNL     1      -2.571  -2.688   0.012  0.00  0.00    +0.316 C 
ATOM      7  O   UNL     1      -3.632  -2.095   0.025  0.00  0.00    -0.251 OA
ATOM      8  N   UNL     1      -2.553  -4.036   0.005  0.00  0.00    -0.218 N 
ATOM      9  H   UNL     1      -0.567  -2.472  -0.006  0.00  0.00    +0.150 HD
ATOM     10  H   UNL     1      -3.386  -4.532   0.010  0.00  0.00    +0.174 HD
BRANCH   5  11
ATOM     11  C   UNL     1      -1.433  -0.534   0.013  0.00  0.00    +0.105 C 
BRANCH  11  13
ATOM     12  C   UNL     1      -0.019   1.526   0.010  0.00  0.00    +0.005 C 
ATOM     13  C   UNL     1       0.002  -0.004   0.002  0.00  0.00    +0.015 C 
ENDBRANCH  11  13
ENDBRANCH   5  11
ENDBRANCH   1   8
BRANCH   2  14
ATOM     14  C   UNL     1      -0.033  -6.783  -0.034  0.00  0.00    +0.076 A 
ATOM     15  C   UNL     1       0.204  -8.149  -0.049  0.00  0.00    +0.021 A 
ATOM     16  C   UNL     1       1.526  -8.525  -0.063  0.00  0.00    +0.012 A 
ATOM     17  C   UNL     1       2.484  -7.566  -0.061  0.00  0.00    -0.010 A 
ATOM     18  S   UNL     1       1.623  -6.124  -0.047  0.00  0.00    -0.089 S 
BRANCH  17  19
ATOM     19  C   UNL     1       3.980  -7.752  -0.073  0.00  0.00    +0.039 C 
ATOM     20  C   UNL     1       4.476  -7.801  -1.520  0.00  0.00    +0.009 C 
ENDBRANCH  17  19
ENDBRANCH   2  14
TORSDOF 5
