REMARK  Name = ZINC39695681
REMARK  7 active torsions:
REMARK  status: ('A' for Active; 'I' for Inactive)
REMARK    1  A    between atoms: C_1  and  C_2
REMARK    2  A    between atoms: C_5  and  C_8
REMARK    3  A    between atoms: C_12  and  C_21
REMARK    4  A    between atoms: N_23  and  C_24
REMARK    5  A    between atoms: C_24  and  C_26
REMARK    6  A    between atoms: C_24  and  C_27
REMARK    7  A    between atoms: C_33  and  C_37
REMARK                            x       y       z     vdW  Elec       q    Type
REMARK                         _______ _______ _______ _____ _____    ______ ____
ROOT
ATOM      1  C   UNL     1       0.057  -4.258  -0.024  0.00  0.00    +0.247 C 
ATOM      2  O   UNL     1      -0.050  -4.863  -1.073  0.00  0.00    -0.270 OA
ATOM      3  N   UNL     1       0.174  -4.934   1.136  0.00  0.00    -0.296 N 
ATOM      4  C   UNL     1       0.186  -4.383   2.511  0.00  0.00    +0.121 C 
ATOM      5  C   UNL     1      -0.633  -5.396   3.344  0.00  0.00    +0.100 C 
ATOM      6  C   UNL     1      -0.539  -6.715   2.560  0.00  0.00    -0.004 C 
ATOM      7  C   UNL     1       0.314  -6.398   1.324  0.00  0.00    +0.115 C 
ATOM      8  C   UNL     1      -1.929  -7.175   2.131  0.00  0.00    -0.010 C 
ATOM      9  C   UNL     1      -1.815  -8.518   1.403  0.00  0.00    -0.082 C 
ATOM     10  N   UNL     1      -1.204  -9.510   2.296  0.00  0.00    +0.379 N 
ATOM     11  C   UNL     1       0.167  -9.105   2.630  0.00  0.00    -0.082 C 
ATOM     12  C   UNL     1       0.138  -7.787   3.409  0.00  0.00    -0.010 C 
ATOM     13  H   UNL     1      -1.748  -9.579   3.143  0.00  0.00    -0.086 HD
ATOM     14  H   UNL     1      -1.185 -10.408   1.836  0.00  0.00    -0.086 HD
ENDROOT
BRANCH   1  19
ATOM     15  C   UNL     1       0.061   1.497  -0.011  0.00  0.00    +0.044 C 
ATOM     16  C   UNL     1       0.060  -0.010  -0.014  0.00  0.00    -0.050 A 
ATOM     17  C   UNL     1      -0.547  -0.696  -1.052  0.00  0.00    +0.004 A 
ATOM     18  C   UNL     1      -0.551  -2.076  -1.061  0.00  0.00    +0.013 A 
ATOM     19  C   UNL     1       0.058  -2.779  -0.021  0.00  0.00    +0.037 A 
ATOM     20  C   UNL     1       0.669  -2.081   1.022  0.00  0.00    +0.013 A 
ATOM     21  C   UNL     1       0.671  -0.702   1.017  0.00  0.00    +0.004 A 
ENDBRANCH   1  19
BRANCH   5  22
ATOM     22  C   UNL     1      -2.068  -4.947   3.452  0.00  0.00    +0.219 C 
ATOM     23  O   UNL     1      -2.595  -4.375   2.522  0.00  0.00    -0.275 OA
ATOM     24  N   UNL     1      -2.764  -5.184   4.581  0.00  0.00    -0.305 N 
ATOM     25  H   UNL     1      -2.342  -5.642   5.324  0.00  0.00    +0.149 HD
BRANCH  24  26
ATOM     26  C   UNL     1      -4.159  -4.748   4.686  0.00  0.00    +0.136 C 
ATOM     27  C   UNL     1      -5.073  -5.812   4.074  0.00  0.00    +0.036 C 
BRANCH  26  28
ATOM     28  C   UNL     1      -4.517  -4.553   6.137  0.00  0.00    +0.128 A 
ATOM     29  H   UNL     1      -6.076  -3.168   6.052  0.00  0.00    +0.167 HD
ATOM     30  N   UNL     1      -3.931  -5.146   7.135  0.00  0.00    -0.231 NA
ATOM     31  C   UNL     1      -4.498  -4.745   8.302  0.00  0.00    +0.089 A 
ATOM     32  C   UNL     1      -4.266  -5.056   9.644  0.00  0.00    +0.030 A 
ATOM     33  C   UNL     1      -5.023  -4.472  10.619  0.00  0.00    +0.005 A 
ATOM     34  C   UNL     1      -6.025  -3.569  10.292  0.00  0.00    -0.048 A 
ATOM     35  C   UNL     1      -6.272  -3.247   8.974  0.00  0.00    +0.031 A 
ATOM     36  C   UNL     1      -5.512  -3.830   7.970  0.00  0.00    +0.067 A 
ATOM     37  N   UNL     1      -5.496  -3.726   6.593  0.00  0.00    -0.340 N 
ATOM     38  C   UNL     1      -6.848  -2.937  11.384  0.00  0.00    +0.044 C 
ENDBRANCH  26  28
ENDBRANCH  24  26
ENDBRANCH   5  22
TORSDOF 4
