REMARK  Name = ZINC35326392
REMARK  7 active torsions:
REMARK  status: ('A' for Active; 'I' for Inactive)
REMARK    1  A    between atoms: C_1  and  C_2
REMARK    2  A    between atoms: C_5  and  C_22
REMARK    3  A    between atoms: C_13  and  C_15
REMARK    4  A    between atoms: C_15  and  C_16
REMARK    5  A    between atoms: C_16  and  C_17
REMARK    6  A    between atoms: C_17  and  C_18
REMARK    7  A    between atoms: C_18  and  C_19
REMARK                            x       y       z     vdW  Elec       q    Type
REMARK                         _______ _______ _______ _____ _____    ______ ____
ROOT
ATOM      1  C   UNL     1      -0.025   1.519   0.016  0.00  0.00    +0.009 C 
ATOM      2  C   UNL     1       0.000  -0.011   0.006  0.00  0.00    +0.004 C 
ATOM      3  C   UNL     1       0.717  -0.502  -1.253  0.00  0.00    +0.009 C 
ATOM      4  C   UNL     1       2.140   0.060  -1.284  0.00  0.00    +0.004 C 
ATOM      5  C   UNL     1       2.911  -0.446  -0.061  0.00  0.00    +0.112 C 
ATOM      6  N   UNL     1       2.153  -0.104   1.151  0.00  0.00    -0.285 N 
ATOM      7  C   UNL     1       0.746  -0.517   1.245  0.00  0.00    +0.112 C 
ATOM      8  C   UNL     1       2.738   0.577   2.157  0.00  0.00    +0.308 C 
ATOM      9  O   UNL     1       2.077   0.937   3.111  0.00  0.00    -0.252 OA
ATOM     10  N   UNL     1       4.055   0.857   2.104  0.00  0.00    -0.240 N 
ATOM     11  C   UNL     1       4.660   1.447   3.155  0.00  0.00    +0.220 C 
ATOM     12  O   UNL     1       4.020   1.724   4.146  0.00  0.00    -0.275 OA
ATOM     13  C   UNL     1       2.845  -0.405  -2.560  0.00  0.00    +0.009 C 
ATOM     14  H   UNL     1       4.567   0.635   1.311  0.00  0.00    +0.159 HD
ENDROOT
BRANCH  11  15
ATOM     15  C   UNL     1       6.133   1.761   3.096  0.00  0.00    +0.096 C 
BRANCH  15  16
ATOM     16  C   UNL     1       6.566   2.422   4.406  0.00  0.00    +0.010 C 
BRANCH  16  17
ATOM     17  C   UNL     1       8.061   2.741   4.347  0.00  0.00    +0.012 C 
BRANCH  17  18
ATOM     18  C   UNL     1       8.494   3.402   5.657  0.00  0.00    +0.125 C 
BRANCH  18  19
ATOM     19  C   UNL     1       9.966   3.717   5.599  0.00  0.00    +0.356 C 
ATOM     20  O   UNL     1      10.610   3.438   4.602  0.00  0.00    -0.246 OA
ATOM     21  O   UNL     1      10.514   4.250   6.549  0.00  0.00    -0.246 OA
ENDBRANCH  18  19
ENDBRANCH  17  18
ENDBRANCH  16  17
ENDBRANCH  15  16
ENDBRANCH  11  15
TORSDOF 5
