REMARK  Name = ZINC10390262
REMARK  4 active torsions:
REMARK  status: ('A' for Active; 'I' for Inactive)
REMARK    1  A    between atoms: C_12  and  C_14
REMARK    2  A    between atoms: C_14  and  O_15
REMARK    3  A    between atoms: O_15  and  C_16
REMARK    4  A    between atoms: C_16  and  C_18
REMARK                            x       y       z     vdW  Elec       q    Type
REMARK                         _______ _______ _______ _____ _____    ______ ____
ROOT
ATOM      1  C   UNL     1       3.107  -1.180   2.976  0.00  0.00    +0.002 A 
ATOM      2  C   UNL     1       2.375  -1.285   1.808  0.00  0.00    +0.002 A 
ATOM      3  C   UNL     1       1.243  -0.510   1.624  0.00  0.00    +0.025 A 
ATOM      4  C   UNL     1       0.845   0.366   2.613  0.00  0.00    +0.059 A 
ATOM      5  C   UNL     1       1.589   0.485   3.791  0.00  0.00    +0.055 A 
ATOM      6  C   UNL     1       2.719  -0.299   3.968  0.00  0.00    +0.025 A 
ATOM      7  N   UNL     1       1.186   1.393   4.777  0.00  0.00    -0.282 N 
ATOM      8  C   UNL     1      -0.060   1.907   4.766  0.00  0.00    +0.241 C 
ATOM      9  O   UNL     1      -0.400   2.679   5.638  0.00  0.00    -0.273 OA
ATOM     10  C   UNL     1      -1.032   1.531   3.682  0.00  0.00    +0.118 C 
ATOM     11  N   UNL     1      -0.302   1.164   2.463  0.00  0.00    -0.252 N 
ATOM     12  C   UNL     1      -0.718   1.572   1.248  0.00  0.00    +0.258 C 
ATOM     13  O   UNL     1      -1.791   2.125   1.128  0.00  0.00    -0.271 OA
ATOM     14  C   UNL     1      -1.905   0.351   4.142  0.00  0.00    +0.036 C 
ATOM     15  C   UNL     1      -3.198   1.021   4.674  0.00  0.00    +0.003 C 
ATOM     16  C   UNL     1      -3.408   2.195   3.684  0.00  0.00    +0.003 C 
ATOM     17  C   UNL     1      -1.980   2.703   3.391  0.00  0.00    +0.036 C 
ATOM     18  H   UNL     1       1.808   1.654   5.473  0.00  0.00    +0.155 HD
ENDROOT
BRANCH  12  19
ATOM     19  C   UNL     1       0.150   1.340   0.038  0.00  0.00    +0.328 C 
BRANCH  19  20
ATOM     20  O   UNL     1      -0.284   2.209  -1.042  0.00  0.00    -0.452 OA
BRANCH  20  21
ATOM     21  C   UNL     1       0.393   2.125  -2.204  0.00  0.00    +0.341 C 
ATOM     22  O   UNL     1       1.321   1.348  -2.312  0.00  0.00    -0.245 OA
BRANCH  21  23
ATOM     23  C   UNL     1       0.008   2.978  -3.346  0.00  0.00    +0.079 A 
ATOM     24  C   UNL     1      -1.061   3.868  -3.227  0.00  0.00    +0.036 A 
ATOM     25  C   UNL     1      -1.412   4.666  -4.297  0.00  0.00    +0.042 A 
ATOM     26  C   UNL     1      -0.714   4.578  -5.490  0.00  0.00    +0.021 A 
ATOM     27  C   UNL     1       0.343   3.695  -5.617  0.00  0.00    +0.022 A 
ATOM     28  C   UNL     1       0.708   2.894  -4.552  0.00  0.00    +0.055 A 
ATOM     29 CL   UNL     1       2.035   1.786  -4.713  0.00  0.00    -0.083 Cl
ATOM     30 CL   UNL     1      -2.737   5.778  -4.150  0.00  0.00    -0.084 Cl
ENDBRANCH  21  23
ENDBRANCH  20  21
ENDBRANCH  19  20
ENDBRANCH  12  19
TORSDOF 4
