REMARK  Name = ZINC44997614
REMARK  10 active torsions:
REMARK  status: ('A' for Active; 'I' for Inactive)
REMARK    1  A    between atoms: C_1  and  C_2
REMARK    2  A    between atoms: C_2  and  C_3
REMARK    3  A    between atoms: C_2  and  S_16
REMARK    4  A    between atoms: C_3  and  O_5
REMARK    5  A    between atoms: O_5  and  C_6
REMARK    6  A    between atoms: C_10  and  C_12
REMARK    7  A    between atoms: C_12  and  O_14
REMARK    8  A    between atoms: O_14  and  C_15
REMARK    9  A    between atoms: S_16  and  C_17
REMARK   10  A    between atoms: C_20  and  N_23
REMARK                            x       y       z     vdW  Elec       q    Type
REMARK                         _______ _______ _______ _____ _____    ______ ____
ROOT
ATOM      1  C   UNL     1       1.000   0.133  -1.393  0.00  0.00    +0.325 C 
ATOM      2  O   UNL     1       2.204   0.096  -1.301  0.00  0.00    -0.249 OA
ENDROOT
BRANCH   1   4
ATOM      3  C   UNL     1      -0.294   1.667   0.063  0.00  0.00    +0.031 C 
ATOM      4  C   UNL     1       0.151   0.220  -0.151  0.00  0.00    +0.157 C 
BRANCH   4   5
ATOM      5  S   UNL     1       1.118  -0.334   1.281  0.00  0.00    -0.111 S 
BRANCH   5   6
ATOM      6  C   UNL     1       1.294  -2.069   1.032  0.00  0.00    +0.009 A 
ATOM      7  C   UNL     1       0.724  -2.674  -0.081  0.00  0.00    +0.017 A 
ATOM      8  C   UNL     1       0.864  -4.035  -0.273  0.00  0.00    +0.034 A 
ATOM      9  C   UNL     1       1.570  -4.795   0.641  0.00  0.00    +0.126 A 
ATOM     10  C   UNL     1       2.138  -4.196   1.751  0.00  0.00    +0.034 A 
ATOM     11  C   UNL     1       2.008  -2.835   1.946  0.00  0.00    +0.017 A 
BRANCH   9  12
ATOM     12  N   UNL     1       1.717  -6.252   0.432  0.00  0.00    +0.056 N 
ATOM     13  O   UNL     1       1.221  -6.777  -0.537  0.00  0.00    -0.126 OA
ATOM     14  O   UNL     1       2.334  -6.918   1.231  0.00  0.00    -0.126 OA
ENDBRANCH   9  12
ENDBRANCH   5   6
ENDBRANCH   4   5
ENDBRANCH   1   4
BRANCH   1  15
ATOM     15  O   UNL     1       0.417   0.097  -2.602  0.00  0.00    -0.425 OA
BRANCH  15  16
ATOM     16  C   UNL     1       1.211  -0.103  -3.688  0.00  0.00    +0.132 A 
ATOM     17  C   UNL     1       1.786  -1.348  -3.907  0.00  0.00    +0.046 A 
ATOM     18  C   UNL     1       2.594  -1.557  -5.009  0.00  0.00    +0.004 A 
ATOM     19  C   UNL     1       2.836  -0.530  -5.898  0.00  0.00    +0.015 A 
ATOM     20  C   UNL     1       2.263   0.725  -5.686  0.00  0.00    +0.062 A 
ATOM     21  C   UNL     1       1.442   0.933  -4.576  0.00  0.00    +0.061 A 
BRANCH  20  22
ATOM     22  C   UNL     1       2.520   1.827  -6.635  0.00  0.00    +0.339 C 
ATOM     23  O   UNL     1       2.020   2.919  -6.449  0.00  0.00    -0.245 OA
BRANCH  22  24
ATOM     24  O   UNL     1       3.309   1.623  -7.708  0.00  0.00    -0.464 OA
ATOM     25  C   UNL     1       3.514   2.733  -8.584  0.00  0.00    +0.280 C 
ENDBRANCH  22  24
ENDBRANCH  20  22
ENDBRANCH  15  16
ENDBRANCH   1  15
TORSDOF 8
