REMARK  Name = ZINC12929317
REMARK  5 active torsions:
REMARK  status: ('A' for Active; 'I' for Inactive)
REMARK    1  A    between atoms: C_1  and  C_2
REMARK    2  A    between atoms: C_6  and  N_9
REMARK    3  A    between atoms: C_7  and  C_8
REMARK    4  A    between atoms: C_10  and  C_12
REMARK    5  A    between atoms: N_15  and  C_17
REMARK                            x       y       z     vdW  Elec       q    Type
REMARK                         _______ _______ _______ _____ _____    ______ ____
ROOT
ATOM      1  C   UNL     1      -2.451   1.092   0.139  0.00  0.00    +0.151 A 
ATOM      2  C   UNL     1      -3.700   1.754   0.169  0.00  0.00    +0.006 A 
ATOM      3  C   UNL     1      -4.629   0.781   0.288  0.00  0.00    +0.049 A 
ATOM      4  N   UNL     1      -3.961  -0.404   0.335  0.00  0.00    -0.236 N 
ATOM      5  N   UNL     1      -2.696  -0.200   0.247  0.00  0.00    -0.161 NA
ATOM      6  C   UNL     1      -6.015   1.385   0.325  0.00  0.00    +0.056 C 
ATOM      7  C   UNL     1      -5.842   2.819  -0.223  0.00  0.00    +0.011 C 
ATOM      8  C   UNL     1      -4.360   3.110   0.102  0.00  0.00    +0.040 C 
ENDROOT
BRANCH   4   9
ATOM      9  C   UNL     1      -4.565  -1.662   0.461  0.00  0.00    +0.066 A 
ATOM     10  C   UNL     1      -5.709  -1.810   1.234  0.00  0.00    +0.030 A 
ATOM     11  C   UNL     1      -6.306  -3.050   1.352  0.00  0.00    +0.040 A 
ATOM     12  C   UNL     1      -5.758  -4.147   0.709  0.00  0.00    +0.124 A 
ATOM     13  C   UNL     1      -4.615  -4.002  -0.059  0.00  0.00    +0.040 A 
ATOM     14  C   UNL     1      -4.018  -2.763  -0.184  0.00  0.00    +0.030 A 
ATOM     15  F   UNL     1      -6.340  -5.360   0.831  0.00  0.00    -0.205 F 
ENDBRANCH   4   9
BRANCH   1  17
ATOM     16  N   UNL     1      -0.011   0.966   0.007  0.00  0.00    -0.280 N 
ATOM     17  C   UNL     1      -1.124   1.726   0.017  0.00  0.00    +0.269 C 
ATOM     18  O   UNL     1      -1.034   2.936  -0.076  0.00  0.00    -0.268 OA
ATOM     19  H   UNL     1      -0.085  -0.001   0.015  0.00  0.00    +0.155 HD
BRANCH  16  25
ATOM     20  C   UNL     1       4.716   0.959   1.357  0.00  0.00    +0.044 C 
ATOM     21  C   UNL     1       3.559   1.589   0.626  0.00  0.00    -0.046 A 
ATOM     22  C   UNL     1       3.744   2.768  -0.073  0.00  0.00    +0.004 A 
ATOM     23  C   UNL     1       2.684   3.350  -0.745  0.00  0.00    +0.002 A 
ATOM     24  C   UNL     1       1.438   2.755  -0.721  0.00  0.00    +0.023 A 
ATOM     25  C   UNL     1       1.250   1.571  -0.020  0.00  0.00    +0.037 A 
ATOM     26  C   UNL     1       2.314   0.992   0.659  0.00  0.00    -0.026 A 
ATOM     27  C   UNL     1       2.112  -0.290   1.426  0.00  0.00    +0.046 C 
ENDBRANCH  16  25
ENDBRANCH   1  17
TORSDOF 3
