REMARK  Name = ZINC31164074
REMARK  8 active torsions:
REMARK  status: ('A' for Active; 'I' for Inactive)
REMARK    1  A    between atoms: C_1  and  C_2
REMARK    2  A    between atoms: C_2  and  C_22
REMARK    3  A    between atoms: C_6  and  C_21
REMARK    4  A    between atoms: C_9  and  O_20
REMARK    5  A    between atoms: C_12  and  C_18
REMARK    6  A    between atoms: C_13  and  C_14
REMARK    7  A    between atoms: C_13  and  O_17
REMARK    8  A    between atoms: C_18  and  O_19
REMARK                            x       y       z     vdW  Elec       q    Type
REMARK                         _______ _______ _______ _____ _____    ______ ____
ROOT
ATOM      1  C   UNL     1       1.708   8.145   0.366  0.00  0.00    +0.011 C 
ATOM      2  C   UNL     1       0.680   7.035   0.597  0.00  0.00    -0.029 C 
ATOM      3  C   UNL     1      -0.124   7.315   1.861  0.00  0.00    +0.007 C 
ATOM      4  C   UNL     1       0.708   7.087   3.119  0.00  0.00    +0.001 C 
ATOM      5  C   UNL     1       1.228   5.651   3.144  0.00  0.00    +0.011 C 
ATOM      6  C   UNL     1       2.096   5.382   1.917  0.00  0.00    +0.017 C 
ATOM      7  C   UNL     1       1.318   5.643   0.636  0.00  0.00    +0.037 C 
ATOM      8  C   UNL     1       0.201   4.616   0.433  0.00  0.00    +0.142 C 
ATOM      9  C   UNL     1       0.392   3.319   1.150  0.00  0.00    +0.009 C 
ATOM     10  C   UNL     1       1.445   2.990   1.819  0.00  0.00    -0.003 C 
ATOM     11  C   UNL     1       2.598   3.930   1.968  0.00  0.00    +0.196 C 
ATOM     12  C   UNL     1       3.368   6.239   2.007  0.00  0.00    +0.015 C 
ATOM     13  C   UNL     1      -0.294   7.115  -0.602  0.00  0.00    +0.011 C 
ENDROOT
BRANCH  11  14
ATOM     14  C   UNL     1       3.598   3.701   0.868  0.00  0.00    +0.392 C 
ATOM     15  O   UNL     1       3.558   4.376  -0.134  0.00  0.00    -0.243 OA
ATOM     16  O   UNL     1       4.533   2.748   0.999  0.00  0.00    -0.243 OA
ENDBRANCH  11  14
BRANCH  11  17
ATOM     17  O   UNL     1       3.231   3.709   3.231  0.00  0.00    -0.373 OA
ATOM     18  H   UNL     1       3.660   2.724   3.466  0.00  0.00    +0.211 HD
ENDBRANCH  11  17
BRANCH   8  19
ATOM     19  O   UNL     1       0.096   4.314  -0.969  0.00  0.00    -0.387 OA
ATOM     20  H   UNL     1      -0.654   3.592  -1.321  0.00  0.00    +0.210 HD
ENDBRANCH   8  19
BRANCH  10  21
ATOM     21  C   UNL     1       1.510   1.641   2.476  0.00  0.00    +0.190 C 
BRANCH  21  22
ATOM     22  O   UNL     1       0.301   0.924   2.214  0.00  0.00    -0.391 OA
ATOM     23  H   UNL     1       0.165  -0.090   2.617  0.00  0.00    +0.210 HD
ENDBRANCH  21  22
ENDBRANCH  10  21
TORSDOF 5
