REMARK  Name = ZINC51787956
REMARK  3 active torsions:
REMARK  status: ('A' for Active; 'I' for Inactive)
REMARK    1  A    between atoms: C_5  and  N_7
REMARK    2  A    between atoms: N_7  and  C_8
REMARK    3  A    between atoms: C_8  and  C_9
REMARK                            x       y       z     vdW  Elec       q    Type
REMARK                         _______ _______ _______ _____ _____    ______ ____
ROOT
ATOM      1  C   UNL     1      -0.017   1.381  -0.010  0.00  0.00    +0.003 A 
ATOM      2  C   UNL     1       1.157   2.105   0.002  0.00  0.00    +0.014 A 
ATOM      3  C   UNL     1       2.381   1.438   0.006  0.00  0.00    +0.057 A 
ATOM      4  C   UNL     1       2.409   0.025  -0.001  0.00  0.00    +0.074 A 
ATOM      5  C   UNL     1       1.206  -0.694  -0.013  0.00  0.00    +0.041 A 
ATOM      6  C   UNL     1       0.002  -0.004  -0.017  0.00  0.00    +0.024 A 
ATOM      7  C   UNL     1       3.711  -0.645   0.003  0.00  0.00    +0.274 A 
ATOM      8  O   UNL     1       3.783  -1.862  -0.004  0.00  0.00    -0.266 OA
ATOM      9  N   UNL     1       4.831   0.108   0.014  0.00  0.00    -0.239 N 
ATOM     10  H   UNL     1       5.695  -0.333   0.017  0.00  0.00    +0.192 HD
ATOM     11  N   UNL     1       4.780   1.502   0.021  0.00  0.00    -0.128 NA
ATOM     12  C   UNL     1       3.657   2.163   0.018  0.00  0.00    +0.295 A 
ATOM     13  O   UNL     1       3.667   3.521   0.025  0.00  0.00    -0.264 OA
ENDROOT
BRANCH   5  14
ATOM     14  N   UNL     1       1.218  -2.084  -0.021  0.00  0.00    -0.338 N 
ATOM     15  H   UNL     1       2.059  -2.561  -0.105  0.00  0.00    +0.146 HD
BRANCH  14  16
ATOM     16  C   UNL     1      -0.038  -2.828   0.097  0.00  0.00    +0.154 C 
BRANCH  16  17
ATOM     17  C   UNL     1       0.250  -4.307   0.062  0.00  0.00    +0.033 A 
ATOM     18  C   UNL     1       0.208  -5.095  -1.032  0.00  0.00    +0.024 A 
ATOM     19  C   UNL     1       0.542  -6.401  -0.623  0.00  0.00    +0.019 A 
ATOM     20  C   UNL     1       0.774  -6.362   0.704  0.00  0.00    +0.083 A 
ATOM     21  N   UNL     1       0.602  -5.078   1.130  0.00  0.00    -0.363 N 
ATOM     22  H   UNL     1       0.710  -4.766   2.042  0.00  0.00    +0.165 HD
ENDBRANCH  16  17
ENDBRANCH  14  16
ENDBRANCH   5  14
TORSDOF 3
