REMARK  Name = ZINC22851585
REMARK  8 active torsions:
REMARK  status: ('A' for Active; 'I' for Inactive)
REMARK    1  A    between atoms: C_5  and  N_7
REMARK    2  A    between atoms: N_10  and  C_13
REMARK    3  A    between atoms: C_13  and  C_15
REMARK    4  A    between atoms: C_13  and  C_29
REMARK    5  A    between atoms: C_15  and  N_16
REMARK    6  A    between atoms: C_17  and  C_19
REMARK    7  A    between atoms: N_21  and  C_22
REMARK    8  A    between atoms: C_22  and  C_23
REMARK                            x       y       z     vdW  Elec       q    Type
REMARK                         _______ _______ _______ _____ _____    ______ ____
ROOT
ATOM      1  C   UNL     1       3.664   2.187  -0.026  0.00  0.00    +0.104 C 
ENDROOT
BRANCH   1   2
ATOM      2  C   UNL     1       2.321   1.507  -0.085  0.00  0.00    -0.025 A 
ATOM      3  C   UNL     1       2.227   0.144   0.127  0.00  0.00    +0.009 A 
ATOM      4  C   UNL     1       0.997  -0.484   0.074  0.00  0.00    +0.050 A 
ATOM      5  C   UNL     1      -0.146   0.252  -0.192  0.00  0.00    +0.166 A 
ATOM      6  C   UNL     1      -0.052   1.625  -0.406  0.00  0.00    +0.167 A 
ATOM      7  C   UNL     1       1.184   2.247  -0.352  0.00  0.00    +0.054 A 
ATOM      8  O   UNL     1      -1.302   2.115  -0.651  0.00  0.00    -0.453 OA
ATOM      9  C   UNL     1      -2.108   0.970  -0.980  0.00  0.00    +0.466 C 
ATOM     10  O   UNL     1      -1.456  -0.117  -0.297  0.00  0.00    -0.453 OA
ENDBRANCH   1   2
BRANCH   1  14
ATOM     11  N   UNL     1       5.691  -0.860  -2.139  0.00  0.00    -0.325 N 
ATOM     12  C   UNL     1       6.354  -0.279  -0.963  0.00  0.00    +0.120 C 
ATOM     13  C   UNL     1       5.311   0.411  -0.081  0.00  0.00    +0.104 C 
ATOM     14  N   UNL     1       4.623   1.450  -0.861  0.00  0.00    -0.291 NA
ATOM     15  C   UNL     1       3.960   0.868  -2.037  0.00  0.00    +0.104 C 
ATOM     16  C   UNL     1       5.003   0.179  -2.918  0.00  0.00    +0.120 C 
BRANCH  11  21
ATOM     17  C   UNL     1       8.594  -1.600  -4.270  0.00  0.00    +0.002 A 
ATOM     18  C   UNL     1       8.409  -2.950  -4.506  0.00  0.00    +0.003 A 
ATOM     19  C   UNL     1       7.324  -3.609  -3.959  0.00  0.00    +0.040 A 
ATOM     20  C   UNL     1       6.419  -2.919  -3.172  0.00  0.00    +0.144 A 
ATOM     21  C   UNL     1       6.603  -1.561  -2.933  0.00  0.00    +0.065 A 
ATOM     22  C   UNL     1       7.692  -0.903  -3.489  0.00  0.00    +0.026 A 
ATOM     23  F   UNL     1       5.358  -3.563  -2.638  0.00  0.00    -0.204 F 
ENDBRANCH  11  21
ENDBRANCH   1  14
BRANCH   1  24
ATOM     24  C   UNL     1       4.161   2.211   1.421  0.00  0.00    +0.128 C 
BRANCH  24  25
ATOM     25  N   UNL     1       5.460   2.885   1.480  0.00  0.00    -0.306 N 
ATOM     26  C   UNL     1       6.045   3.118   2.671  0.00  0.00    +0.299 C 
ATOM     27  O   UNL     1       5.495   2.769   3.696  0.00  0.00    -0.265 OA
ATOM     28  H   UNL     1       5.959   3.200   0.551  0.00  0.00    +0.149 HD
BRANCH  26  29
ATOM     29  C   UNL     1       7.371   3.805   2.732  0.00  0.00    +0.299 C 
ATOM     30  O   UNL     1       7.921   4.154   1.708  0.00  0.00    -0.265 OA
ATOM     31  N   UNL     1       7.955   4.038   3.924  0.00  0.00    -0.305 N 
ATOM     32  H   UNL     1       7.457   3.722   4.852  0.00  0.00    +0.149 HD
BRANCH  31  33
ATOM     33  C   UNL     1       9.255   4.712   3.983  0.00  0.00    +0.136 C 
BRANCH  33  34
ATOM     34  C   UNL     1       9.691   4.851   5.443  0.00  0.00    +0.135 C 
ATOM     35  C   UNL     1      11.057   5.560   5.516  0.00  0.00    +0.035 C 
ATOM     36  C   UNL     1      10.789   6.814   6.383  0.00  0.00    +0.031 C 
ATOM     37  C   UNL     1       9.498   6.414   7.141  0.00  0.00    +0.160 C 
ATOM     38  O   UNL     1       8.748   5.667   6.159  0.00  0.00    -0.375 OA
ENDBRANCH  33  34
ENDBRANCH  31  33
ENDBRANCH  26  29
ENDBRANCH  24  25
ENDBRANCH   1  24
TORSDOF 8
