REMARK  Name = ZINC06615187
REMARK  7 active torsions:
REMARK  status: ('A' for Active; 'I' for Inactive)
REMARK    1  A    between atoms: C_1  and  C_2
REMARK    2  A    between atoms: C_2  and  C_3
REMARK    3  A    between atoms: C_2  and  C_4
REMARK    4  A    between atoms: C_2  and  N_5
REMARK    5  A    between atoms: C_16  and  C_18
REMARK    6  A    between atoms: C_23  and  O_24
REMARK    7  A    between atoms: O_24  and  C_25
REMARK                            x       y       z     vdW  Elec       q    Type
REMARK                         _______ _______ _______ _____ _____    ______ ____
ROOT
ATOM      1  N   UNL     1      -5.154   3.562   1.624  0.00  0.00    -0.294 N 
ATOM      2  C   UNL     1      -4.453   2.474   1.249  0.00  0.00    +0.303 C 
ATOM      3  O   UNL     1      -4.740   1.381   1.698  0.00  0.00    -0.253 OA
ATOM      4  N   UNL     1      -3.433   2.598   0.377  0.00  0.00    -0.271 N 
ATOM      5  C   UNL     1      -3.151   3.882  -0.281  0.00  0.00    +0.132 C 
ATOM      6  C   UNL     1      -1.773   4.386   0.161  0.00  0.00    +0.140 C 
ATOM      7  N   UNL     1      -0.808   3.284   0.083  0.00  0.00    -0.347 N 
ATOM      8  C   UNL     1       0.549   3.386   0.044  0.00  0.00    +0.086 A 
ATOM      9  C   UNL     1       1.065   2.140  -0.014  0.00  0.00    +0.019 A 
ATOM     10  C   UNL     1      -0.015   1.234  -0.013  0.00  0.00    +0.025 A 
ATOM     11  C   UNL     1      -1.144   1.958   0.037  0.00  0.00    +0.044 A 
ATOM     12  C   UNL     1      -2.567   1.449   0.054  0.00  0.00    +0.158 C 
ATOM     13  H   UNL     1      -4.971   4.422   1.214  0.00  0.00    +0.151 HD
ENDROOT
BRANCH  12  14
ATOM     14  C   UNL     1      -2.723   0.377   1.102  0.00  0.00    +0.020 A 
ATOM     15  C   UNL     1      -2.515   0.677   2.434  0.00  0.00    +0.009 A 
ATOM     16  C   UNL     1      -2.663  -0.305   3.396  0.00  0.00    +0.001 A 
ATOM     17  C   UNL     1      -3.008  -1.592   3.027  0.00  0.00    +0.004 A 
ATOM     18  C   UNL     1      -3.212  -1.898   1.695  0.00  0.00    +0.046 A 
ATOM     19  C   UNL     1      -3.069  -0.914   0.728  0.00  0.00    +0.125 A 
BRANCH  19  20
ATOM     20  O   UNL     1      -3.269  -1.212  -0.582  0.00  0.00    -0.495 OA
ATOM     21  C   UNL     1      -3.623  -2.561  -0.893  0.00  0.00    +0.277 C 
ENDBRANCH  19  20
ENDBRANCH  12  14
BRANCH   1  23
ATOM     22  C   UNL     1      -5.567   2.943   3.954  0.00  0.00    +0.031 C 
ATOM     23  C   UNL     1      -6.192   3.446   2.651  0.00  0.00    +0.028 C 
ATOM     24  C   UNL     1      -6.830   4.817   2.888  0.00  0.00    +0.031 C 
ATOM     25  C   UNL     1      -7.264   2.459   2.184  0.00  0.00    +0.031 C 
ENDBRANCH   1  23
TORSDOF 3
