REMARK  Name = ZINC40322221
REMARK  7 active torsions:
REMARK  status: ('A' for Active; 'I' for Inactive)
REMARK    1  A    between atoms: C_5  and  C_7
REMARK    2  A    between atoms: C_7  and  C_9
REMARK    3  A    between atoms: C_7  and  N_28
REMARK    4  A    between atoms: C_9  and  N_10
REMARK    5  A    between atoms: C_11  and  C_13
REMARK    6  A    between atoms: C_16  and  S_18
REMARK    7  A    between atoms: S_18  and  C_21
REMARK                            x       y       z     vdW  Elec       q    Type
REMARK                         _______ _______ _______ _____ _____    ______ ____
ROOT
ATOM      1  N   UNL     1       0.330  -2.924  -2.172  0.00  0.00    -0.310 N 
ATOM      2  C   UNL     1       0.312  -3.629  -3.321  0.00  0.00    +0.279 C 
ATOM      3  O   UNL     1       1.278  -4.297  -3.640  0.00  0.00    -0.267 OA
ATOM      4  H   UNL     1      -0.440  -2.392  -1.918  0.00  0.00    +0.149 HD
ENDROOT
BRANCH   2   5
ATOM      5  C   UNL     1      -0.872  -3.590  -4.186  0.00  0.00    +0.192 A 
ATOM      6  C   UNL     1      -1.024  -4.257  -5.368  0.00  0.00    +0.056 A 
ATOM      7  C   UNL     1      -2.301  -3.934  -5.852  0.00  0.00    +0.070 A 
ATOM      8  C   UNL     1      -2.866  -3.095  -4.956  0.00  0.00    +0.246 A 
ATOM      9  O   UNL     1      -2.003  -2.894  -3.951  0.00  0.00    -0.433 OA
BRANCH   8  10
ATOM     10  S   UNL     1      -4.474  -2.387  -5.085  0.00  0.00    +0.058 S 
ATOM     11  O   UNL     1      -4.458  -1.200  -4.304  0.00  0.00    -0.161 OA
ATOM     12  O   UNL     1      -4.807  -2.385  -6.467  0.00  0.00    -0.161 OA
BRANCH  10  13
ATOM     13  C   UNL     1      -5.596  -3.494  -4.298  0.00  0.00    +0.097 A 
ATOM     14  C   UNL     1      -6.199  -4.501  -5.028  0.00  0.00    +0.029 A 
ATOM     15  C   UNL     1      -7.079  -5.370  -4.411  0.00  0.00    +0.022 A 
ATOM     16  C   UNL     1      -7.357  -5.231  -3.063  0.00  0.00    +0.041 A 
ATOM     17  C   UNL     1      -6.753  -4.223  -2.333  0.00  0.00    +0.022 A 
ATOM     18  C   UNL     1      -5.868  -3.358  -2.950  0.00  0.00    +0.029 A 
ATOM     19 CL   UNL     1      -8.463  -6.321  -2.287  0.00  0.00    -0.084 Cl
ENDBRANCH  10  13
ENDBRANCH   8  10
ENDBRANCH   2   5
BRANCH   1  20
ATOM     20  C   UNL     1       1.512  -2.963  -1.308  0.00  0.00    +0.094 C 
BRANCH  20  21
ATOM     21  C   UNL     1       1.225  -2.194  -0.017  0.00  0.00    -0.019 C 
BRANCH  21  22
ATOM     22  N   UNL     1       0.011  -2.730   0.613  0.00  0.00    +0.385 N 
ATOM     23  C   UNL     1      -0.223  -2.010   1.879  0.00  0.00    -0.078 C 
ATOM     24  C   UNL     1      -1.693  -2.093   2.207  0.00  0.00    -0.019 C 
ATOM     25  C   UNL     1      -1.989  -3.249   3.180  0.00  0.00    -0.002 C 
ATOM     26  C   UNL     1      -1.173  -4.511   2.834  0.00  0.00    -0.002 C 
ATOM     27  C   UNL     1      -1.111  -4.765   1.349  0.00  0.00    -0.019 C 
ATOM     28  C   UNL     1       0.163  -4.107   0.779  0.00  0.00    -0.078 C 
ATOM     29  H   UNL     1      -0.772  -2.563  -0.002  0.00  0.00    -0.081 HD
ENDBRANCH  21  22
BRANCH  21  34
ATOM     30  C   UNL     1      -0.438   1.122  -0.716  0.00  0.00    +0.000 A 
ATOM     31  C   UNL     1       0.655   1.943  -0.920  0.00  0.00    +0.001 A 
ATOM     32  C   UNL     1       1.934   1.425  -0.832  0.00  0.00    +0.020 A 
ATOM     33  C   UNL     1       2.119   0.086  -0.539  0.00  0.00    +0.043 A 
ATOM     34  C   UNL     1       1.024  -0.735  -0.335  0.00  0.00    -0.041 A 
ATOM     35  C   UNL     1      -0.254  -0.216  -0.424  0.00  0.00    +0.003 A 
ATOM     36 CL   UNL     1       3.725  -0.565  -0.429  0.00  0.00    -0.083 Cl
ENDBRANCH  21  34
ENDBRANCH  20  21
ENDBRANCH   1  20
TORSDOF 7
