REMARK  Name = ZINC16700057
REMARK  8 active torsions:
REMARK  status: ('A' for Active; 'I' for Inactive)
REMARK    1  A    between atoms: C_1  and  C_2
REMARK    2  A    between atoms: C_3  and  C_33
REMARK    3  A    between atoms: C_4  and  C_28
REMARK    4  A    between atoms: C_10  and  C_11
REMARK    5  A    between atoms: C_14  and  C_16
REMARK    6  A    between atoms: C_21  and  N_22
REMARK    7  A    between atoms: C_33  and  O_35
REMARK    8  A    between atoms: O_35  and  C_36
REMARK                            x       y       z     vdW  Elec       q    Type
REMARK                         _______ _______ _______ _____ _____    ______ ____
ROOT
ATOM      1  C   UNL     1       8.447   6.480  -0.654  0.00  0.00    +0.066 C 
ATOM      2  C   UNL     1       7.046   5.944  -0.513  0.00  0.00    +0.053 C 
ATOM      3  C   UNL     1       5.997   6.813  -0.426  0.00  0.00    +0.085 C 
ATOM      4  C   UNL     1       4.607   6.235  -0.285  0.00  0.00    +0.168 C 
ATOM      5  N   UNL     1       4.492   4.752  -0.252  0.00  0.00    -0.274 N 
ATOM      6  C   UNL     1       3.363   4.040  -0.141  0.00  0.00    +0.268 A 
ATOM      7  O   UNL     1       2.280   4.584  -0.053  0.00  0.00    -0.266 OA
ATOM      8  C   UNL     1       3.488   2.560  -0.124  0.00  0.00    +0.084 A 
ATOM      9  C   UNL     1       2.480   1.589  -0.013  0.00  0.00    +0.066 C 
ATOM     10  S   UNL     1       5.201   2.345  -0.283  0.00  0.00    -0.046 S 
ATOM     11  C   UNL     1       5.677   4.060  -0.354  0.00  0.00    +0.178 A 
ATOM     12  N   UNL     1       6.844   4.632  -0.474  0.00  0.00    -0.228 NA
ENDROOT
BRANCH   9  13
ATOM     13  C   UNL     1       1.147   1.970  -0.006  0.00  0.00    +0.130 A 
ATOM     14  C   UNL     1      -0.012   1.075  -0.027  0.00  0.00    +0.050 A 
ATOM     15  C   UNL     1      -1.114   1.877  -0.017  0.00  0.00    +0.050 A 
ATOM     16  C   UNL     1      -0.667   3.212   0.018  0.00  0.00    +0.138 A 
ATOM     17  O   UNL     1       0.676   3.236   0.020  0.00  0.00    -0.455 OA
BRANCH  16  18
ATOM     18  C   UNL     1      -1.534   4.392   0.042  0.00  0.00    +0.047 A 
ATOM     19  C   UNL     1      -2.580   4.519  -0.888  0.00  0.00    +0.014 A 
ATOM     20  C   UNL     1      -3.389   5.632  -0.857  0.00  0.00    +0.001 A 
ATOM     21  C   UNL     1      -3.175   6.625   0.087  0.00  0.00    +0.002 A 
ATOM     22  C   UNL     1      -2.146   6.509   1.008  0.00  0.00    +0.033 A 
ATOM     23  C   UNL     1      -1.328   5.401   0.997  0.00  0.00    +0.137 A 
BRANCH  23  24
ATOM     24  N   UNL     1      -0.233   5.277   1.986  0.00  0.00    +0.057 N 
ATOM     25  O   UNL     1      -0.043   6.224   2.880  0.00  0.00    -0.126 OA
ATOM     26  O   UNL     1       0.550   4.218   1.971  0.00  0.00    -0.126 OA
ENDBRANCH  23  24
ENDBRANCH  16  18
ENDBRANCH   9  13
BRANCH   4  27
ATOM     27  C   UNL     1       3.776   6.739  -1.437  0.00  0.00    +0.017 A 
ATOM     28  C   UNL     1       2.873   7.750  -1.460  0.00  0.00    +0.013 A 
ATOM     29  C   UNL     1       2.224   8.042  -2.645  0.00  0.00    +0.008 A 
ATOM     30  C   UNL     1       2.502   7.302  -3.746  0.00  0.00    +0.045 A 
ATOM     31  S   UNL     1       3.720   6.155  -3.123  0.00  0.00    -0.099 S 
ENDBRANCH   4  27
BRANCH   3  32
ATOM     32  C   UNL     1       6.204   8.213  -0.466  0.00  0.00    +0.339 C 
ATOM     33  O   UNL     1       7.331   8.658  -0.579  0.00  0.00    -0.245 OA
BRANCH  32  34
ATOM     34  O   UNL     1       5.152   9.054  -0.378  0.00  0.00    -0.465 OA
ATOM     35  C   UNL     1       5.435  10.454  -0.425  0.00  0.00    +0.280 C 
ENDBRANCH  32  34
ENDBRANCH   3  32
TORSDOF 6
