REMARK  Name = ZINC39217612
REMARK  2 active torsions:
REMARK  status: ('A' for Active; 'I' for Inactive)
REMARK    1  A    between atoms: C_5  and  C_21
REMARK    2  A    between atoms: C_12  and  C_14
REMARK                            x       y       z     vdW  Elec       q    Type
REMARK                         _______ _______ _______ _____ _____    ______ ____
ROOT
ATOM      1  C   UNL     1      -0.036   1.331  -0.375  0.00  0.00    +0.004 C 
ATOM      2  C   UNL     1       1.120   2.111  -0.370  0.00  0.00    +0.027 C 
ATOM      3  C   UNL     1       2.355   1.550  -0.251  0.00  0.00    +0.077 C 
ATOM      4  N   UNL     1       3.627   2.084  -0.220  0.00  0.00    -0.213 NA
ATOM      5  C   UNL     1       4.545   0.946  -0.071  0.00  0.00    +0.314 C 
ATOM      6  N   UNL     1       3.713  -0.260  -0.021  0.00  0.00    -0.247 NA
ATOM      7  C   UNL     1       2.468   0.080  -0.123  0.00  0.00    +0.105 C 
ATOM      8  C   UNL     1       1.208  -0.714  -0.132  0.00  0.00    +0.061 C 
ATOM      9  C   UNL     1      -0.009  -0.025  -0.261  0.00  0.00    +0.025 C 
ATOM     10  N   UNL     1       1.234  -2.040  -0.020  0.00  0.00    -0.280 N 
ATOM     11  C   UNL     1       0.088  -2.726   0.089  0.00  0.00    +0.248 C 
ATOM     12  O   UNL     1      -0.700  -2.458   0.979  0.00  0.00    -0.270 OA
ATOM     13  H   UNL     1       2.083  -2.509  -0.018  0.00  0.00    +0.155 HD
ENDROOT
BRANCH  11  14
ATOM     14  C   UNL     1      -0.220  -3.808  -0.872  0.00  0.00    +0.037 A 
ATOM     15  C   UNL     1       0.684  -4.121  -1.889  0.00  0.00    +0.014 A 
ATOM     16  C   UNL     1       0.391  -5.131  -2.781  0.00  0.00    +0.021 A 
ATOM     17  C   UNL     1      -0.796  -5.835  -2.669  0.00  0.00    +0.041 A 
ATOM     18  C   UNL     1      -1.697  -5.529  -1.662  0.00  0.00    +0.021 A 
ATOM     19  C   UNL     1      -1.413  -4.525  -0.761  0.00  0.00    +0.014 A 
ATOM     20 CL   UNL     1      -1.158  -7.106  -3.795  0.00  0.00    -0.084 Cl
ENDBRANCH  11  14
BRANCH   5  21
ATOM     21  C   UNL     1       5.347   1.085   1.224  0.00  0.00    +0.430 C 
ATOM     22  F   UNL     1       4.469   1.148   2.312  0.00  0.00    -0.167 F 
ATOM     23  F   UNL     1       6.192  -0.020   1.370  0.00  0.00    -0.167 F 
ATOM     24  F   UNL     1       6.112   2.255   1.175  0.00  0.00    -0.167 F 
ENDBRANCH   5  21
TORSDOF 2
