REMARK  Name = ZINC10683710
REMARK  16 active torsions:
REMARK  status: ('A' for Active; 'I' for Inactive)
REMARK    1  A    between atoms: C_1  and  C_2
REMARK    2  A    between atoms: C_2  and  C_3
REMARK    3  A    between atoms: C_3  and  C_5
REMARK    4  A    between atoms: C_3  and  C_6
REMARK    5  A    between atoms: C_11  and  O_12
REMARK    6  A    between atoms: O_12  and  C_13
REMARK    7  A    between atoms: C_13  and  C_15
REMARK    8  A    between atoms: C_13  and  C_17
REMARK    9  A    between atoms: C_15  and  C_16
REMARK   10  A    between atoms: N_19  and  N_20
REMARK   11  A    between atoms: C_21  and  C_23
REMARK   12  A    between atoms: C_23  and  O_24
REMARK   13  A    between atoms: O_24  and  C_25
REMARK   14  A    between atoms: C_28  and  C_32
REMARK   15  A    between atoms: C_32  and  C_33
REMARK   16  A    between atoms: C_32  and  C_34
REMARK                            x       y       z     vdW  Elec       q    Type
REMARK                         _______ _______ _______ _____ _____    ______ ____
ROOT
ATOM      1  C   UNL     1       5.404  -4.040  -0.197  0.00  0.00    +0.270 C 
ATOM      2  O   UNL     1       4.455  -4.793  -0.254  0.00  0.00    -0.270 OA
ATOM      3  N   UNL     1       5.208  -2.706  -0.217  0.00  0.00    -0.231 N 
ATOM      4  H   UNL     1       5.967  -2.104  -0.171  0.00  0.00    +0.173 HD
ENDROOT
BRANCH   3   5
ATOM      5  N   UNL     1       3.909  -2.190  -0.304  0.00  0.00    -0.231 N 
ATOM      6  C   UNL     1       3.713  -0.857  -0.324  0.00  0.00    +0.267 C 
ATOM      7  O   UNL     1       4.662  -0.104  -0.267  0.00  0.00    -0.271 OA
ATOM      8  H   UNL     1       3.150  -2.793  -0.350  0.00  0.00    +0.173 HD
BRANCH   6   9
ATOM      9  C   UNL     1       2.315  -0.302  -0.417  0.00  0.00    +0.326 C 
BRANCH   9  10
ATOM     10  O   UNL     1       2.369   1.126  -0.422  0.00  0.00    -0.482 OA
BRANCH  10  11
ATOM     11  C   UNL     1       1.185   1.788  -0.502  0.00  0.00    +0.135 A 
ATOM     12  C   UNL     1      -0.005   1.078  -0.575  0.00  0.00    +0.047 A 
ATOM     13  C   UNL     1      -1.207   1.753  -0.663  0.00  0.00    +0.007 A 
ATOM     14  C   UNL     1      -1.227   3.135  -0.667  0.00  0.00    -0.044 A 
ATOM     15  C   UNL     1      -0.043   3.846  -0.594  0.00  0.00    +0.022 A 
ATOM     16  C   UNL     1       1.163   3.176  -0.511  0.00  0.00    +0.060 A 
ATOM     17 BR   UNL     1       2.782   4.148  -0.413  0.00  0.00    -0.047 Br
BRANCH  14  18
ATOM     18  C   UNL     1      -2.540   3.869  -0.757  0.00  0.00    +0.013 C 
ATOM     19  C   UNL     1      -3.254   3.479  -2.053  0.00  0.00    +0.012 C 
ATOM     20  C   UNL     1      -3.417   3.494   0.440  0.00  0.00    +0.012 C 
ENDBRANCH  14  18
ENDBRANCH  10  11
ENDBRANCH   9  10
ENDBRANCH   6   9
ENDBRANCH   3   5
BRANCH   1  21
ATOM     21  C   UNL     1       6.802  -4.595  -0.103  0.00  0.00    +0.260 C 
BRANCH  21  22
ATOM     22  C   UNL     1       7.415  -4.209   1.244  0.00  0.00    +0.051 C 
ATOM     23  C   UNL     1       8.875  -4.664   1.290  0.00  0.00    +0.008 C 
ENDBRANCH  21  22
BRANCH  21  24
ATOM     24  O   UNL     1       6.758  -6.019  -0.216  0.00  0.00    -0.479 OA
BRANCH  24  30
ATOM     25  C   UNL     1       7.693  -7.974  -1.198  0.00  0.00    -0.003 A 
ATOM     26  C   UNL     1       8.694  -8.573  -1.937  0.00  0.00    +0.007 A 
ATOM     27  C   UNL     1       9.744  -7.817  -2.422  0.00  0.00    +0.001 A 
ATOM     28  C   UNL     1       9.795  -6.458  -2.171  0.00  0.00    +0.004 A 
ATOM     29  C   UNL     1       8.793  -5.853  -1.437  0.00  0.00    +0.046 A 
ATOM     30  C   UNL     1       7.741  -6.611  -0.943  0.00  0.00    +0.125 A 
BRANCH  25  31
ATOM     31  C   UNL     1       6.549  -8.799  -0.668  0.00  0.00    +0.019 C 
ATOM     32  C   UNL     1       5.805  -9.450  -1.836  0.00  0.00    +0.012 C 
BRANCH  31  34
ATOM     33  C   UNL     1       5.925 -10.646   0.895  0.00  0.00    +0.004 C 
ATOM     34  C   UNL     1       7.092  -9.887   0.261  0.00  0.00    +0.004 C 
ENDBRANCH  31  34
ENDBRANCH  25  31
ENDBRANCH  24  30
ENDBRANCH  21  24
ENDBRANCH   1  21
TORSDOF 11
