REMARK  Name = ZINC04006284
REMARK  5 active torsions:
REMARK  status: ('A' for Active; 'I' for Inactive)
REMARK    1  A    between atoms: C_1  and  C_2
REMARK    2  A    between atoms: C_2  and  C_23
REMARK    3  A    between atoms: C_4  and  C_9
REMARK    4  A    between atoms: C_11  and  C_14
REMARK    5  A    between atoms: C_17  and  N_20
REMARK                            x       y       z     vdW  Elec       q    Type
REMARK                         _______ _______ _______ _____ _____    ______ ____
ROOT
ATOM      1  C   UNL     1       2.299   0.075  -0.019  0.00  0.00    +0.082 A 
ATOM      2  N   UNL     1       1.180  -0.608  -0.013  0.00  0.00    -0.244 NA
ATOM      3  C   UNL     1       0.002  -0.004   0.002  0.00  0.00    +0.078 A 
ATOM      4  C   UNL     1      -0.017   1.365   0.009  0.00  0.00    +0.075 A 
ATOM      5  S   UNL     1       1.735   1.718  -0.005  0.00  0.00    -0.080 S 
ENDROOT
BRANCH   1   9
ATOM      6  C   UNL     1       6.417  -0.202  -2.773  0.00  0.00    +0.022 C 
ATOM      7  C   UNL     1       5.748  -0.669  -1.479  0.00  0.00    +0.012 C 
ATOM      8  C   UNL     1       4.417   0.065  -1.295  0.00  0.00    +0.027 C 
ATOM      9  C   UNL     1       3.717  -0.435  -0.035  0.00  0.00    +0.047 C 
ATOM     10  C   UNL     1       4.440   0.053   1.216  0.00  0.00    +0.021 C 
ATOM     11  C   UNL     1       5.775  -0.683   1.368  0.00  0.00    +0.070 C 
ATOM     12  S   UNL     1       6.824  -0.287  -0.064  0.00  0.00    -0.154 S 
ATOM     13  C   UNL     1       5.498  -2.178  -1.542  0.00  0.00    +0.022 C 
ENDBRANCH   1   9
BRANCH   3  14
ATOM     14  C   UNL     1      -1.258  -0.786   0.010  0.00  0.00    +0.001 A 
ATOM     15  C   UNL     1      -1.218  -2.176   0.102  0.00  0.00    +0.012 A 
ATOM     16  C   UNL     1      -2.394  -2.899   0.116  0.00  0.00    +0.033 A 
ATOM     17  C   UNL     1      -3.610  -2.247   0.026  0.00  0.00    +0.126 A 
ATOM     18  C   UNL     1      -3.656  -0.867  -0.071  0.00  0.00    +0.033 A 
ATOM     19  C   UNL     1      -2.487  -0.135  -0.080  0.00  0.00    +0.012 A 
BRANCH  17  20
ATOM     20  N   UNL     1      -4.868  -3.027   0.035  0.00  0.00    +0.056 N 
ATOM     21  O   UNL     1      -5.941  -2.455  -0.044  0.00  0.00    -0.126 OA
ATOM     22  O   UNL     1      -4.830  -4.242   0.121  0.00  0.00    -0.126 OA
ENDBRANCH  17  20
ENDBRANCH   3  14
TORSDOF 3
