REMARK  Name = ZINC04056877
REMARK  8 active torsions:
REMARK  status: ('A' for Active; 'I' for Inactive)
REMARK    1  A    between atoms: C_1  and  C_2
REMARK    2  A    between atoms: C_2  and  C_4
REMARK    3  A    between atoms: C_2  and  N_22
REMARK    4  A    between atoms: C_4  and  C_6
REMARK    5  A    between atoms: C_4  and  N_57
REMARK    6  A    between atoms: N_13  and  C_16
REMARK    7  A    between atoms: N_22  and  S_23
REMARK    8  A    between atoms: S_23  and  C_26
REMARK                            x       y       z     vdW  Elec       q    Type
REMARK                         _______ _______ _______ _____ _____    ______ ____
ROOT
ATOM      1  C   UNL     1       4.146  -0.188  -3.905  0.00  0.00    -0.012 C 
ENDROOT
BRANCH   1   7
ATOM      2  C   UNL     1       3.783   2.006  -4.864  0.00  0.00    -0.059 C 
ATOM      3  C   UNL     1       4.271   2.979  -5.940  0.00  0.00    +0.086 C 
ATOM      4  N   UNL     1       4.090   2.372  -7.266  0.00  0.00    -0.333 N 
ATOM      5  C   UNL     1       4.840   1.113  -7.371  0.00  0.00    +0.086 C 
ATOM      6  C   UNL     1       4.352   0.139  -6.296  0.00  0.00    -0.059 C 
ATOM      7  N   UNL     1       4.560   0.753  -4.968  0.00  0.00    +0.388 N 
ATOM      8  H   UNL     1       5.557   0.969  -4.852  0.00  0.00    -0.081 HD
BRANCH   4   9
ATOM      9  C   UNL     1       4.458   3.261  -8.278  0.00  0.00    +0.030 A 
ATOM     10  C   UNL     1       5.425   2.897  -9.206  0.00  0.00    +0.023 A 
ATOM     11  C   UNL     1       5.783   3.776 -10.209  0.00  0.00    +0.002 A 
ATOM     12  C   UNL     1       5.188   5.022 -10.283  0.00  0.00    +0.000 A 
ATOM     13  C   UNL     1       4.229   5.390  -9.357  0.00  0.00    +0.002 A 
ATOM     14  C   UNL     1       3.862   4.513  -8.355  0.00  0.00    +0.023 A 
ENDBRANCH   4   9
ENDBRANCH   1   7
BRANCH   1  15
ATOM     15  C   UNL     1       2.728  -0.647  -4.131  0.00  0.00    -0.022 A 
ATOM     16  C   UNL     1       2.227  -1.907  -4.121  0.00  0.00    +0.009 A 
ATOM     17  C   UNL     1       0.877  -2.093  -4.353  0.00  0.00    +0.008 A 
ATOM     18  C   UNL     1       0.097  -1.012  -4.595  0.00  0.00    +0.045 A 
ATOM     19  S   UNL     1       1.275   0.325  -4.490  0.00  0.00    -0.103 S 
ENDBRANCH   1  15
BRANCH   1  21
ATOM     20  C   UNL     1       5.683   0.980  -2.320  0.00  0.00    +0.024 C 
ATOM     21  C   UNL     1       4.244   0.514  -2.550  0.00  0.00    +0.065 C 
BRANCH  21  22
ATOM     22  N   UNL     1       3.858  -0.418  -1.488  0.00  0.00    -0.188 NA
ATOM     23  H   UNL     1       4.077  -1.360  -1.566  0.00  0.00    +0.148 HD
BRANCH  22  24
ATOM     24  S   UNL     1       3.047   0.135  -0.154  0.00  0.00    +0.059 S 
ATOM     25  O   UNL     1       3.762   1.271   0.313  0.00  0.00    -0.153 OA
ATOM     26  O   UNL     1       2.795  -0.997   0.667  0.00  0.00    -0.153 OA
BRANCH  24  27
ATOM     27  C   UNL     1       1.478   0.719  -0.704  0.00  0.00    +0.105 A 
ATOM     28  C   UNL     1       0.398  -0.143  -0.749  0.00  0.00    +0.028 A 
ATOM     29  C   UNL     1      -0.834   0.315  -1.180  0.00  0.00    +0.002 A 
ATOM     30  C   UNL     1      -0.984   1.633  -1.566  0.00  0.00    +0.000 A 
ATOM     31  C   UNL     1       0.096   2.495  -1.521  0.00  0.00    +0.002 A 
ATOM     32  C   UNL     1       1.327   2.037  -1.090  0.00  0.00    +0.028 A 
ENDBRANCH  24  27
ENDBRANCH  22  24
ENDBRANCH  21  22
ENDBRANCH   1  21
TORSDOF 7
