REMARK  Name = ZINC28288310
REMARK  7 active torsions:
REMARK  status: ('A' for Active; 'I' for Inactive)
REMARK    1  A    between atoms: C_1  and  C_2
REMARK    2  A    between atoms: C_4  and  C_32
REMARK    3  A    between atoms: C_11  and  C_13
REMARK    4  A    between atoms: N_15  and  C_16
REMARK    5  A    between atoms: C_16  and  C_17
REMARK    6  A    between atoms: C_17  and  C_19
REMARK    7  A    between atoms: C_17  and  N_26
REMARK                            x       y       z     vdW  Elec       q    Type
REMARK                         _______ _______ _______ _____ _____    ______ ____
ROOT
ATOM      1  C   UNL     1       7.367   0.781   1.233  0.00  0.00    +0.279 C 
ATOM      2  O   UNL     1       7.250   1.613   0.355  0.00  0.00    -0.267 OA
ATOM      3  N   UNL     1       6.820  -0.442   1.079  0.00  0.00    -0.310 N 
ATOM      4  H   UNL     1       6.925  -1.195   1.873  0.00  0.00    +0.149 HD
ENDROOT
BRANCH   1  15
ATOM      5  C   UNL     1      10.966   1.033   8.268  0.00  0.00    +0.044 C 
ATOM      6  C   UNL     1      10.234   0.811   6.970  0.00  0.00    -0.049 A 
ATOM      7  C   UNL     1       9.631  -0.413   6.719  0.00  0.00    +0.010 A 
ATOM      8  C   UNL     1       8.962  -0.639   5.535  0.00  0.00    -0.007 A 
ATOM      9  C   UNL     1       8.877   0.372   4.583  0.00  0.00    +0.142 A 
ATOM     10  C   UNL     1       9.486   1.611   4.848  0.00  0.00    +0.064 A 
ATOM     11  C   UNL     1      10.164   1.819   6.049  0.00  0.00    +0.018 A 
ATOM     12  C   UNL     1       9.387   2.673   3.828  0.00  0.00    +0.193 A 
ATOM     13  O   UNL     1       9.893   3.768   3.997  0.00  0.00    -0.287 OA
ATOM     14  C   UNL     1       8.649   2.345   2.599  0.00  0.00    +0.103 A 
ATOM     15  C   UNL     1       8.110   1.109   2.472  0.00  0.00    +0.193 A 
ATOM     16  O   UNL     1       8.223   0.171   3.424  0.00  0.00    -0.450 OA
ATOM     17  C   UNL     1       8.318  -1.977   5.276  0.00  0.00    +0.047 C 
ENDBRANCH   1  15
BRANCH   3  18
ATOM     18  C   UNL     1       6.085  -0.766  -0.146  0.00  0.00    +0.094 C 
BRANCH  18  19
ATOM     19  C   UNL     1       5.693  -2.245  -0.129  0.00  0.00    -0.020 C 
BRANCH  19  20
ATOM     20  C   UNL     1       6.938  -3.095  -0.124  0.00  0.00    -0.059 A 
ATOM     21  C   UNL     1       7.618  -3.330  -1.305  0.00  0.00    +0.003 A 
ATOM     22  C   UNL     1       8.763  -4.104  -1.300  0.00  0.00    +0.020 A 
ATOM     23  C   UNL     1       9.222  -4.654  -0.116  0.00  0.00    +0.041 A 
ATOM     24  C   UNL     1       8.537  -4.423   1.064  0.00  0.00    +0.020 A 
ATOM     25  C   UNL     1       7.396  -3.643   1.059  0.00  0.00    +0.003 A 
ATOM     26 CL   UNL     1      10.655  -5.633  -0.111  0.00  0.00    -0.084 Cl
ENDBRANCH  19  20
BRANCH  19  27
ATOM     27  N   UNL     1       4.894  -2.554  -1.322  0.00  0.00    +0.385 N 
ATOM     28  C   UNL     1       3.700  -1.701  -1.391  0.00  0.00    -0.078 C 
ATOM     29  C   UNL     1       2.972  -1.947  -2.715  0.00  0.00    -0.019 C 
ATOM     30  C   UNL     1       2.573  -3.423  -2.805  0.00  0.00    -0.004 C 
ATOM     31  C   UNL     1       3.829  -4.291  -2.682  0.00  0.00    -0.019 C 
ATOM     32  C   UNL     1       4.532  -3.977  -1.360  0.00  0.00    -0.078 C 
ATOM     33  H   UNL     1       5.510  -2.341  -2.208  0.00  0.00    -0.081 HD
ENDBRANCH  19  27
ENDBRANCH  18  19
ENDBRANCH   3  18
TORSDOF 5
