REMARK  Name = ZINC00743562
REMARK  10 active torsions:
REMARK  status: ('A' for Active; 'I' for Inactive)
REMARK    1  A    between atoms: C_1  and  C_2
REMARK    2  A    between atoms: N_11  and  C_12
REMARK    3  A    between atoms: C_12  and  C_13
REMARK    4  A    between atoms: C_12  and  C_14
REMARK    5  A    between atoms: C_15  and  C_17
REMARK    6  A    between atoms: C_17  and  C_19
REMARK    7  A    between atoms: C_17  and  N_26
REMARK    8  A    between atoms: C_19  and  C_20
REMARK    9  A    between atoms: N_26  and  S_27
REMARK   10  A    between atoms: S_27  and  C_30
REMARK                            x       y       z     vdW  Elec       q    Type
REMARK                         _______ _______ _______ _____ _____    ______ ____
ROOT
ATOM      1  C   UNL     1       1.200   4.021   1.453  0.00  0.00    +0.166 C 
ENDROOT
BRANCH   1  12
ATOM      2  C   UNL     1      -1.740   9.459   1.467  0.00  0.00    +0.030 C 
ATOM      3  C   UNL     1      -1.484   7.958   1.616  0.00  0.00    +0.092 C 
ATOM      4  C   UNL     1      -0.093   7.614   1.081  0.00  0.00    +0.130 C 
ATOM      5  N   UNL     1       0.033   6.153   0.991  0.00  0.00    -0.297 N 
ATOM      6  C   UNL     1      -0.967   5.402   0.219  0.00  0.00    +0.127 C 
ATOM      7  C   UNL     1      -2.361   5.746   0.758  0.00  0.00    +0.128 C 
ATOM      8  N   UNL     1      -2.484   7.208   0.844  0.00  0.00    -0.280 N 
ATOM      9  C   UNL     1      -3.496   7.848   0.226  0.00  0.00    +0.303 C 
ATOM     10  O   UNL     1      -3.535   9.064   0.225  0.00  0.00    -0.253 OA
ATOM     11  N   UNL     1      -4.464   7.142  -0.390  0.00  0.00    -0.297 N 
ATOM     12  C   UNL     1       1.045   5.512   1.609  0.00  0.00    +0.235 C 
ATOM     13  O   UNL     1       1.831   6.135   2.291  0.00  0.00    -0.274 OA
ATOM     14  H   UNL     1      -4.472   6.174  -0.329  0.00  0.00    +0.150 HD
BRANCH  11  15
ATOM     15  C   UNL     1      -5.506   7.837  -1.151  0.00  0.00    +0.068 C 
ATOM     16  C   UNL     1      -6.072   6.896  -2.216  0.00  0.00    +0.027 C 
ATOM     17  C   UNL     1      -6.627   8.269  -0.204  0.00  0.00    +0.027 C 
ENDBRANCH  11  15
ENDBRANCH   1  12
BRANCH   1  18
ATOM     18  N   UNL     1       2.185   3.529   2.419  0.00  0.00    -0.178 NA
ATOM     19  H   UNL     1       3.131   3.556   2.204  0.00  0.00    +0.149 HD
BRANCH  18  20
ATOM     20  S   UNL     1       1.685   2.925   3.877  0.00  0.00    +0.059 S 
ATOM     21  O   UNL     1       2.857   2.532   4.578  0.00  0.00    -0.153 OA
ATOM     22  O   UNL     1       0.758   3.862   4.408  0.00  0.00    -0.153 OA
BRANCH  20  23
ATOM     23  C   UNL     1       0.778   1.450   3.548  0.00  0.00    +0.105 A 
ATOM     24  C   UNL     1      -0.571   1.520   3.255  0.00  0.00    +0.031 A 
ATOM     25  C   UNL     1      -1.283   0.365   2.992  0.00  0.00    +0.040 A 
ATOM     26  C   UNL     1      -0.646  -0.864   3.031  0.00  0.00    +0.124 A 
ATOM     27  C   UNL     1       0.705  -0.933   3.329  0.00  0.00    +0.040 A 
ATOM     28  C   UNL     1       1.415   0.224   3.587  0.00  0.00    +0.031 A 
ATOM     29  F   UNL     1      -1.341  -1.994   2.778  0.00  0.00    -0.205 F 
ENDBRANCH  20  23
ENDBRANCH  18  20
ENDBRANCH   1  18
BRANCH   1  30
ATOM     30  C   UNL     1       1.674   3.703   0.034  0.00  0.00    +0.065 C 
BRANCH  30  31
ATOM     31  C   UNL     1       1.680   2.210  -0.172  0.00  0.00    -0.045 A 
ATOM     32  C   UNL     1       0.521   1.560  -0.553  0.00  0.00    +0.004 A 
ATOM     33  C   UNL     1       0.527   0.190  -0.742  0.00  0.00    +0.000 A 
ATOM     34  C   UNL     1       1.692  -0.529  -0.548  0.00  0.00    +0.000 A 
ATOM     35  C   UNL     1       2.851   0.121  -0.168  0.00  0.00    +0.000 A 
ATOM     36  C   UNL     1       2.845   1.491   0.020  0.00  0.00    +0.004 A 
ENDBRANCH  30  31
ENDBRANCH   1  30
TORSDOF 7
