REMARK  Name = ZINC23134342
REMARK  8 active torsions:
REMARK  status: ('A' for Active; 'I' for Inactive)
REMARK    1  A    between atoms: C_1  and  O_2
REMARK    2  A    between atoms: O_2  and  C_3
REMARK    3  A    between atoms: C_6  and  S_9
REMARK    4  A    between atoms: S_9  and  N_12
REMARK    5  A    between atoms: C_16  and  C_18
REMARK    6  A    between atoms: C_27  and  C_33
REMARK    7  A    between atoms: C_33  and  O_35
REMARK    8  A    between atoms: O_35  and  C_36
REMARK                            x       y       z     vdW  Elec       q    Type
REMARK                         _______ _______ _______ _____ _____    ______ ____
ROOT
ATOM      1  C   UNL     1      -5.933  -5.386  -1.756  0.00  0.00    +0.235 C 
ATOM      2  O   UNL     1      -6.580  -5.303  -0.733  0.00  0.00    -0.274 OA
ATOM      3  N   UNL     1      -5.759  -6.584  -2.349  0.00  0.00    -0.295 N 
ATOM      4  C   UNL     1      -4.974  -6.708  -3.586  0.00  0.00    +0.114 C 
ATOM      5  C   UNL     1      -3.731  -7.560  -3.307  0.00  0.00    +0.072 C 
ATOM      6  C   UNL     1      -4.139  -8.780  -2.515  0.00  0.00    +0.023 A 
ATOM      7  C   UNL     1      -5.298  -8.887  -1.833  0.00  0.00    -0.002 A 
ATOM      8  C   UNL     1      -5.310 -10.194  -1.210  0.00  0.00    +0.005 A 
ATOM      9  C   UNL     1      -6.234 -10.847  -0.395  0.00  0.00    +0.025 A 
ATOM     10  C   UNL     1      -5.897 -12.137   0.026  0.00  0.00    +0.060 A 
ATOM     11  C   UNL     1      -4.691 -12.739  -0.352  0.00  0.00    +0.017 A 
ATOM     12  C   UNL     1      -3.777 -12.106  -1.151  0.00  0.00    +0.027 A 
ATOM     13  C   UNL     1      -4.089 -10.817  -1.587  0.00  0.00    +0.047 A 
ATOM     14  N   UNL     1      -3.412  -9.935  -2.373  0.00  0.00    -0.358 N 
ATOM     15  H   UNL     1      -2.544 -10.099  -2.774  0.00  0.00    +0.166 HD
ATOM     16  C   UNL     1      -6.345  -7.806  -1.771  0.00  0.00    +0.145 C 
ENDROOT
BRANCH   1  21
ATOM     17  N   UNL     1      -5.651  -2.974  -1.542  0.00  0.00    -0.165 NA
ATOM     18  C   UNL     1      -6.435  -2.029  -2.358  0.00  0.00    +0.110 C 
ATOM     19  C   UNL     1      -6.058  -2.363  -3.824  0.00  0.00    +0.019 C 
ATOM     20  C   UNL     1      -5.924  -3.908  -3.766  0.00  0.00    +0.031 C 
ATOM     21  C   UNL     1      -5.325  -4.149  -2.365  0.00  0.00    +0.166 C 
BRANCH  17  22
ATOM     22  S   UNL     1      -5.207  -2.748   0.036  0.00  0.00    +0.062 S 
ATOM     23  O   UNL     1      -4.982  -4.040   0.584  0.00  0.00    -0.153 OA
ATOM     24  O   UNL     1      -6.142  -1.836   0.595  0.00  0.00    -0.153 OA
BRANCH  22  28
ATOM     25  C   UNL     1      -1.200  -0.637   0.010  0.00  0.00    +0.120 A 
ATOM     26  C   UNL     1      -2.375   0.101   0.019  0.00  0.00    +0.047 A 
ATOM     27  C   UNL     1      -3.596  -0.545   0.027  0.00  0.00    +0.032 A 
ATOM     28  C   UNL     1      -3.648  -1.927   0.026  0.00  0.00    +0.106 A 
ATOM     29  C   UNL     1      -2.479  -2.665   0.017  0.00  0.00    +0.032 A 
ATOM     30  C   UNL     1      -1.255  -2.024   0.003  0.00  0.00    +0.047 A 
BRANCH  25  32
ATOM     31  C   UNL     1      -0.017   1.425   0.010  0.00  0.00    +0.277 C 
ATOM     32  O   UNL     1       0.002  -0.004   0.002  0.00  0.00    -0.495 OA
ENDBRANCH  25  32
ENDBRANCH  22  28
ENDBRANCH  17  22
ENDBRANCH   1  21
BRANCH  10  33
ATOM     33  C   UNL     1      -6.833 -12.880   0.890  0.00  0.00    +0.339 C 
ATOM     34  O   UNL     1      -7.883 -12.371   1.227  0.00  0.00    -0.245 OA
BRANCH  33  35
ATOM     35  O   UNL     1      -6.524 -14.124   1.306  0.00  0.00    -0.464 OA
ATOM     36  C   UNL     1      -7.476 -14.785   2.140  0.00  0.00    +0.280 C 
ENDBRANCH  33  35
ENDBRANCH  10  33
TORSDOF 6
