REMARK  Name = ZINC01246226
REMARK  3 active torsions:
REMARK  status: ('A' for Active; 'I' for Inactive)
REMARK    1  A    between atoms: C_4  and  C_7
REMARK    2  A    between atoms: N_13  and  N_14
REMARK    3  A    between atoms: C_15  and  C_16
REMARK                            x       y       z     vdW  Elec       q    Type
REMARK                         _______ _______ _______ _____ _____    ______ ____
ROOT
ATOM      1  C   UNL     1      -4.409  -0.748  -1.099  0.00  0.00    +0.184 A 
ATOM      2  N   UNL     1      -5.479  -1.382  -0.708  0.00  0.00    -0.152 NA
ATOM      3  N   UNL     1      -5.486  -1.398   0.693  0.00  0.00    -0.253 N 
ATOM      4  H   UNL     1      -6.163  -1.802   1.259  0.00  0.00    +0.191 HD
ATOM      5  C   UNL     1      -4.378  -0.754   1.113  0.00  0.00    +0.197 A 
ATOM      6  S   UNL     1      -3.910  -0.501   2.740  0.00  0.00    -0.010 S 
ATOM      7  N   UNL     1      -3.706  -0.342   0.019  0.00  0.00    -0.188 N 
ENDROOT
BRANCH   1  11
ATOM      8  C   UNL     1      -3.276  -0.043  -5.133  0.00  0.00    +0.000 A 
ATOM      9  C   UNL     1      -4.251  -0.983  -4.845  0.00  0.00    +0.001 A 
ATOM     10  C   UNL     1      -4.623  -1.216  -3.537  0.00  0.00    +0.011 A 
ATOM     11  C   UNL     1      -4.014  -0.502  -2.504  0.00  0.00    +0.021 A 
ATOM     12  C   UNL     1      -3.036   0.447  -2.802  0.00  0.00    +0.011 A 
ATOM     13  C   UNL     1      -2.669   0.667  -4.113  0.00  0.00    +0.001 A 
ENDBRANCH   1  11
BRANCH   7  14
ATOM     14  N   UNL     1      -2.499   0.369   0.017  0.00  0.00    -0.170 NA
ATOM     15  C   UNL     1      -2.510   1.667   0.024  0.00  0.00    +0.142 C 
BRANCH  15  16
ATOM     16  C   UNL     1      -1.240   2.416   0.021  0.00  0.00    +0.013 A 
ATOM     17  C   UNL     1      -1.249   3.813   0.034  0.00  0.00    +0.011 A 
ATOM     18  C   UNL     1      -0.057   4.507   0.025  0.00  0.00    +0.001 A 
ATOM     19  C   UNL     1       1.146   3.823   0.011  0.00  0.00    +0.001 A 
ATOM     20  C   UNL     1       1.164   2.440   0.004  0.00  0.00    +0.020 A 
ATOM     21  C   UNL     1      -0.021   1.732   0.012  0.00  0.00    +0.050 A 
ATOM     22 CL   UNL     1       0.002  -0.004   0.002  0.00  0.00    -0.083 Cl
ENDBRANCH  15  16
ENDBRANCH   7  14
TORSDOF 3
