REMARK  Name = ZINC59057920
REMARK  9 active torsions:
REMARK  status: ('A' for Active; 'I' for Inactive)
REMARK    1  A    between atoms: C_1  and  C_2
REMARK    2  A    between atoms: C_5  and  C_32
REMARK    3  A    between atoms: N_8  and  C_10
REMARK    4  A    between atoms: C_10  and  C_11
REMARK    5  A    between atoms: C_14  and  C_17
REMARK    6  A    between atoms: C_17  and  N_18
REMARK    7  A    between atoms: C_19  and  C_21
REMARK    8  A    between atoms: C_21  and  C_22
REMARK    9  A    between atoms: C_25  and  C_27
REMARK                            x       y       z     vdW  Elec       q    Type
REMARK                         _______ _______ _______ _____ _____    ______ ____
ROOT
ATOM      1  C   UNL     1       2.146   0.211   3.650  0.00  0.00    -0.064 A 
ATOM      2  C   UNL     1       2.582   1.442   4.103  0.00  0.00    +0.002 A 
ATOM      3  C   UNL     1       1.975   2.031   5.197  0.00  0.00    +0.005 A 
ATOM      4  C   UNL     1       0.932   1.388   5.838  0.00  0.00    -0.030 A 
ATOM      5  C   UNL     1       0.496   0.158   5.384  0.00  0.00    +0.005 A 
ATOM      6  C   UNL     1       1.100  -0.429   4.288  0.00  0.00    +0.002 A 
ENDROOT
BRANCH   1   7
ATOM      7  C   UNL     1       2.808  -0.431   2.458  0.00  0.00    -0.043 C 
BRANCH   7  13
ATOM      8  C   UNL     1      -0.019   1.526   0.010  0.00  0.00    +0.005 C 
ATOM      9  C   UNL     1       0.002  -0.004   0.002  0.00  0.00    -0.031 C 
ATOM     10  C   UNL     1       0.721  -0.499  -1.257  0.00  0.00    +0.003 C 
ATOM     11  C   UNL     1       2.177  -0.027  -1.220  0.00  0.00    -0.031 C 
ATOM     12  C   UNL     1       2.839  -0.534   0.063  0.00  0.00    -0.075 C 
ATOM     13  N   UNL     1       2.123  -0.005   1.230  0.00  0.00    +0.383 N 
ATOM     14  C   UNL     1       0.744  -0.512   1.240  0.00  0.00    -0.075 C 
ATOM     15  C   UNL     1       2.924  -0.581  -2.434  0.00  0.00    +0.005 C 
ATOM     16  H   UNL     1       2.109   1.003   1.187  0.00  0.00    -0.081 HD
ENDBRANCH   7  13
ENDBRANCH   1   7
BRANCH   4  17
ATOM     17  C   UNL     1       0.272   2.030   7.030  0.00  0.00    +0.139 C 
BRANCH  17  18
ATOM     18  N   UNL     1      -0.844   2.866   6.580  0.00  0.00    -0.311 N 
ATOM     19  C   UNL     1      -1.586   3.542   7.480  0.00  0.00    +0.219 C 
ATOM     20  O   UNL     1      -1.330   3.458   8.662  0.00  0.00    -0.275 OA
ATOM     21  H   UNL     1      -1.049   2.933   5.634  0.00  0.00    +0.149 HD
BRANCH  19  22
ATOM     22  C   UNL     1      -2.733   4.401   7.016  0.00  0.00    +0.151 C 
BRANCH  22  23
ATOM     23  C   UNL     1      -3.394   5.043   8.210  0.00  0.00    +0.058 A 
ATOM     24  C   UNL     1      -3.542   6.393   8.261  0.00  0.00    +0.071 A 
ATOM     25  S   UNL     1      -4.358   6.576   9.842  0.00  0.00    -0.072 S 
ATOM     26  C   UNL     1      -4.414   4.839  10.261  0.00  0.00    +0.144 A 
ATOM     27  N   UNL     1      -3.832   4.298   9.197  0.00  0.00    -0.240 NA
BRANCH  26  28
ATOM     28  C   UNL     1      -4.961   4.185  11.460  0.00  0.00    +0.160 A 
ATOM     29  C   UNL     1      -5.556   4.813  12.513  0.00  0.00    +0.052 A 
ATOM     30  C   UNL     1      -5.925   3.808  13.428  0.00  0.00    +0.042 A 
ATOM     31  C   UNL     1      -5.543   2.629  12.897  0.00  0.00    +0.196 A 
ATOM     32  O   UNL     1      -4.966   2.860  11.706  0.00  0.00    -0.461 OA
ENDBRANCH  26  28
ENDBRANCH  22  23
ENDBRANCH  19  22
ENDBRANCH  17  18
ENDBRANCH   4  17
TORSDOF 7
