REMARK  Name = ZINC49044307
REMARK  5 active torsions:
REMARK  status: ('A' for Active; 'I' for Inactive)
REMARK    1  A    between atoms: C_1  and  C_2
REMARK    2  A    between atoms: C_2  and  C_3
REMARK    3  A    between atoms: C_2  and  C_4
REMARK    4  A    between atoms: C_6  and  N_10
REMARK    5  A    between atoms: C_11  and  C_13
REMARK                            x       y       z     vdW  Elec       q    Type
REMARK                         _______ _______ _______ _____ _____    ______ ____
ROOT
ATOM      1  N   UNL     1       0.923  -1.417  -4.694  0.00  0.00    -0.267 N 
ATOM      2  C   UNL     1      -0.284  -1.269  -5.275  0.00  0.00    +0.251 C 
ATOM      3  O   UNL     1      -1.229  -0.872  -4.620  0.00  0.00    -0.270 OA
ATOM      4  H   UNL     1       1.677  -1.733  -5.217  0.00  0.00    +0.157 HD
ENDROOT
BRANCH   2   5
ATOM      5  C   UNL     1      -0.459  -1.586  -6.700  0.00  0.00    +0.064 A 
ATOM      6  C   UNL     1       0.638  -2.065  -7.508  0.00  0.00    +0.042 A 
ATOM      7  C   UNL     1       0.345  -2.319  -8.800  0.00  0.00    +0.080 A 
ATOM      8  S   UNL     1      -1.384  -1.916  -8.910  0.00  0.00    -0.064 S 
ATOM      9  C   UNL     1      -1.679  -1.447  -7.326  0.00  0.00    +0.091 A 
ATOM     10 CL   UNL     1      -3.177  -0.907  -6.635  0.00  0.00    -0.075 Cl
ATOM     11 CL   UNL     1       1.400  -2.898 -10.051  0.00  0.00    -0.076 Cl
ENDBRANCH   2   5
BRANCH   1  14
ATOM     12  C   UNL     1       0.707  -0.490  -1.238  0.00  0.00    +0.067 A 
ATOM     13  C   UNL     1       0.124  -0.665  -2.496  0.00  0.00    +0.068 A 
ATOM     14  C   UNL     1       1.089  -1.116  -3.344  0.00  0.00    +0.121 A 
ATOM     15  N   UNL     1       2.238  -1.218  -2.637  0.00  0.00    -0.264 N 
ATOM     16  H   UNL     1       3.095  -1.514  -2.981  0.00  0.00    +0.190 HD
ATOM     17  N   UNL     1       1.972  -0.815  -1.322  0.00  0.00    -0.177 NA
BRANCH  12  19
ATOM     18  C   UNL     1      -0.019   1.526   0.010  0.00  0.00    +0.014 C 
ATOM     19  C   UNL     1       0.002  -0.004   0.002  0.00  0.00    +0.033 C 
ATOM     20  C   UNL     1      -1.433  -0.534   0.013  0.00  0.00    +0.014 C 
ENDBRANCH  12  19
ENDBRANCH   1  14
TORSDOF 3
