REMARK  Name = ZINC15546812
REMARK  10 active torsions:
REMARK  status: ('A' for Active; 'I' for Inactive)
REMARK    1  A    between atoms: C_1  and  C_2
REMARK    2  A    between atoms: C_4  and  C_32
REMARK    3  A    between atoms: C_5  and  N_9
REMARK    4  A    between atoms: C_6  and  C_8
REMARK    5  A    between atoms: C_10  and  C_12
REMARK    6  A    between atoms: C_12  and  N_13
REMARK    7  A    between atoms: C_14  and  C_16
REMARK    8  A    between atoms: C_16  and  N_17
REMARK    9  A    between atoms: C_19  and  C_28
REMARK   10  A    between atoms: N_30  and  C_31
REMARK                            x       y       z     vdW  Elec       q    Type
REMARK                         _______ _______ _______ _____ _____    ______ ____
ROOT
ATOM      1  N   UNL     1      -3.903   4.031  -0.747  0.00  0.00    -0.305 N 
ATOM      2  C   UNL     1      -2.786   3.676  -0.082  0.00  0.00    +0.231 C 
ATOM      3  O   UNL     1      -2.789   3.638   1.131  0.00  0.00    -0.274 OA
ATOM      4  H   UNL     1      -3.900   4.061  -1.717  0.00  0.00    +0.149 HD
ENDROOT
BRANCH   1   5
ATOM      5  C   UNL     1      -5.120   4.370  -0.007  0.00  0.00    +0.200 C 
BRANCH   5   7
ATOM      6  N   UNL     1      -7.434   5.077  -0.521  0.00  0.00    -0.284 N 
ATOM      7  C   UNL     1      -6.216   4.728  -0.978  0.00  0.00    +0.234 C 
ATOM      8  O   UNL     1      -6.000   4.702  -2.172  0.00  0.00    -0.274 OA
ATOM      9  H   UNL     1      -7.585   5.177   0.432  0.00  0.00    +0.155 HD
BRANCH   6  14
ATOM     10  C   UNL     1     -11.687   5.965  -4.170  0.00  0.00    +0.044 C 
ATOM     11  C   UNL     1     -10.557   5.729  -3.201  0.00  0.00    -0.050 A 
ATOM     12  C   UNL     1      -9.385   6.454  -3.317  0.00  0.00    +0.008 A 
ATOM     13  C   UNL     1      -8.348   6.240  -2.430  0.00  0.00    -0.029 A 
ATOM     14  C   UNL     1      -8.483   5.296  -1.421  0.00  0.00    +0.039 A 
ATOM     15  C   UNL     1      -9.659   4.566  -1.310  0.00  0.00    -0.029 A 
ATOM     16  C   UNL     1     -10.695   4.789  -2.197  0.00  0.00    +0.008 A 
ATOM     17  C   UNL     1      -9.808   3.536  -0.220  0.00  0.00    +0.045 C 
ATOM     18  C   UNL     1      -7.072   7.031  -2.558  0.00  0.00    +0.045 C 
ENDBRANCH   6  14
ENDBRANCH   5   7
ENDBRANCH   1   5
BRANCH   2  19
ATOM     19  C   UNL     1      -1.534   3.327  -0.843  0.00  0.00    +0.201 C 
BRANCH  19  20
ATOM     20  N   UNL     1      -0.428   3.120   0.102  0.00  0.00    -0.314 N 
ATOM     21  C   UNL     1      -0.104   4.362   0.812  0.00  0.00    +0.160 C 
ATOM     22  C   UNL     1       1.132   4.117   1.688  0.00  0.00    +0.276 C 
ATOM     23  O   UNL     1       2.229   3.804   0.824  0.00  0.00    -0.476 OA
ATOM     24  C   UNL     1       1.985   2.912  -0.175  0.00  0.00    +0.143 A 
ATOM     25  C   UNL     1       0.688   2.576  -0.544  0.00  0.00    +0.073 A 
ATOM     26  C   UNL     1       0.482   1.669  -1.579  0.00  0.00    +0.027 A 
ATOM     27  C   UNL     1       1.559   1.108  -2.236  0.00  0.00    +0.002 A 
ATOM     28  C   UNL     1       2.848   1.437  -1.862  0.00  0.00    +0.004 A 
ATOM     29  C   UNL     1       3.062   2.339  -0.836  0.00  0.00    +0.047 A 
BRANCH  22  30
ATOM     30  C   UNL     1       1.447   5.358   2.484  0.00  0.00    +0.255 C 
ATOM     31  O   UNL     1       2.481   5.959   2.284  0.00  0.00    -0.272 OA
ATOM     32  N   UNL     1       0.580   5.799   3.416  0.00  0.00    -0.315 N 
ATOM     33  C   UNL     1       0.886   7.005   4.189  0.00  0.00    +0.128 C 
ATOM     34  H   UNL     1      -0.247   5.318   3.575  0.00  0.00    +0.148 HD
ENDBRANCH  22  30
ENDBRANCH  19  20
ENDBRANCH   2  19
TORSDOF 6
