REMARK  Name = ZINC54604091
REMARK  8 active torsions:
REMARK  status: ('A' for Active; 'I' for Inactive)
REMARK    1  A    between atoms: C_1  and  C_2
REMARK    2  A    between atoms: C_2  and  O_3
REMARK    3  A    between atoms: O_3  and  C_4
REMARK    4  A    between atoms: C_9  and  C_10
REMARK    5  A    between atoms: C_10  and  N_11
REMARK    6  A    between atoms: N_14  and  N_15
REMARK    7  A    between atoms: C_16  and  C_18
REMARK    8  A    between atoms: C_19  and  C_27
REMARK                            x       y       z     vdW  Elec       q    Type
REMARK                         _______ _______ _______ _____ _____    ______ ____
ROOT
ATOM      1  N   UNL     1      -4.242  -1.006  -1.324  0.00  0.00    -0.294 N 
ATOM      2  C   UNL     1      -5.282  -0.180  -1.552  0.00  0.00    +0.316 C 
ATOM      3  O   UNL     1      -6.003   0.159  -0.634  0.00  0.00    -0.251 OA
ATOM      4  N   UNL     1      -5.522   0.272  -2.799  0.00  0.00    -0.218 N 
ATOM      5  H   UNL     1      -3.667  -1.276  -2.057  0.00  0.00    +0.151 HD
ATOM      6  H   UNL     1      -6.270   0.867  -2.964  0.00  0.00    +0.174 HD
ENDROOT
BRANCH   4   7
ATOM      7  N   UNL     1      -4.691  -0.118  -3.858  0.00  0.00    -0.227 N 
ATOM      8  C   UNL     1      -4.932   0.333  -5.105  0.00  0.00    +0.296 C 
ATOM      9  O   UNL     1      -5.870   1.080  -5.311  0.00  0.00    -0.265 OA
ATOM     10  H   UNL     1      -3.943  -0.713  -3.693  0.00  0.00    +0.173 HD
BRANCH   8  11
ATOM     11  C   UNL     1      -4.060  -0.076  -6.215  0.00  0.00    +0.195 A 
ATOM     12  C   UNL     1      -4.202   0.319  -7.507  0.00  0.00    +0.008 A 
ATOM     13  C   UNL     1      -3.122  -0.329  -8.250  0.00  0.00    +0.024 A 
ATOM     14  C   UNL     1      -2.726  -0.330  -9.590  0.00  0.00    +0.012 A 
ATOM     15  C   UNL     1      -1.639  -1.063  -9.974  0.00  0.00    +0.001 A 
ATOM     16  C   UNL     1      -0.927  -1.807  -9.042  0.00  0.00    +0.004 A 
ATOM     17  C   UNL     1      -1.302  -1.820  -7.716  0.00  0.00    +0.047 A 
ATOM     18  C   UNL     1      -2.405  -1.081  -7.301  0.00  0.00    +0.136 A 
ATOM     19  O   UNL     1      -2.994  -0.896  -6.104  0.00  0.00    -0.450 OA
ATOM     20  C   UNL     1      -5.259   1.239  -8.062  0.00  0.00    +0.048 C 
ENDBRANCH   8  11
ENDBRANCH   4   7
BRANCH   1  21
ATOM     21  C   UNL     1      -3.981  -1.497   0.032  0.00  0.00    +0.144 C 
BRANCH  21  27
ATOM     22  C   UNL     1      -1.498  -1.848   0.006  0.00  0.00    +0.125 A 
ATOM     23  C   UNL     1      -0.387  -2.679  -0.003  0.00  0.00    +0.046 A 
ATOM     24  C   UNL     1      -0.552  -4.051  -0.008  0.00  0.00    +0.004 A 
ATOM     25  C   UNL     1      -1.823  -4.596  -0.004  0.00  0.00    +0.001 A 
ATOM     26  C   UNL     1      -2.932  -3.769   0.004  0.00  0.00    +0.009 A 
ATOM     27  C   UNL     1      -2.772  -2.397   0.016  0.00  0.00    +0.011 A 
BRANCH  22  28
ATOM     28  O   UNL     1      -1.339  -0.499   0.012  0.00  0.00    -0.492 OA
BRANCH  28  30
ATOM     29  C   UNL     1      -0.019   1.526   0.010  0.00  0.00    +0.048 C 
ATOM     30  C   UNL     1       0.002  -0.004   0.002  0.00  0.00    +0.225 C 
ENDBRANCH  28  30
ENDBRANCH  22  28
ENDBRANCH  21  27
ENDBRANCH   1  21
TORSDOF 6
