REMARK  Name = ZINC40641649
REMARK  6 active torsions:
REMARK  status: ('A' for Active; 'I' for Inactive)
REMARK    1  A    between atoms: C_1  and  C_2
REMARK    2  A    between atoms: C_6  and  N_9
REMARK    3  A    between atoms: C_7  and  C_8
REMARK    4  A    between atoms: C_10  and  C_12
REMARK    5  A    between atoms: C_16  and  C_25
REMARK    6  A    between atoms: C_18  and  C_24
REMARK                            x       y       z     vdW  Elec       q    Type
REMARK                         _______ _______ _______ _____ _____    ______ ____
ROOT
ATOM      1  C   UNL     1      -0.131  -4.882   3.654  0.00  0.00    +0.102 A 
ATOM      2  C   UNL     1      -0.109  -6.264   3.662  0.00  0.00    +0.028 A 
ATOM      3  C   UNL     1      -0.202  -6.947   4.899  0.00  0.00    -0.000 A 
ATOM      4  C   UNL     1      -0.182  -8.350   4.937  0.00  0.00    +0.013 A 
ATOM      5  C   UNL     1      -0.272  -8.999   6.134  0.00  0.00    -0.050 A 
ATOM      6  C   UNL     1      -0.385  -8.282   7.319  0.00  0.00    +0.008 A 
ATOM      7  C   UNL     1      -0.408  -6.905   7.308  0.00  0.00    -0.026 A 
ATOM      8  C   UNL     1      -0.316  -6.219   6.099  0.00  0.00    +0.052 A 
ATOM      9  N   UNL     1      -0.338  -4.840   6.084  0.00  0.00    -0.321 N 
ATOM     10  H   UNL     1      -0.416  -4.354   6.919  0.00  0.00    +0.169 HD
ATOM     11  C   UNL     1      -0.245  -4.160   4.926  0.00  0.00    +0.261 A 
ATOM     12  O   UNL     1      -0.261  -2.942   4.934  0.00  0.00    -0.267 OA
ATOM     13  C   UNL     1      -0.532  -6.142   8.601  0.00  0.00    +0.046 C 
ATOM     14  C   UNL     1      -0.250 -10.505   6.171  0.00  0.00    +0.044 C 
ENDROOT
BRANCH   1  16
ATOM     15  N   UNL     1       0.066  -2.799   2.393  0.00  0.00    -0.281 N 
ATOM     16  C   UNL     1      -0.035  -4.143   2.384  0.00  0.00    +0.254 C 
ATOM     17  O   UNL     1      -0.047  -4.745   1.328  0.00  0.00    -0.270 OA
ATOM     18  H   UNL     1       0.142  -2.323   3.235  0.00  0.00    +0.155 HD
BRANCH  15  24
ATOM     19  C   UNL     1      -0.993   1.305  -0.098  0.00  0.00    +0.044 C 
ATOM     20  C   UNL     1      -0.447  -0.099  -0.049  0.00  0.00    -0.046 A 
ATOM     21  C   UNL     1       0.050  -0.687  -1.198  0.00  0.00    +0.004 A 
ATOM     22  C   UNL     1       0.551  -1.975  -1.157  0.00  0.00    +0.002 A 
ATOM     23  C   UNL     1       0.558  -2.678   0.032  0.00  0.00    +0.023 A 
ATOM     24  C   UNL     1       0.061  -2.090   1.187  0.00  0.00    +0.037 A 
ATOM     25  C   UNL     1      -0.437  -0.794   1.144  0.00  0.00    -0.026 A 
ATOM     26  C   UNL     1      -0.972  -0.149   2.397  0.00  0.00    +0.046 C 
ENDBRANCH  15  24
ENDBRANCH   1  16
TORSDOF 2
