REMARK  Name = ZINC63140386
REMARK  8 active torsions:
REMARK  status: ('A' for Active; 'I' for Inactive)
REMARK    1  A    between atoms: C_1  and  C_2
REMARK    2  A    between atoms: C_2  and  C_3
REMARK    3  A    between atoms: C_2  and  O_4
REMARK    4  A    between atoms: O_4  and  C_5
REMARK    5  A    between atoms: C_8  and  C_13
REMARK    6  A    between atoms: C_10  and  O_11
REMARK    7  A    between atoms: O_11  and  C_12
REMARK    8  A    between atoms: N_32  and  C_35
REMARK                            x       y       z     vdW  Elec       q    Type
REMARK                         _______ _______ _______ _____ _____    ______ ____
ROOT
ATOM      1  C   UNL     1       6.291  -0.829  -0.937  0.00  0.00    +0.134 C 
ATOM      2  C   UNL     1       6.884   0.576  -1.041  0.00  0.00    +0.131 C 
ATOM      3  C   UNL     1       6.654   1.228   0.321  0.00  0.00    -0.034 C 
ATOM      4  C   UNL     1       5.892   2.292   0.111  0.00  0.00    -0.001 A 
ATOM      5  C   UNL     1       5.368   3.318   1.028  0.00  0.00    +0.010 A 
ATOM      6  C   UNL     1       4.599   4.287   0.466  0.00  0.00    +0.001 A 
ATOM      7  C   UNL     1       4.302   4.339  -0.899  0.00  0.00    +0.002 A 
ATOM      8  C   UNL     1       4.741   3.439  -1.814  0.00  0.00    +0.026 A 
ATOM      9  C   UNL     1       5.561   2.372  -1.344  0.00  0.00    +0.043 A 
ATOM     10  N   UNL     1       6.128   1.383  -2.007  0.00  0.00    -0.375 N 
ATOM     11  C   UNL     1       7.229   0.633   1.577  0.00  0.00    +0.065 C 
ATOM     12  C   UNL     1       7.091  -0.867   1.542  0.00  0.00    +0.167 C 
ATOM     13  N   UNL     1       6.669  -1.487   0.305  0.00  0.00    -0.279 N 
ATOM     14  C   UNL     1       6.573  -2.857   0.339  0.00  0.00    +0.234 C 
ATOM     15  O   UNL     1       6.295  -3.499  -0.652  0.00  0.00    -0.274 OA
ATOM     16  C   UNL     1       6.832  -3.529   1.671  0.00  0.00    +0.204 C 
ATOM     17  N   UNL     1       6.136  -2.765   2.723  0.00  0.00    -0.288 N 
ATOM     18  C   UNL     1       6.274  -1.411   2.686  0.00  0.00    +0.237 C 
ATOM     19  O   UNL     1       5.771  -0.690   3.522  0.00  0.00    -0.274 OA
ATOM     20  H   UNL     1       6.061   1.210  -2.959  0.00  0.00    +0.160 HD
ENDROOT
BRANCH  17  21
ATOM     21  C   UNL     1       5.337  -3.430   3.755  0.00  0.00    +0.077 C 
ATOM     22  C   UNL     1       6.260  -4.334   4.596  0.00  0.00    +0.022 C 
ATOM     23  C   UNL     1       5.591  -4.602   5.918  0.00  0.00    +0.002 C 
ATOM     24  C   UNL     1       4.785  -5.915   5.915  0.00  0.00    +0.000 C 
ATOM     25  C   UNL     1       3.987  -6.123   4.613  0.00  0.00    +0.000 C 
ATOM     26  C   UNL     1       3.330  -4.857   4.132  0.00  0.00    +0.002 C 
ATOM     27  C   UNL     1       4.265  -4.176   3.112  0.00  0.00    +0.022 C 
ENDBRANCH  17  21
BRANCH   1  31
ATOM     28  C   UNL     1       2.027  -0.553  -1.118  0.00  0.00    +0.162 A 
ATOM     29  C   UNL     1       2.690  -0.309   0.074  0.00  0.00    +0.050 A 
ATOM     30  C   UNL     1       4.068  -0.399   0.130  0.00  0.00    +0.009 A 
ATOM     31  C   UNL     1       4.788  -0.732  -1.002  0.00  0.00    -0.021 A 
ATOM     32  C   UNL     1       4.133  -0.977  -2.195  0.00  0.00    +0.055 A 
ATOM     33  C   UNL     1       2.751  -0.894  -2.256  0.00  0.00    +0.162 A 
BRANCH  33  34
ATOM     34  O   UNL     1       2.105  -1.140  -3.427  0.00  0.00    -0.491 OA
ATOM     35  C   UNL     1       2.913  -1.484  -4.554  0.00  0.00    +0.277 C 
ENDBRANCH  33  34
BRANCH  28  36
ATOM     36  O   UNL     1       0.671  -0.465  -1.174  0.00  0.00    -0.486 OA
BRANCH  36  38
ATOM     37  C   UNL     1      -0.051   1.266   0.351  0.00  0.00    +0.051 C 
ATOM     38  C   UNL     1      -0.016  -0.236   0.058  0.00  0.00    +0.167 C 
ATOM     39  C   UNL     1      -1.446  -0.768  -0.049  0.00  0.00    +0.051 C 
ENDBRANCH  36  38
ENDBRANCH  28  36
ENDBRANCH   1  31
TORSDOF 5
