REMARK  Name = ZINC12656165
REMARK  12 active torsions:
REMARK  status: ('A' for Active; 'I' for Inactive)
REMARK    1  A    between atoms: C_1  and  C_2
REMARK    2  A    between atoms: C_5  and  C_8
REMARK    3  A    between atoms: C_8  and  C_9
REMARK    4  A    between atoms: C_8  and  C_16
REMARK    5  A    between atoms: C_8  and  O_23
REMARK    6  A    between atoms: C_12  and  C_15
REMARK    7  A    between atoms: C_19  and  C_22
REMARK    8  A    between atoms: O_23  and  C_24
REMARK    9  A    between atoms: C_24  and  C_25
REMARK   10  A    between atoms: C_27  and  O_43
REMARK   11  A    between atoms: C_29  and  O_42
REMARK   12  A    between atoms: C_31  and  N_34
REMARK                            x       y       z     vdW  Elec       q    Type
REMARK                         _______ _______ _______ _____ _____    ______ ____
ROOT
ATOM      1  C   UNL     1       5.424  -0.841  -1.159  0.00  0.00    +0.144 C 
ENDROOT
BRANCH   1   6
ATOM      2  C   UNL     1       6.901   4.729  -1.598  0.00  0.00    +0.044 C 
ATOM      3  C   UNL     1       6.515   3.277  -1.484  0.00  0.00    -0.050 A 
ATOM      4  C   UNL     1       6.750   2.414  -2.538  0.00  0.00    +0.004 A 
ATOM      5  C   UNL     1       6.397   1.082  -2.433  0.00  0.00    +0.007 A 
ATOM      6  C   UNL     1       5.809   0.612  -1.273  0.00  0.00    -0.007 A 
ATOM      7  C   UNL     1       5.569   1.476  -0.221  0.00  0.00    +0.007 A 
ATOM      8  C   UNL     1       5.927   2.807  -0.324  0.00  0.00    +0.004 A 
ENDBRANCH   1   6
BRANCH   1   9
ATOM      9  C   UNL     1       5.242  -1.199   0.294  0.00  0.00    -0.007 A 
ATOM     10  C   UNL     1       6.164  -0.774   1.231  0.00  0.00    +0.007 A 
ATOM     11  C   UNL     1       5.994  -1.099   2.564  0.00  0.00    +0.004 A 
ATOM     12  C   UNL     1       4.908  -1.857   2.958  0.00  0.00    -0.050 A 
ATOM     13  C   UNL     1       3.988  -2.286   2.019  0.00  0.00    +0.004 A 
ATOM     14  C   UNL     1       4.155  -1.957   0.687  0.00  0.00    +0.007 A 
ATOM     15  C   UNL     1       4.725  -2.215   4.410  0.00  0.00    +0.044 C 
ENDBRANCH   1   9
BRANCH   1  16
ATOM     16  C   UNL     1       6.511  -1.697  -1.755  0.00  0.00    -0.007 A 
ATOM     17  C   UNL     1       7.824  -1.265  -1.729  0.00  0.00    +0.007 A 
ATOM     18  C   UNL     1       8.822  -2.053  -2.271  0.00  0.00    +0.004 A 
ATOM     19  C   UNL     1       8.505  -3.268  -2.849  0.00  0.00    -0.050 A 
ATOM     20  C   UNL     1       7.192  -3.697  -2.881  0.00  0.00    +0.004 A 
ATOM     21  C   UNL     1       6.194  -2.912  -2.334  0.00  0.00    +0.007 A 
ATOM     22  C   UNL     1       9.592  -4.125  -3.445  0.00  0.00    +0.044 C 
ENDBRANCH   1  16
BRANCH   1  23
ATOM     23  O   UNL     1       4.200  -1.066  -1.862  0.00  0.00    -0.357 OA
BRANCH  23  24
ATOM     24  C   UNL     1       3.099  -0.297  -1.373  0.00  0.00    +0.196 C 
BRANCH  24  25
ATOM     25  C   UNL     1       1.849  -0.617  -2.195  0.00  0.00    +0.178 C 
ATOM     26  C   UNL     1       0.655   0.246  -1.716  0.00  0.00    +0.178 C 
ATOM     27  C   UNL     1      -0.544  -0.637  -2.160  0.00  0.00    +0.197 C 
ATOM     28  C   UNL     1       0.012  -2.064  -1.968  0.00  0.00    +0.273 C 
ATOM     29  O   UNL     1       1.442  -1.977  -1.975  0.00  0.00    -0.344 OA
BRANCH  28  30
ATOM     30  N   UNL     1      -0.439  -2.925  -3.064  0.00  0.00    -0.181 N 
ATOM     31  C   UNL     1      -0.907  -4.155  -2.786  0.00  0.00    +0.369 A 
ATOM     32  O   UNL     1      -0.950  -4.538  -1.629  0.00  0.00    -0.243 OA
ATOM     33  N   UNL     1      -1.324  -4.960  -3.767  0.00  0.00    -0.176 NA
ATOM     34  C   UNL     1      -1.270  -4.529  -5.022  0.00  0.00    +0.142 A 
ATOM     35  C   UNL     1      -0.771  -3.228  -5.273  0.00  0.00    +0.176 A 
ATOM     36  N   UNL     1      -0.383  -2.486  -4.273  0.00  0.00    -0.170 NA
ATOM     37  N   UNL     1      -1.691  -5.330  -6.058  0.00  0.00    -0.342 N 
ATOM     38  H   UNL     1      -2.031  -6.220  -5.875  0.00  0.00    +0.144 HD
ATOM     39  H   UNL     1      -1.647  -5.006  -6.971  0.00  0.00    +0.144 HD
ENDBRANCH  28  30
BRANCH  27  40
ATOM     40  O   UNL     1      -1.678  -0.415  -1.320  0.00  0.00    -0.385 OA
ATOM     41  H   UNL     1      -2.423  -1.004  -1.500  0.00  0.00    +0.210 HD
ENDBRANCH  27  40
BRANCH  26  42
ATOM     42  O   UNL     1       0.636   1.512  -2.379  0.00  0.00    -0.386 OA
ATOM     43  H   UNL     1      -0.151   2.042  -2.192  0.00  0.00    +0.210 HD
ENDBRANCH  26  42
ENDBRANCH  24  25
ENDBRANCH  23  24
ENDBRANCH   1  23
TORSDOF 9
