REMARK  Name = ZINC12814636
REMARK  8 active torsions:
REMARK  status: ('A' for Active; 'I' for Inactive)
REMARK    1  A    between atoms: C_1  and  C_2
REMARK    2  A    between atoms: C_2  and  C_4
REMARK    3  A    between atoms: C_2  and  S_20
REMARK    4  A    between atoms: N_9  and  C_10
REMARK    5  A    between atoms: S_20  and  C_21
REMARK    6  A    between atoms: C_24  and  C_29
REMARK    7  A    between atoms: N_25  and  C_26
REMARK    8  A    between atoms: C_26  and  C_27
REMARK                            x       y       z     vdW  Elec       q    Type
REMARK                         _______ _______ _______ _____ _____    ______ ____
ROOT
ATOM      1  C   UNL     1      -2.143   1.058   1.278  0.00  0.00    +0.233 C 
ATOM      2  O   UNL     1      -2.427   0.090   1.950  0.00  0.00    -0.274 OA
ATOM      3  N   UNL     1      -3.091   1.667   0.539  0.00  0.00    -0.239 N 
ATOM      4  C   UNL     1      -4.356   1.201   0.549  0.00  0.00    +0.306 C 
ATOM      5  O   UNL     1      -4.641   0.230   1.223  0.00  0.00    -0.252 OA
ATOM      6  N   UNL     1      -5.305   1.810  -0.189  0.00  0.00    -0.294 N 
ATOM      7  H   UNL     1      -2.864   2.442   0.002  0.00  0.00    +0.159 HD
ATOM      8  H   UNL     1      -5.077   2.585  -0.727  0.00  0.00    +0.151 HD
ENDROOT
BRANCH   6   9
ATOM      9  C   UNL     1      -6.679   1.303  -0.178  0.00  0.00    +0.037 C 
ATOM     10  C   UNL     1      -6.693  -0.142  -0.679  0.00  0.00    +0.029 C 
ATOM     11  C   UNL     1      -8.129  -0.672  -0.669  0.00  0.00    -0.008 C 
ATOM     12  C   UNL     1      -8.998   0.193  -1.583  0.00  0.00    +0.007 C 
ATOM     13  C   UNL     1      -8.984   1.639  -1.082  0.00  0.00    -0.008 C 
ATOM     14  C   UNL     1      -7.549   2.168  -1.093  0.00  0.00    +0.029 C 
ATOM     15  C   UNL     1      -9.536   1.690   0.344  0.00  0.00    +0.007 C 
ATOM     16  C   UNL     1      -8.666   0.825   1.259  0.00  0.00    -0.008 C 
ATOM     17  C   UNL     1      -8.680  -0.621   0.758  0.00  0.00    +0.007 C 
ATOM     18  C   UNL     1      -7.231   1.354   1.248  0.00  0.00    +0.029 C 
ENDBRANCH   6   9
BRANCH   1  20
ATOM     19  C   UNL     1      -0.013   1.086   0.008  0.00  0.00    +0.029 C 
ATOM     20  C   UNL     1      -0.729   1.579   1.267  0.00  0.00    +0.137 C 
BRANCH  20  21
ATOM     21  S   UNL     1       0.147   0.980   2.733  0.00  0.00    -0.074 S 
BRANCH  21  22
ATOM     22  C   UNL     1       1.675   1.838   2.550  0.00  0.00    +0.193 A 
ATOM     23  N   UNL     1       1.996   2.659   1.577  0.00  0.00    -0.122 NA
ATOM     24  N   UNL     1       3.187   3.107   1.761  0.00  0.00    -0.133 NA
ATOM     25  C   UNL     1       3.695   2.597   2.847  0.00  0.00    +0.137 A 
ATOM     26  N   UNL     1       2.750   1.770   3.388  0.00  0.00    -0.302 N 
BRANCH  25  27
ATOM     27  C   UNL     1       5.069   2.867   3.403  0.00  0.00    +0.057 C 
ATOM     28  C   UNL     1       5.213   4.361   3.704  0.00  0.00    +0.011 C 
ATOM     29  C   UNL     1       6.608   4.635   4.268  0.00  0.00    +0.001 C 
ATOM     30  C   UNL     1       7.664   4.217   3.243  0.00  0.00    +0.000 C 
ATOM     31  C   UNL     1       7.521   2.724   2.943  0.00  0.00    +0.001 C 
ATOM     32  C   UNL     1       6.125   2.449   2.378  0.00  0.00    +0.011 C 
ENDBRANCH  25  27
BRANCH  26  33
ATOM     33  C   UNL     1       2.867   0.976   4.614  0.00  0.00    +0.152 C 
BRANCH  33  34
ATOM     34  C   UNL     1       3.425  -0.384   4.280  0.00  0.00    -0.013 C 
ATOM     35  C   UNL     1       4.500  -0.818   4.891  0.00  0.00    +0.005 C 
ENDBRANCH  33  34
ENDBRANCH  26  33
ENDBRANCH  21  22
ENDBRANCH  20  21
ENDBRANCH   1  20
TORSDOF 7
