REMARK  Name = ZINC22373393
REMARK  7 active torsions:
REMARK  status: ('A' for Active; 'I' for Inactive)
REMARK    1  A    between atoms: C_7  and  C_11
REMARK    2  A    between atoms: C_17  and  C_19
REMARK    3  A    between atoms: C_19  and  N_20
REMARK    4  A    between atoms: N_20  and  C_21
REMARK    5  A    between atoms: N_20  and  C_27
REMARK    6  A    between atoms: C_21  and  C_22
REMARK    7  A    between atoms: C_27  and  C_28
REMARK                            x       y       z     vdW  Elec       q    Type
REMARK                         _______ _______ _______ _____ _____    ______ ____
ROOT
ATOM      1  C   UNL     1       0.953  -4.333  -1.150  0.00  0.00    +0.082 A 
ATOM      2  C   UNL     1       1.208  -5.665  -1.321  0.00  0.00    +0.077 A 
ATOM      3  S   UNL     1      -0.414  -6.354  -1.041  0.00  0.00    -0.060 S 
ATOM      4  C   UNL     1      -1.234  -4.916  -0.742  0.00  0.00    +0.165 A 
ATOM      5  N   UNL     1      -0.297  -4.001  -0.852  0.00  0.00    -0.225 NA
ATOM      6  N   UNL     1      -2.580  -4.738  -0.443  0.00  0.00    -0.264 N 
ATOM      7  C   UNL     1      -3.399  -5.805  -0.364  0.00  0.00    +0.233 C 
ATOM      8  O   UNL     1      -2.962  -6.921  -0.554  0.00  0.00    -0.274 OA
ATOM      9  H   UNL     1      -2.929  -3.846  -0.291  0.00  0.00    +0.157 HD
ENDROOT
BRANCH   1  16
ATOM     10  C   UNL     1       0.980   0.327  -0.731  0.00  0.00    +0.001 A 
ATOM     11  C   UNL     1       2.236   0.878  -0.947  0.00  0.00    +0.002 A 
ATOM     12  C   UNL     1       3.312   0.073  -1.250  0.00  0.00    +0.026 A 
ATOM     13  C   UNL     1       3.142  -1.305  -1.339  0.00  0.00    +0.047 A 
ATOM     14  C   UNL     1       1.868  -1.856  -1.119  0.00  0.00    +0.009 A 
ATOM     15  C   UNL     1       0.791  -1.024  -0.814  0.00  0.00    +0.010 A 
ATOM     16  C   UNL     1       2.019  -3.310  -1.284  0.00  0.00    +0.026 A 
ATOM     17  C   UNL     1       3.321  -3.535  -1.582  0.00  0.00    +0.093 A 
ATOM     18  N   UNL     1       3.999  -2.347  -1.617  0.00  0.00    -0.360 N 
ATOM     19  H   UNL     1       4.945  -2.252  -1.810  0.00  0.00    +0.165 HD
ENDBRANCH   1  16
BRANCH   7  20
ATOM     20  C   UNL     1      -4.858  -5.613  -0.041  0.00  0.00    +0.181 C 
BRANCH  20  21
ATOM     21  N   UNL     1      -5.530  -6.919  -0.014  0.00  0.00    -0.287 NA
BRANCH  21  22
ATOM     22  C   UNL     1      -5.149  -7.683   1.181  0.00  0.00    +0.127 C 
BRANCH  22  23
ATOM     23  C   UNL     1      -5.527  -9.129   0.995  0.00  0.00    +0.004 A 
ATOM     24  C   UNL     1      -4.838 -10.119   0.376  0.00  0.00    +0.012 A 
ATOM     25  C   UNL     1      -5.386 -11.387   0.325  0.00  0.00    +0.008 A 
ATOM     26  C   UNL     1      -6.596 -11.604   0.896  0.00  0.00    +0.045 A 
ATOM     27  S   UNL     1      -6.996  -9.986   1.538  0.00  0.00    -0.100 S 
ENDBRANCH  22  23
ENDBRANCH  21  22
BRANCH  21  28
ATOM     28  C   UNL     1      -6.989  -6.762  -0.095  0.00  0.00    +0.116 C 
BRANCH  28  29
ATOM     29  C   UNL     1      -7.388  -6.445  -1.538  0.00  0.00    +0.132 C 
ATOM     30  C   UNL     1      -8.929  -6.333  -1.657  0.00  0.00    +0.035 C 
ATOM     31  C   UNL     1      -9.062  -5.421  -2.907  0.00  0.00    +0.031 C 
ATOM     32  C   UNL     1      -7.835  -4.495  -2.769  0.00  0.00    +0.160 C 
ATOM     33  O   UNL     1      -6.885  -5.156  -1.923  0.00  0.00    -0.375 OA
ENDBRANCH  28  29
ENDBRANCH  21  28
ENDBRANCH  20  21
ENDBRANCH   7  20
TORSDOF 7
