REMARK  Name = ZINC61996313
REMARK  8 active torsions:
REMARK  status: ('A' for Active; 'I' for Inactive)
REMARK    1  A    between atoms: C_1  and  C_2
REMARK    2  A    between atoms: C_2  and  C_3
REMARK    3  A    between atoms: C_2  and  N_16
REMARK    4  A    between atoms: C_6  and  N_9
REMARK    5  A    between atoms: N_12  and  C_13
REMARK    6  A    between atoms: N_19  and  C_20
REMARK    7  A    between atoms: C_20  and  C_21
REMARK    8  A    between atoms: C_20  and  C_22
REMARK                            x       y       z     vdW  Elec       q    Type
REMARK                         _______ _______ _______ _____ _____    ______ ____
ROOT
ATOM      1  C   UNL     1       0.025   1.733  -0.167  0.00  0.00    +0.033 C 
ATOM      2  C   UNL     1      -0.129   0.226   0.046  0.00  0.00    +0.102 C 
ENDROOT
BRANCH   2   3
ATOM      3  C   UNL     1       0.567  -0.174   1.322  0.00  0.00    -0.027 A 
ATOM      4  C   UNL     1       1.939  -0.341   1.336  0.00  0.00    +0.007 A 
ATOM      5  C   UNL     1       2.580  -0.708   2.503  0.00  0.00    +0.023 A 
ATOM      6  C   UNL     1       1.844  -0.909   3.664  0.00  0.00    +0.035 A 
ATOM      7  C   UNL     1       0.466  -0.740   3.646  0.00  0.00    +0.023 A 
ATOM      8  C   UNL     1      -0.168  -0.368   2.477  0.00  0.00    +0.007 A 
BRANCH   6   9
ATOM      9  N   UNL     1       2.490  -1.281   4.848  0.00  0.00    -0.269 N 
ATOM     10  C   UNL     1       3.734  -0.832   5.107  0.00  0.00    +0.304 C 
ATOM     11  O   UNL     1       4.258  -0.029   4.359  0.00  0.00    -0.253 OA
ATOM     12  N   UNL     1       4.396  -1.272   6.195  0.00  0.00    -0.296 N 
ATOM     13  H   UNL     1       2.042  -1.862   5.483  0.00  0.00    +0.156 HD
ATOM     14  H   UNL     1       3.978  -1.912   6.792  0.00  0.00    +0.151 HD
BRANCH  12  15
ATOM     15  C   UNL     1       5.748  -0.784   6.477  0.00  0.00    +0.075 C 
ATOM     16  C   UNL     1       6.793  -1.811   6.916  0.00  0.00    +0.024 C 
ATOM     17  C   UNL     1       6.223  -0.818   7.931  0.00  0.00    +0.024 C 
ENDBRANCH  12  15
ENDBRANCH   6   9
ENDBRANCH   2   3
BRANCH   2  18
ATOM     18  N   UNL     1       0.470  -0.491  -1.082  0.00  0.00    -0.293 N 
ATOM     19  C   UNL     1      -0.248  -0.707  -2.202  0.00  0.00    +0.300 C 
ATOM     20  O   UNL     1      -1.394  -0.306  -2.275  0.00  0.00    -0.253 OA
ATOM     21  N   UNL     1       0.303  -1.366  -3.240  0.00  0.00    -0.297 N 
ATOM     22  H   UNL     1       1.385  -0.810  -1.024  0.00  0.00    +0.151 HD
ATOM     23  H   UNL     1       1.217  -1.685  -3.181  0.00  0.00    +0.151 HD
BRANCH  21  24
ATOM     24  C   UNL     1      -0.479  -1.601  -4.457  0.00  0.00    +0.075 C 
ATOM     25  C   UNL     1      -0.379  -0.378  -5.370  0.00  0.00    +0.028 C 
BRANCH  24  26
ATOM     26  C   UNL     1       0.070  -2.828  -5.186  0.00  0.00    +0.012 C 
ATOM     27  C   UNL     1      -0.251  -4.115  -4.392  0.00  0.00    +0.009 C 
ATOM     28  C   UNL     1      -1.140  -4.961  -5.354  0.00  0.00    -0.010 C 
ATOM     29  C   UNL     1      -2.493  -4.188  -5.416  0.00  0.00    +0.004 C 
ATOM     30  C   UNL     1      -2.172  -2.901  -6.210  0.00  0.00    +0.004 C 
ATOM     31  C   UNL     1      -0.655  -3.017  -6.553  0.00  0.00    -0.006 C 
ATOM     32  C   UNL     1      -0.519  -4.570  -6.742  0.00  0.00    +0.007 C 
ENDBRANCH  24  26
ENDBRANCH  21  24
ENDBRANCH   2  18
TORSDOF 6
