REMARK  Name = ZINC22735842
REMARK  11 active torsions:
REMARK  status: ('A' for Active; 'I' for Inactive)
REMARK    1  A    between atoms: C_1  and  C_2
REMARK    2  A    between atoms: C_2  and  O_3
REMARK    3  A    between atoms: O_3  and  C_4
REMARK    4  A    between atoms: C_7  and  S_10
REMARK    5  A    between atoms: S_10  and  N_13
REMARK    6  A    between atoms: N_13  and  C_14
REMARK    7  A    between atoms: C_14  and  C_15
REMARK    8  A    between atoms: C_15  and  C_17
REMARK    9  A    between atoms: C_15  and  N_27
REMARK   10  A    between atoms: N_25  and  C_26
REMARK   11  A    between atoms: N_30  and  C_33
REMARK                            x       y       z     vdW  Elec       q    Type
REMARK                         _______ _______ _______ _____ _____    ______ ____
ROOT
ATOM      1  C   UNL     1      -3.358   6.105  -1.089  0.00  0.00    +0.102 C 
ENDROOT
BRANCH   1   2
ATOM      2  C   UNL     1      -2.611   5.025  -0.350  0.00  0.00    -0.029 A 
ATOM      3  C   UNL     1      -2.493   3.763  -0.901  0.00  0.00    +0.007 A 
ATOM      4  C   UNL     1      -1.807   2.772  -0.230  0.00  0.00    +0.024 A 
ATOM      5  C   UNL     1      -1.228   3.038   1.010  0.00  0.00    +0.033 A 
ATOM      6  C   UNL     1      -1.357   4.308   1.558  0.00  0.00    -0.025 A 
ATOM      7  C   UNL     1      -2.041   5.296   0.881  0.00  0.00    +0.010 A 
ATOM      8  C   UNL     1      -0.648   4.313   2.898  0.00  0.00    +0.056 C 
ATOM      9  C   UNL     1      -0.479   2.807   3.203  0.00  0.00    +0.109 C 
ATOM     10  N   UNL     1      -0.487   2.197   1.855  0.00  0.00    -0.332 N 
ATOM     11  C   UNL     1      -1.057   0.844   1.893  0.00  0.00    +0.129 C 
ENDBRANCH   1   2
BRANCH   1  12
ATOM     12  N   UNL     1      -4.623   6.386  -0.399  0.00  0.00    -0.298 NA
ATOM     13  C   UNL     1      -4.385   6.796   0.992  0.00  0.00    +0.066 C 
ATOM     14  C   UNL     1      -5.718   7.155   1.652  0.00  0.00    -0.064 C 
ATOM     15  N   UNL     1      -6.618   5.995   1.595  0.00  0.00    +0.379 N 
ATOM     16  C   UNL     1      -6.857   5.585   0.204  0.00  0.00    -0.064 C 
ATOM     17  C   UNL     1      -5.523   5.226  -0.456  0.00  0.00    +0.066 C 
ATOM     18  C   UNL     1      -7.884   6.275   2.285  0.00  0.00    -0.096 C 
ATOM     19  H   UNL     1      -6.128   5.159   2.115  0.00  0.00    -0.082 HD
ENDBRANCH   1  12
BRANCH   1  20
ATOM     20  C   UNL     1      -2.507   7.376  -1.132  0.00  0.00    +0.129 C 
BRANCH  20  21
ATOM     21  N   UNL     1      -3.279   8.460  -1.745  0.00  0.00    -0.188 NA
ATOM     22  H   UNL     1      -4.099   8.226  -2.440  0.00  0.00    +0.148 HD
BRANCH  21  23
ATOM     23  S   UNL     1      -2.769  10.028  -1.594  0.00  0.00    +0.058 S 
ATOM     24  O   UNL     1      -3.700  10.829  -2.309  0.00  0.00    -0.153 OA
ATOM     25  O   UNL     1      -2.489  10.233  -0.216  0.00  0.00    -0.153 OA
BRANCH  23  29
ATOM     26  C   UNL     1       1.181  10.369  -3.782  0.00  0.00    +0.121 A 
ATOM     27  C   UNL     1      -0.009  10.604  -4.455  0.00  0.00    +0.047 A 
ATOM     28  C   UNL     1      -1.213  10.500  -3.785  0.00  0.00    +0.032 A 
ATOM     29  C   UNL     1      -1.232  10.161  -2.445  0.00  0.00    +0.105 A 
ATOM     30  C   UNL     1      -0.047   9.932  -1.770  0.00  0.00    +0.032 A 
ATOM     31  C   UNL     1       1.159  10.029  -2.437  0.00  0.00    +0.047 A 
BRANCH  26  32
ATOM     32  O   UNL     1       2.366  10.471  -4.439  0.00  0.00    -0.492 OA
BRANCH  32  34
ATOM     33  C   UNL     1       4.777  10.377  -4.584  0.00  0.00    +0.048 C 
ATOM     34  C   UNL     1       3.551  10.215  -3.682  0.00  0.00    +0.225 C 
ENDBRANCH  32  34
ENDBRANCH  26  32
ENDBRANCH  23  29
ENDBRANCH  21  23
ENDBRANCH  20  21
ENDBRANCH   1  20
TORSDOF 8
