REMARK  Name = ZINC04084346
REMARK  6 active torsions:
REMARK  status: ('A' for Active; 'I' for Inactive)
REMARK    1  A    between atoms: C_1  and  C_2
REMARK    2  A    between atoms: C_2  and  C_3
REMARK    3  A    between atoms: C_3  and  C_5
REMARK    4  A    between atoms: C_3  and  C_6
REMARK    5  A    between atoms: N_14  and  C_17
REMARK    6  A    between atoms: C_17  and  C_18
REMARK                            x       y       z     vdW  Elec       q    Type
REMARK                         _______ _______ _______ _____ _____    ______ ____
ROOT
ATOM      1  C   UNL     1       1.419   1.853  -0.002  0.00  0.00    -0.054 C 
ATOM      2  C   UNL     1       2.111   0.821   0.914  0.00  0.00    +0.073 C 
ATOM      3  C   UNL     1       1.166  -0.413   0.912  0.00  0.00    +0.088 C 
ATOM      4  C   UNL     1       0.685  -0.503   2.343  0.00  0.00    +0.225 C 
ATOM      5  O   UNL     1      -0.073  -1.345   2.775  0.00  0.00    -0.275 OA
ATOM      6  N   UNL     1       1.226   0.490   3.058  0.00  0.00    -0.237 N 
ATOM      7  C   UNL     1       2.035   1.297   2.364  0.00  0.00    +0.224 C 
ATOM      8  O   UNL     1       2.624   2.256   2.815  0.00  0.00    -0.275 OA
ATOM      9  C   UNL     1       0.002  -0.004   0.002  0.00  0.00    +0.050 C 
ATOM     10  C   UNL     1       0.177  -0.544  -1.390  0.00  0.00    -0.028 A 
ATOM     11  C   UNL     1       1.153  -0.393  -2.349  0.00  0.00    +0.004 A 
ATOM     12  C   UNL     1       1.030  -1.034  -3.568  0.00  0.00    +0.000 A 
ATOM     13  C   UNL     1      -0.075  -1.827  -3.821  0.00  0.00    +0.002 A 
ATOM     14  C   UNL     1      -1.055  -1.981  -2.863  0.00  0.00    +0.023 A 
ATOM     15  C   UNL     1      -0.940  -1.338  -1.632  0.00  0.00    +0.036 A 
ATOM     16  N   UNL     1      -1.784  -1.337  -0.520  0.00  0.00    -0.286 N 
ATOM     17  C   UNL     1      -1.302  -0.577   0.483  0.00  0.00    +0.211 C 
ATOM     18  O   UNL     1      -1.821  -0.390   1.564  0.00  0.00    -0.277 OA
ATOM     19  H   UNL     1      -2.621  -1.826  -0.475  0.00  0.00    +0.155 HD
ATOM     20  N   UNL     1       0.012   1.448   0.010  0.00  0.00    +0.394 N 
ATOM     21  H   UNL     1      -0.468   1.811  -0.822  0.00  0.00    -0.083 HD
ATOM     22  H   UNL     1      -0.453   1.802   0.854  0.00  0.00    -0.083 HD
ENDROOT
BRANCH   1  23
ATOM     23  C   UNL     1       1.599   3.265   0.557  0.00  0.00    -0.028 C 
ATOM     24  C   UNL     1       3.087   3.623   0.570  0.00  0.00    +0.006 C 
BRANCH  23  26
ATOM     25  C   UNL     1       0.918   5.656   0.303  0.00  0.00    +0.004 C 
ATOM     26  C   UNL     1       0.842   4.262  -0.323  0.00  0.00    -0.002 C 
ENDBRANCH  23  26
ENDBRANCH   1  23
BRANCH   6  27
ATOM     27  C   UNL     1       0.952   0.679   4.485  0.00  0.00    +0.151 C 
BRANCH  27  28
ATOM     28  C   UNL     1       1.963  -0.089   5.296  0.00  0.00    -0.030 A 
ATOM     29  C   UNL     1       1.706  -1.397   5.662  0.00  0.00    +0.005 A 
ATOM     30  C   UNL     1       2.636  -2.104   6.402  0.00  0.00    +0.000 A 
ATOM     31  C   UNL     1       3.818  -1.499   6.785  0.00  0.00    +0.000 A 
ATOM     32  C   UNL     1       4.073  -0.189   6.424  0.00  0.00    +0.000 A 
ATOM     33  C   UNL     1       3.146   0.516   5.679  0.00  0.00    +0.005 A 
ENDBRANCH  27  28
ENDBRANCH   6  27
TORSDOF 4
