REMARK  Name = ZINC43287474
REMARK  10 active torsions:
REMARK  status: ('A' for Active; 'I' for Inactive)
REMARK    1  A    between atoms: C_1  and  C_2
REMARK    2  A    between atoms: C_2  and  C_3
REMARK    3  A    between atoms: C_3  and  C_5
REMARK    4  A    between atoms: C_3  and  N_22
REMARK    5  A    between atoms: C_5  and  C_7
REMARK    6  A    between atoms: C_5  and  N_13
REMARK    7  A    between atoms: N_13  and  C_14
REMARK    8  A    between atoms: N_13  and  C_17
REMARK    9  A    between atoms: C_14  and  C_15
REMARK   10  A    between atoms: C_15  and  O_16
REMARK                            x       y       z     vdW  Elec       q    Type
REMARK                         _______ _______ _______ _____ _____    ______ ____
ROOT
ATOM      1  C   UNL     1       0.656  -2.228  -1.439  0.00  0.00    +0.079 C 
ENDROOT
BRANCH   1   2
ATOM      2  C   UNL     1       0.938  -1.320  -2.609  0.00  0.00    +0.006 A 
ATOM      3  C   UNL     1       2.037  -0.567  -2.859  0.00  0.00    +0.028 A 
ATOM      4  C   UNL     1       2.077   0.199  -4.010  0.00  0.00    +0.025 A 
ATOM      5  C   UNL     1       1.016   0.173  -4.853  0.00  0.00    +0.060 A 
ATOM      6  S   UNL     1      -0.085  -0.964  -4.027  0.00  0.00    -0.099 S 
ATOM      7 BR   UNL     1       3.589   1.266  -4.400  0.00  0.00    -0.050 Br
ENDBRANCH   1   2
BRANCH   1   8
ATOM      8  C   UNL     1       0.555  -3.674  -1.929  0.00  0.00    -0.053 C 
BRANCH   8   9
ATOM      9  N   UNL     1       1.775  -4.027  -2.667  0.00  0.00    +0.381 N 
ATOM     10  H   UNL     1       1.879  -3.411  -3.459  0.00  0.00    -0.090 HD
ATOM     11  H   UNL     1       2.575  -3.933  -2.059  0.00  0.00    -0.090 HD
ATOM     12  H   UNL     1       1.708  -4.981  -2.990  0.00  0.00    -0.090 HD
ENDBRANCH   8   9
BRANCH   8  14
ATOM     13  C   UNL     1      -0.790  -5.273  -3.299  0.00  0.00    +0.002 C 
ATOM     14  C   UNL     1      -0.658  -3.816  -2.851  0.00  0.00    -0.018 C 
ENDBRANCH   8  14
ENDBRANCH   1   8
BRANCH   1  15
ATOM     15  N   UNL     1      -0.611  -1.835  -0.809  0.00  0.00    -0.291 NA
BRANCH  15  16
ATOM     16  C   UNL     1      -0.381  -0.882   0.286  0.00  0.00    +0.057 C 
ATOM     17  C   UNL     1       0.310   0.387  -0.254  0.00  0.00    +0.019 C 
ATOM     18  C   UNL     1       1.294   0.791   0.871  0.00  0.00    +0.002 C 
ATOM     19  C   UNL     1       1.813  -0.576   1.380  0.00  0.00    +0.002 C 
ATOM     20  C   UNL     1       0.575  -1.495   1.325  0.00  0.00    +0.019 C 
ENDBRANCH  15  16
BRANCH  15  21
ATOM     21  C   UNL     1      -1.543  -1.282  -1.800  0.00  0.00    +0.113 C 
BRANCH  21  22
ATOM     22  C   UNL     1      -2.962  -1.290  -1.227  0.00  0.00    +0.171 C 
BRANCH  22  23
ATOM     23  O   UNL     1      -3.036  -0.384  -0.125  0.00  0.00    -0.394 OA
ATOM     24  H   UNL     1      -3.886  -0.393   0.336  0.00  0.00    +0.209 HD
ENDBRANCH  22  23
ENDBRANCH  21  22
ENDBRANCH  15  21
ENDBRANCH   1  15
TORSDOF 9
