REMARK  Name = ZINC03165453
REMARK  9 active torsions:
REMARK  status: ('A' for Active; 'I' for Inactive)
REMARK    1  A    between atoms: C_1  and  C_2
REMARK    2  A    between atoms: C_8  and  C_16
REMARK    3  A    between atoms: C_16  and  O_18
REMARK    4  A    between atoms: O_18  and  C_19
REMARK    5  A    between atoms: C_19  and  C_21
REMARK    6  A    between atoms: C_19  and  C_22
REMARK    7  A    between atoms: N_24  and  C_25
REMARK    8  A    between atoms: C_28  and  S_31
REMARK    9  A    between atoms: S_31  and  N_34
REMARK                            x       y       z     vdW  Elec       q    Type
REMARK                         _______ _______ _______ _____ _____    ______ ____
ROOT
ATOM      1  O   UNL     1       2.426   1.869   2.309  0.00  0.00    -0.449 OA
ENDROOT
BRANCH   1   2
ATOM      2  C   UNL     1       1.397   1.019   2.494  0.00  0.00    +0.341 C 
ATOM      3  O   UNL     1       1.612  -0.160   2.690  0.00  0.00    -0.245 OA
BRANCH   2  10
ATOM      4  C   UNL     1      -0.169   0.870  -2.470  0.00  0.00    +0.008 C 
ATOM      5  C   UNL     1      -0.743   1.563  -1.232  0.00  0.00    -0.009 C 
ATOM      6  C   UNL     1      -2.230   1.219  -1.091  0.00  0.00    +0.010 C 
ATOM      7  C   UNL     1      -2.832   2.112  -0.008  0.00  0.00    +0.056 C 
ATOM      8  C   UNL     1      -2.011   2.040   1.256  0.00  0.00    +0.046 A 
ATOM      9  C   UNL     1      -0.708   1.560   1.260  0.00  0.00    -0.011 A 
ATOM     10  C   UNL     1       0.008   1.521   2.457  0.00  0.00    +0.073 A 
ATOM     11  C   UNL     1      -0.631   1.975   3.636  0.00  0.00    +0.015 A 
ATOM     12  C   UNL     1       0.021   1.966   4.876  0.00  0.00    +0.011 A 
ATOM     13  C   UNL     1      -0.635   2.411   5.985  0.00  0.00    +0.001 A 
ATOM     14  C   UNL     1      -1.946   2.875   5.902  0.00  0.00    +0.002 A 
ATOM     15  C   UNL     1      -2.609   2.897   4.713  0.00  0.00    +0.028 A 
ATOM     16  C   UNL     1      -1.965   2.446   3.546  0.00  0.00    +0.072 A 
ATOM     17  N   UNL     1      -2.585   2.455   2.368  0.00  0.00    -0.251 NA
ATOM     18  C   UNL     1      -0.015   1.071   0.017  0.00  0.00    +0.041 C 
ENDBRANCH   2  10
ENDBRANCH   1   2
BRANCH   1  19
ATOM     19  C   UNL     1       3.764   1.306   2.358  0.00  0.00    +0.259 C 
ATOM     20  C   UNL     1       4.182   0.863   0.955  0.00  0.00    +0.062 C 
BRANCH  19  21
ATOM     21  C   UNL     1       4.729   2.347   2.865  0.00  0.00    +0.258 C 
ATOM     22  O   UNL     1       4.328   3.454   3.156  0.00  0.00    -0.271 OA
ATOM     23  N   UNL     1       6.036   2.048   2.994  0.00  0.00    -0.282 N 
ATOM     24  H   UNL     1       6.346   1.144   2.826  0.00  0.00    +0.155 HD
BRANCH  23  25
ATOM     25  C   UNL     1       6.947   3.040   3.372  0.00  0.00    +0.034 A 
ATOM     26  C   UNL     1       8.236   3.034   2.855  0.00  0.00    +0.025 A 
ATOM     27  C   UNL     1       9.132   4.018   3.225  0.00  0.00    +0.030 A 
ATOM     28  C   UNL     1       8.749   5.003   4.118  0.00  0.00    +0.105 A 
ATOM     29  C   UNL     1       7.468   5.008   4.638  0.00  0.00    +0.030 A 
ATOM     30  C   UNL     1       6.566   4.030   4.268  0.00  0.00    +0.025 A 
BRANCH  28  31
ATOM     31  S   UNL     1       9.897   6.253   4.592  0.00  0.00    +0.056 S 
ATOM     32  O   UNL     1      10.857   6.341   3.548  0.00  0.00    -0.153 OA
ATOM     33  O   UNL     1       9.128   7.370   5.016  0.00  0.00    -0.153 OA
BRANCH  31  34
ATOM     34  N   UNL     1      10.701   5.697   5.929  0.00  0.00    -0.204 NA
ATOM     35  H   UNL     1      10.490   4.824   6.293  0.00  0.00    +0.144 HD
ATOM     36  H   UNL     1      11.383   6.246   6.348  0.00  0.00    +0.144 HD
ENDBRANCH  31  34
ENDBRANCH  28  31
ENDBRANCH  23  25
ENDBRANCH  19  21
ENDBRANCH   1  19
TORSDOF 7
