REMARK  Name = ZINC41388660
REMARK  10 active torsions:
REMARK  status: ('A' for Active; 'I' for Inactive)
REMARK    1  A    between atoms: C_1  and  C_2
REMARK    2  A    between atoms: C_2  and  N_3
REMARK    3  A    between atoms: C_4  and  C_8
REMARK    4  A    between atoms: C_11  and  S_16
REMARK    5  A    between atoms: N_12  and  C_13
REMARK    6  A    between atoms: C_13  and  C_14
REMARK    7  A    between atoms: C_13  and  C_15
REMARK    8  A    between atoms: S_16  and  C_17
REMARK    9  A    between atoms: C_17  and  C_18
REMARK   10  A    between atoms: C_21  and  C_23
REMARK                            x       y       z     vdW  Elec       q    Type
REMARK                         _______ _______ _______ _____ _____    ______ ____
ROOT
ATOM      1  C   UNL     1       3.092  -0.825  -0.027  0.00  0.00    +0.183 A 
ATOM      2  N   UNL     1       4.357  -1.171   0.046  0.00  0.00    -0.127 NA
ATOM      3  N   UNL     1       4.953  -0.891  -1.057  0.00  0.00    -0.122 NA
ATOM      4  C   UNL     1       4.106  -0.348  -1.904  0.00  0.00    +0.193 A 
ATOM      5  N   UNL     1       2.891  -0.292  -1.281  0.00  0.00    -0.298 N 
ENDROOT
BRANCH   1   7
ATOM      6  N   UNL     1       1.735  -2.145   1.659  0.00  0.00    -0.261 N 
ATOM      7  C   UNL     1       2.077  -0.983   1.030  0.00  0.00    +0.106 A 
ATOM      8  C   UNL     1       1.295   0.016   1.570  0.00  0.00    +0.052 A 
ATOM      9  C   UNL     1       0.475  -0.565   2.536  0.00  0.00    +0.135 A 
ATOM     10  N   UNL     1       0.730  -1.848   2.587  0.00  0.00    -0.179 NA
BRANCH   6  12
ATOM     11  C   UNL     1       1.580  -4.126   0.234  0.00  0.00    +0.029 C 
ATOM     12  C   UNL     1       2.312  -3.467   1.404  0.00  0.00    +0.141 C 
ENDBRANCH   6  12
ENDBRANCH   1   7
BRANCH   5  13
ATOM     13  C   UNL     1       1.638   0.229  -1.832  0.00  0.00    +0.085 C 
ATOM     14  C   UNL     1       1.821   1.699  -2.216  0.00  0.00    +0.030 C 
ATOM     15  C   UNL     1       1.252  -0.578  -3.074  0.00  0.00    +0.030 C 
ENDBRANCH   5  13
BRANCH   4  16
ATOM     16  S   UNL     1       4.469   0.199  -3.539  0.00  0.00    -0.077 S 
BRANCH  16  17
ATOM     17  C   UNL     1       6.234  -0.166  -3.742  0.00  0.00    +0.173 C 
BRANCH  17  18
ATOM     18  C   UNL     1       6.680   0.259  -5.117  0.00  0.00    +0.206 A 
ATOM     19  N   UNL     1       7.151   1.434  -5.431  0.00  0.00    -0.220 NA
ATOM     20  C   UNL     1       7.442   1.450  -6.740  0.00  0.00    +0.161 A 
ATOM     21  C   UNL     1       7.133   0.227  -7.242  0.00  0.00    +0.155 A 
ATOM     22  O   UNL     1       6.661  -0.511  -6.214  0.00  0.00    -0.439 OA
BRANCH  21  23
ATOM     23  C   UNL     1       7.289  -0.215  -8.645  0.00  0.00    +0.019 A 
ATOM     24  C   UNL     1       7.804   0.660  -9.602  0.00  0.00    +0.011 A 
ATOM     25  C   UNL     1       7.947   0.242 -10.909  0.00  0.00    +0.001 A 
ATOM     26  C   UNL     1       7.580  -1.042 -11.271  0.00  0.00    +0.000 A 
ATOM     27  C   UNL     1       7.069  -1.915 -10.327  0.00  0.00    +0.001 A 
ATOM     28  C   UNL     1       6.927  -1.511  -9.016  0.00  0.00    +0.011 A 
ENDBRANCH  21  23
ENDBRANCH  17  18
ENDBRANCH  16  17
ENDBRANCH   4  16
TORSDOF 7
