REMARK  Name = ZINC36206547
REMARK  14 active torsions:
REMARK  status: ('A' for Active; 'I' for Inactive)
REMARK    1  A    between atoms: C_1  and  C_2
REMARK    2  A    between atoms: C_2  and  O_3
REMARK    3  A    between atoms: O_3  and  C_4
REMARK    4  A    between atoms: C_4  and  C_5
REMARK    5  A    between atoms: C_5  and  C_7
REMARK    6  A    between atoms: C_5  and  O_36
REMARK    7  A    between atoms: C_7  and  N_8
REMARK    8  A    between atoms: N_8  and  C_9
REMARK    9  A    between atoms: N_8  and  C_16
REMARK   10  A    between atoms: C_9  and  C_10
REMARK   11  A    between atoms: C_16  and  C_17
REMARK   12  A    between atoms: C_23  and  C_28
REMARK   13  A    between atoms: C_33  and  O_34
REMARK   14  A    between atoms: O_34  and  C_35
REMARK                            x       y       z     vdW  Elec       q    Type
REMARK                         _______ _______ _______ _____ _____    ______ ____
ROOT
ATOM      1  C   UNL     1       2.851  -5.855  -5.519  0.00  0.00    +0.094 A 
ATOM      2  N   UNL     1       2.833  -7.165  -5.876  0.00  0.00    -0.312 N 
ATOM      3  H   UNL     1       2.373  -7.805  -5.310  0.00  0.00    +0.170 HD
ATOM      4  C   UNL     1       3.438  -7.592  -6.999  0.00  0.00    +0.260 A 
ATOM      5  O   UNL     1       3.412  -8.772  -7.305  0.00  0.00    -0.267 OA
ATOM      6  C   UNL     1       4.114  -6.641  -7.828  0.00  0.00    +0.080 A 
ATOM      7  C   UNL     1       4.834  -6.854  -9.078  0.00  0.00    +0.007 A 
ATOM      8  C   UNL     1       5.400  -5.788  -9.693  0.00  0.00    +0.056 A 
ATOM      9  S   UNL     1       4.991  -4.426  -8.618  0.00  0.00    -0.076 S 
ATOM     10  C   UNL     1       4.080  -5.311  -7.380  0.00  0.00    +0.116 A 
ATOM     11  N   UNL     1       3.454  -4.962  -6.258  0.00  0.00    -0.229 NA
ENDROOT
BRANCH   7  12
ATOM     12  C   UNL     1       4.947  -8.211  -9.663  0.00  0.00    +0.025 A 
ATOM     13  C   UNL     1       6.191  -8.830  -9.762  0.00  0.00    +0.012 A 
ATOM     14  C   UNL     1       6.291 -10.094 -10.307  0.00  0.00    +0.001 A 
ATOM     15  C   UNL     1       5.159 -10.749 -10.757  0.00  0.00    +0.004 A 
ATOM     16  C   UNL     1       3.919 -10.145 -10.664  0.00  0.00    +0.046 A 
ATOM     17  C   UNL     1       3.804  -8.879 -10.113  0.00  0.00    +0.128 A 
BRANCH  17  18
ATOM     18  O   UNL     1       2.585  -8.286 -10.016  0.00  0.00    -0.495 OA
ATOM     19  C   UNL     1       1.462  -9.028 -10.496  0.00  0.00    +0.277 C 
ENDBRANCH  17  18
ENDBRANCH   7  12
BRANCH   1  20
ATOM     20  C   UNL     1       2.158  -5.422  -4.253  0.00  0.00    -0.003 C 
BRANCH  20  21
ATOM     21  N   UNL     1       2.297  -3.968  -4.091  0.00  0.00    +0.389 N 
ATOM     22  H   UNL     1       1.982  -3.505  -4.931  0.00  0.00    -0.081 HD
BRANCH  21  23
ATOM     23  C   UNL     1       1.484  -3.522  -2.952  0.00  0.00    -0.044 C 
BRANCH  23  24
ATOM     24  C   UNL     1       1.323  -2.002  -3.003  0.00  0.00    +0.124 C 
BRANCH  24  25
ATOM     25  O   UNL     1       2.589  -1.381  -2.766  0.00  0.00    -0.391 OA
ATOM     26  H   UNL     1       2.994  -1.625  -1.923  0.00  0.00    +0.210 HD
ENDBRANCH  24  25
BRANCH  24  27
ATOM     27  C   UNL     1       0.328  -1.557  -1.930  0.00  0.00    +0.189 C 
BRANCH  27  28
ATOM     28  O   UNL     1       0.090  -0.153  -2.053  0.00  0.00    -0.378 OA
BRANCH  28  30
ATOM     29  C   UNL     1      -1.009   1.869  -1.317  0.00  0.00    +0.034 C 
ATOM     30  C   UNL     1      -0.831   0.366  -1.092  0.00  0.00    +0.156 C 
ENDBRANCH  28  30
ENDBRANCH  27  28
ENDBRANCH  24  27
ENDBRANCH  23  24
ENDBRANCH  21  23
BRANCH  21  31
ATOM     31  C   UNL     1       3.706  -3.635  -3.847  0.00  0.00    -0.042 C 
BRANCH  31  32
ATOM     32  C   UNL     1       4.226  -4.459  -2.697  0.00  0.00    -0.064 A 
ATOM     33  C   UNL     1       4.064  -4.013  -1.399  0.00  0.00    +0.002 A 
ATOM     34  C   UNL     1       4.540  -4.769  -0.344  0.00  0.00    +0.000 A 
ATOM     35  C   UNL     1       5.178  -5.971  -0.588  0.00  0.00    +0.000 A 
ATOM     36  C   UNL     1       5.339  -6.417  -1.887  0.00  0.00    +0.000 A 
ATOM     37  C   UNL     1       4.859  -5.663  -2.941  0.00  0.00    +0.002 A 
ENDBRANCH  31  32
ENDBRANCH  21  31
ENDBRANCH  20  21
ENDBRANCH   1  20
TORSDOF 12
