REMARK  Name = ZINC21336085
REMARK  10 active torsions:
REMARK  status: ('A' for Active; 'I' for Inactive)
REMARK    1  A    between atoms: C_1  and  C_2
REMARK    2  A    between atoms: C_2  and  O_3
REMARK    3  A    between atoms: O_3  and  C_4
REMARK    4  A    between atoms: C_4  and  C_6
REMARK    5  A    between atoms: C_7  and  C_13
REMARK    6  A    between atoms: C_13  and  S_14
REMARK    7  A    between atoms: S_14  and  C_15
REMARK    8  A    between atoms: N_25  and  C_26
REMARK    9  A    between atoms: C_27  and  C_33
REMARK   10  A    between atoms: C_31  and  C_32
REMARK                            x       y       z     vdW  Elec       q    Type
REMARK                         _______ _______ _______ _____ _____    ______ ____
ROOT
ATOM      1  C   UNL     1       6.022  -1.031  -1.758  0.00  0.00    +0.177 A 
ATOM      2  N   UNL     1       6.336  -1.591  -0.616  0.00  0.00    -0.223 NA
ATOM      3  C   UNL     1       7.517  -2.229  -0.442  0.00  0.00    +0.079 A 
ATOM      4  C   UNL     1       7.854  -2.828   0.776  0.00  0.00    +0.028 A 
ATOM      5  C   UNL     1       9.057  -3.462   0.908  0.00  0.00    +0.002 A 
ATOM      6  C   UNL     1       9.954  -3.521  -0.152  0.00  0.00    +0.001 A 
ATOM      7  C   UNL     1       9.653  -2.945  -1.355  0.00  0.00    +0.015 A 
ATOM      8  C   UNL     1       8.432  -2.291  -1.518  0.00  0.00    +0.065 A 
ATOM      9  C   UNL     1       8.056  -1.655  -2.786  0.00  0.00    +0.267 A 
ATOM     10  O   UNL     1       8.801  -1.675  -3.748  0.00  0.00    -0.267 OA
ATOM     11  N   UNL     1       6.847  -1.050  -2.849  0.00  0.00    -0.255 N 
ENDROOT
BRANCH  11  12
ATOM     12  C   UNL     1       6.439  -0.433  -4.039  0.00  0.00    +0.058 A 
ATOM     13  C   UNL     1       5.739  -1.159  -4.994  0.00  0.00    -0.026 A 
ATOM     14  C   UNL     1       5.333  -0.546  -6.164  0.00  0.00    +0.005 A 
ATOM     15  C   UNL     1       5.633   0.785  -6.389  0.00  0.00    +0.001 A 
ATOM     16  C   UNL     1       6.335   1.508  -5.442  0.00  0.00    +0.005 A 
ATOM     17  C   UNL     1       6.738   0.903  -4.268  0.00  0.00    -0.026 A 
ATOM     18  C   UNL     1       7.503   1.692  -3.237  0.00  0.00    +0.046 C 
ATOM     19  C   UNL     1       5.417  -2.611  -4.752  0.00  0.00    +0.046 C 
ENDBRANCH  11  12
BRANCH   1  20
ATOM     20  S   UNL     1       4.463  -0.222  -1.896  0.00  0.00    -0.081 S 
BRANCH  20  21
ATOM     21  C   UNL     1       3.815  -0.501  -0.230  0.00  0.00    +0.128 C 
BRANCH  21  23
ATOM     22  C   UNL     1       1.354  -0.668  -0.125  0.00  0.00    +0.071 C 
ATOM     23  C   UNL     1       2.449   0.123  -0.111  0.00  0.00    +0.034 C 
ATOM     24  N   UNL     1       2.337   1.479   0.009  0.00  0.00    -0.272 N 
ATOM     25  C   UNL     1       1.167   2.121   0.120  0.00  0.00    +0.304 C 
ATOM     26  O   UNL     1       1.169   3.332   0.223  0.00  0.00    -0.253 OA
ATOM     27  N   UNL     1      -0.012   1.468   0.122  0.00  0.00    -0.295 N 
ATOM     28  C   UNL     1      -0.001   0.001  -0.003  0.00  0.00    +0.150 C 
ATOM     29  H   UNL     1       3.240   2.106   0.019  0.00  0.00    +0.156 HD
ATOM     30  H   UNL     1      -0.968   2.005   0.214  0.00  0.00    +0.151 HD
BRANCH  22  31
ATOM     31  C   UNL     1       1.468  -2.072  -0.250  0.00  0.00    +0.338 C 
ATOM     32  O   UNL     1       1.276  -2.604  -1.327  0.00  0.00    -0.245 OA
BRANCH  31  33
ATOM     33  O   UNL     1       1.790  -2.821   0.825  0.00  0.00    -0.462 OA
BRANCH  33  35
ATOM     34  C   UNL     1       2.259  -4.909   1.948  0.00  0.00    +0.048 C 
ATOM     35  C   UNL     1       1.888  -4.233   0.626  0.00  0.00    +0.229 C 
ENDBRANCH  33  35
ENDBRANCH  31  33
ENDBRANCH  22  31
ENDBRANCH  21  23
ENDBRANCH  20  21
ENDBRANCH   1  20
TORSDOF 7
