REMARK  Name = ZINC13063805
REMARK  10 active torsions:
REMARK  status: ('A' for Active; 'I' for Inactive)
REMARK    1  A    between atoms: C_1  and  C_2
REMARK    2  A    between atoms: C_2  and  C_3
REMARK    3  A    between atoms: C_3  and  C_5
REMARK    4  A    between atoms: C_3  and  N_66
REMARK    5  A    between atoms: N_9  and  C_10
REMARK    6  A    between atoms: C_15  and  C_16
REMARK    7  A    between atoms: C_15  and  N_66
REMARK    8  A    between atoms: C_23  and  C_24
REMARK    9  A    between atoms: C_23  and  N_66
REMARK   10  A    between atoms: C_29  and  C_36
REMARK                            x       y       z     vdW  Elec       q    Type
REMARK                         _______ _______ _______ _____ _____    ______ ____
ROOT
ATOM      1  N   UNL     1      -0.330  -0.041   0.086  0.00  0.00    +0.392 N 
ATOM      2  H   UNL     1      -1.198  -0.541   0.311  0.00  0.00    -0.080 HD
ENDROOT
BRANCH   1   3
ATOM      3  C   UNL     1      -0.610   1.410   0.040  0.00  0.00    +0.003 C 
BRANCH   3   4
ATOM      4  C   UNL     1       0.595   2.165  -0.460  0.00  0.00    +0.138 A 
ATOM      5  N   UNL     1       1.322   1.872  -1.510  0.00  0.00    -0.115 NA
ATOM      6  N   UNL     1       2.257   2.754  -1.605  0.00  0.00    -0.023 NA
ATOM      7  N   UNL     1       2.149   3.597  -0.638  0.00  0.00    -0.044 NA
ATOM      8  N   UNL     1       1.137   3.268   0.090  0.00  0.00    -0.228 N 
BRANCH   8   9
ATOM      9  C   UNL     1       0.664   3.964   1.289  0.00  0.00    +0.111 C 
ATOM     10  C   UNL     1       0.335   5.433   0.952  0.00  0.00    +0.027 C 
ATOM     11  C   UNL     1       0.789   6.221   2.207  0.00  0.00    +0.002 C 
ATOM     12  C   UNL     1       2.084   5.482   2.625  0.00  0.00    +0.002 C 
ATOM     13  C   UNL     1       1.776   3.995   2.353  0.00  0.00    +0.027 C 
ENDBRANCH   8   9
ENDBRANCH   3   4
BRANCH   3  15
ATOM     14  C   UNL     1      -3.026   0.924  -0.370  0.00  0.00    +0.002 C 
ATOM     15  C   UNL     1      -1.791   1.655  -0.901  0.00  0.00    -0.011 C 
ENDBRANCH   3  15
ENDBRANCH   1   3
BRANCH   1  16
ATOM     16  C   UNL     1       0.675  -0.328   1.131  0.00  0.00    -0.042 C 
BRANCH  16  17
ATOM     17  C   UNL     1      -0.006  -0.306   2.474  0.00  0.00    -0.064 A 
ATOM     18  C   UNL     1      -0.057   0.868   3.204  0.00  0.00    +0.004 A 
ATOM     19  C   UNL     1      -0.686   0.890   4.434  0.00  0.00    +0.038 A 
ATOM     20  C   UNL     1      -1.256  -0.265   4.941  0.00  0.00    +0.123 A 
ATOM     21  C   UNL     1      -1.200  -1.441   4.212  0.00  0.00    +0.038 A 
ATOM     22  C   UNL     1      -0.575  -1.460   2.980  0.00  0.00    +0.004 A 
ATOM     23  F   UNL     1      -1.867  -0.245   6.146  0.00  0.00    -0.205 F 
ENDBRANCH  16  17
ENDBRANCH   1  16
BRANCH   1  24
ATOM     24  C   UNL     1       0.163  -0.502  -1.230  0.00  0.00    -0.036 C 
BRANCH  24  25
ATOM     25  C   UNL     1       0.063  -2.004  -1.284  0.00  0.00    +0.001 A 
ATOM     26  C   UNL     1      -1.054  -2.590  -1.781  0.00  0.00    +0.017 A 
ATOM     27  C   UNL     1      -1.120  -4.052  -1.819  0.00  0.00    -0.001 A 
ATOM     28  C   UNL     1      -2.246  -4.712  -2.321  0.00  0.00    +0.010 A 
ATOM     29  C   UNL     1      -2.276  -6.078  -2.344  0.00  0.00    +0.004 A 
ATOM     30  C   UNL     1      -1.198  -6.816  -1.873  0.00  0.00    -0.048 A 
ATOM     31  C   UNL     1      -0.079  -6.186  -1.375  0.00  0.00    +0.029 A 
ATOM     32  C   UNL     1      -0.025  -4.797  -1.341  0.00  0.00    +0.049 A 
ATOM     33  N   UNL     1       1.082  -4.141  -0.849  0.00  0.00    -0.322 N 
ATOM     34  H   UNL     1       1.836  -4.655  -0.520  0.00  0.00    +0.169 HD
ATOM     35  C   UNL     1       1.136  -2.797  -0.822  0.00  0.00    +0.251 A 
ATOM     36  O   UNL     1       2.133  -2.251  -0.384  0.00  0.00    -0.268 OA
ATOM     37  C   UNL     1      -1.254  -8.322  -1.908  0.00  0.00    +0.044 C 
ENDBRANCH  24  25
ENDBRANCH   1  24
TORSDOF 8
