REMARK  Name = ZINC67066734
REMARK  6 active torsions:
REMARK  status: ('A' for Active; 'I' for Inactive)
REMARK    1  A    between atoms: C_4  and  C_7
REMARK    2  A    between atoms: C_7  and  C_8
REMARK    3  A    between atoms: N_10  and  N_11
REMARK    4  A    between atoms: N_14  and  C_15
REMARK    5  A    between atoms: N_18  and  C_21
REMARK    6  A    between atoms: C_21  and  C_22
REMARK                            x       y       z     vdW  Elec       q    Type
REMARK                         _______ _______ _______ _____ _____    ______ ____
ROOT
ATOM      1  N   UNL     1       3.838  -4.521  -3.268  0.00  0.00    -0.218 N 
ATOM      2  C   UNL     1       4.449  -5.106  -4.317  0.00  0.00    +0.316 C 
ATOM      3  O   UNL     1       4.631  -6.308  -4.321  0.00  0.00    -0.251 OA
ATOM      4  N   UNL     1       4.859  -4.359  -5.361  0.00  0.00    -0.296 N 
ATOM      5  H   UNL     1       3.543  -5.058  -2.517  0.00  0.00    +0.174 HD
ATOM      6  H   UNL     1       4.714  -3.400  -5.358  0.00  0.00    +0.151 HD
ENDROOT
BRANCH   4   7
ATOM      7  C   UNL     1       5.524  -4.996  -6.501  0.00  0.00    +0.071 C 
ATOM      8  C   UNL     1       7.021  -5.130  -6.211  0.00  0.00    +0.004 C 
ATOM      9  C   UNL     1       7.722  -5.722  -7.436  0.00  0.00    -0.077 C 
ATOM     10  N   UNL     1       7.523  -4.840  -8.592  0.00  0.00    +0.380 N 
ATOM     11  C   UNL     1       6.095  -4.763  -8.920  0.00  0.00    -0.077 C 
ATOM     12  C   UNL     1       5.332  -4.134  -7.753  0.00  0.00    +0.004 C 
ATOM     13  H   UNL     1       7.867  -3.917  -8.372  0.00  0.00    -0.082 HD
BRANCH  10  14
ATOM     14  C   UNL     1       8.261  -5.372  -9.745  0.00  0.00    -0.075 C 
BRANCH  14  15
ATOM     15  C   UNL     1       9.764  -5.300  -9.466  0.00  0.00    -0.028 C 
ATOM     16  C   UNL     1      10.218  -3.828  -9.392  0.00  0.00    +0.002 C 
ATOM     17  C   UNL     1      11.619  -3.829 -10.052  0.00  0.00    +0.000 C 
ATOM     18  C   UNL     1      11.449  -4.841 -11.213  0.00  0.00    +0.000 C 
ATOM     19  C   UNL     1      10.546  -5.944 -10.623  0.00  0.00    +0.002 C 
ENDBRANCH  14  15
ENDBRANCH  10  14
ENDBRANCH   4   7
BRANCH   1  22
ATOM     20  C   UNL     1       3.017  -2.550  -2.215  0.00  0.00    +0.229 C 
ATOM     21  O   UNL     1       2.648  -3.222  -1.276  0.00  0.00    -0.274 OA
ATOM     22  N   UNL     1       3.628  -3.135  -3.264  0.00  0.00    -0.233 N 
ATOM     23  H   UNL     1       3.923  -2.598  -4.016  0.00  0.00    +0.173 HD
BRANCH  20  24
ATOM     24  C   UNL     1       2.791  -1.060  -2.210  0.00  0.00    +0.101 C 
BRANCH  24  28
ATOM     25  C   UNL     1      -0.139   0.652   0.475  0.00  0.00    +0.000 C 
ATOM     26  C   UNL     1       1.258   1.273   0.442  0.00  0.00    +0.000 C 
ATOM     27  C   UNL     1       1.966   0.869  -0.853  0.00  0.00    +0.004 C 
ATOM     28  C   UNL     1       2.083  -0.655  -0.915  0.00  0.00    -0.002 C 
ATOM     29  C   UNL     1       0.686  -1.276  -0.882  0.00  0.00    +0.004 C 
ATOM     30  C   UNL     1      -0.022  -0.872   0.412  0.00  0.00    +0.000 C 
ENDBRANCH  24  28
ENDBRANCH  20  24
ENDBRANCH   1  22
TORSDOF 6
