REMARK  Name = ZINC02311360
REMARK  6 active torsions:
REMARK  status: ('A' for Active; 'I' for Inactive)
REMARK    1  A    between atoms: C_4  and  C_7
REMARK    2  A    between atoms: C_11  and  C_22
REMARK    3  A    between atoms: C_12  and  O_21
REMARK    4  A    between atoms: C_16  and  N_20
REMARK    5  A    between atoms: C_17  and  C_18
REMARK    6  A    between atoms: N_23  and  C_24
REMARK                            x       y       z     vdW  Elec       q    Type
REMARK                         _______ _______ _______ _____ _____    ______ ____
ROOT
ATOM      1  C   UNL     1      -2.751  10.944  -2.496  0.00  0.00    +0.098 C 
ATOM      2  C   UNL     1      -1.804  10.213  -1.580  0.00  0.00    +0.008 A 
ATOM      3  C   UNL     1      -1.782   8.835  -1.593  0.00  0.00    +0.021 A 
ATOM      4  C   UNL     1      -0.915   8.139  -0.746  0.00  0.00    +0.035 A 
ATOM      5  C   UNL     1      -0.058   8.852   0.109  0.00  0.00    +0.129 A 
ATOM      6  C   UNL     1      -0.086  10.235   0.108  0.00  0.00    +0.092 A 
ATOM      7  C   UNL     1      -0.956  10.918  -0.733  0.00  0.00    +0.138 A 
ATOM      8  O   UNL     1      -0.965  12.273  -0.715  0.00  0.00    -0.441 OA
ATOM      9  C   UNL     1      -2.021  12.944  -1.201  0.00  0.00    +0.199 C 
ATOM     10  C   UNL     1      -2.906  12.371  -2.051  0.00  0.00    +0.098 C 
ENDROOT
BRANCH   1  14
ATOM     11  C   UNL     1      -1.203  10.875  -6.477  0.00  0.00    +0.000 A 
ATOM     12  C   UNL     1      -2.436  10.312  -6.205  0.00  0.00    +0.000 A 
ATOM     13  C   UNL     1      -2.937  10.335  -4.916  0.00  0.00    +0.004 A 
ATOM     14  C   UNL     1      -2.205  10.920  -3.900  0.00  0.00    -0.035 A 
ATOM     15  C   UNL     1      -0.974  11.488  -4.174  0.00  0.00    +0.004 A 
ATOM     16  C   UNL     1      -0.472  11.462  -5.461  0.00  0.00    +0.000 A 
ENDBRANCH   1  14
BRANCH   9  17
ATOM     17  N   UNL     1      -2.210  14.251  -0.826  0.00  0.00    -0.328 N 
ATOM     18  H   UNL     1      -2.968  14.749  -1.169  0.00  0.00    +0.145 HD
ATOM     19  H   UNL     1      -1.585  14.676  -0.218  0.00  0.00    +0.145 HD
ENDBRANCH   9  17
BRANCH  10  20
ATOM     20  C   UNL     1      -4.013  13.140  -2.535  0.00  0.00    +0.101 C 
ATOM     21  N   UNL     1      -4.891  13.750  -2.919  0.00  0.00    -0.191 NA
ENDBRANCH  10  20
BRANCH   5  22
ATOM     22  O   UNL     1       0.793   8.188   0.931  0.00  0.00    -0.506 OA
ATOM     23  H   UNL     1       1.659   8.008   0.539  0.00  0.00    +0.292 HD
ENDBRANCH   5  22
BRANCH   4  24
ATOM     24  C   UNL     1      -0.895   6.670  -0.754  0.00  0.00    +0.123 C 
ATOM     25  N   UNL     1      -0.080   6.025   0.034  0.00  0.00    -0.255 NA
BRANCH  25  26
ATOM     26  C   UNL     1      -0.061   4.656   0.027  0.00  0.00    +0.064 A 
ATOM     27  C   UNL     1       1.156   3.971   0.012  0.00  0.00    +0.029 A 
ATOM     28  C   UNL     1       1.168   2.592   0.005  0.00  0.00    +0.017 A 
ATOM     29  C   UNL     1      -0.024   1.887   0.012  0.00  0.00    +0.018 A 
ATOM     30  C   UNL     1      -1.234   2.560   0.022  0.00  0.00    +0.017 A 
ATOM     31  C   UNL     1      -1.259   3.938   0.034  0.00  0.00    +0.029 A 
ATOM     32 BR   UNL     1       0.002  -0.004   0.002  0.00  0.00    -0.050 Br
ENDBRANCH  25  26
ENDBRANCH   4  24
TORSDOF 6
