REMARK  Name = ZINC38887386
REMARK  11 active torsions:
REMARK  status: ('A' for Active; 'I' for Inactive)
REMARK    1  A    between atoms: C_1  and  C_2
REMARK    2  A    between atoms: C_5  and  S_8
REMARK    3  A    between atoms: S_8  and  C_9
REMARK    4  A    between atoms: C_9  and  C_10
REMARK    5  A    between atoms: C_10  and  C_11
REMARK    6  A    between atoms: C_11  and  N_12
REMARK    7  A    between atoms: C_13  and  C_15
REMARK    8  A    between atoms: N_20  and  C_22
REMARK    9  A    between atoms: C_22  and  C_23
REMARK   10  A    between atoms: C_25  and  C_28
REMARK   11  A    between atoms: C_33  and  C_34
REMARK                            x       y       z     vdW  Elec       q    Type
REMARK                         _______ _______ _______ _____ _____    ______ ____
ROOT
ATOM      1  C   UNL     1       0.652 -10.120   5.094  0.00  0.00    +0.058 C 
ATOM      2  C   UNL     1      -0.754 -10.550   4.667  0.00  0.00    +0.009 C 
ATOM      3  C   UNL     1      -0.924 -12.047   4.939  0.00  0.00    -0.018 C 
ATOM      4  C   UNL     1      -0.658 -12.325   6.420  0.00  0.00    -0.078 C 
ATOM      5  N   UNL     1       0.710 -11.917   6.760  0.00  0.00    +0.386 N 
ATOM      6  C   UNL     1       0.861 -10.469   6.569  0.00  0.00    -0.065 C 
ATOM      7  H   UNL     1       1.363 -12.403   6.163  0.00  0.00    -0.081 HD
ENDROOT
BRANCH   1   9
ATOM      8  N   UNL     1       0.660  -8.094   3.676  0.00  0.00    -0.315 N 
ATOM      9  C   UNL     1       0.805  -8.633   4.903  0.00  0.00    +0.214 C 
ATOM     10  O   UNL     1       1.057  -7.922   5.852  0.00  0.00    -0.276 OA
ATOM     11  H   UNL     1       0.459  -8.663   2.917  0.00  0.00    +0.149 HD
BRANCH   8  12
ATOM     12  C   UNL     1       0.808  -6.648   3.490  0.00  0.00    +0.105 C 
BRANCH  12  13
ATOM     13  C   UNL     1       0.597  -6.300   2.015  0.00  0.00    +0.030 C 
BRANCH  13  14
ATOM     14  C   UNL     1       0.752  -4.790   1.820  0.00  0.00    +0.076 C 
BRANCH  14  15
ATOM     15  S   UNL     1       0.501  -4.378   0.071  0.00  0.00    -0.125 S 
BRANCH  15  20
ATOM     16  C   UNL     1       1.210   1.613  -0.130  0.00  0.00    +0.044 C 
ATOM     17  C   UNL     1       1.034   0.118  -0.080  0.00  0.00    -0.050 A 
ATOM     18  C   UNL     1       0.748  -0.583  -1.238  0.00  0.00    +0.004 A 
ATOM     19  C   UNL     1       0.585  -1.953  -1.196  0.00  0.00    +0.015 A 
ATOM     20  C   UNL     1       0.709  -2.629   0.012  0.00  0.00    +0.008 A 
ATOM     21  C   UNL     1       0.997  -1.922   1.174  0.00  0.00    +0.015 A 
ATOM     22  C   UNL     1       1.164  -0.552   1.123  0.00  0.00    +0.004 A 
ENDBRANCH  15  20
ENDBRANCH  14  15
ENDBRANCH  13  14
ENDBRANCH  12  13
ENDBRANCH   8  12
ENDBRANCH   1   9
BRANCH   5  23
ATOM     23  C   UNL     1       0.987 -12.256   8.162  0.00  0.00    +0.022 C 
BRANCH  23  24
ATOM     24  C   UNL     1       0.963 -13.754   8.330  0.00  0.00    +0.211 A 
ATOM     25  N   UNL     1       1.986 -14.550   8.207  0.00  0.00    -0.193 NA
ATOM     26  C   UNL     1       1.608 -15.823   8.424  0.00  0.00    +0.202 A 
ATOM     27  N   UNL     1       0.326 -15.839   8.690  0.00  0.00    -0.056 NA
ATOM     28  O   UNL     1      -0.113 -14.490   8.638  0.00  0.00    -0.340 OA
BRANCH  26  29
ATOM     29  C   UNL     1       2.496 -17.011   8.370  0.00  0.00    +0.025 A 
ATOM     30  C   UNL     1       2.447 -17.967   9.383  0.00  0.00    +0.012 A 
ATOM     31  C   UNL     1       3.276 -19.069   9.328  0.00  0.00    +0.001 A 
ATOM     32  C   UNL     1       4.153 -19.226   8.270  0.00  0.00    +0.000 A 
ATOM     33  C   UNL     1       4.206 -18.280   7.262  0.00  0.00    +0.004 A 
ATOM     34  C   UNL     1       3.378 -17.177   7.304  0.00  0.00    -0.040 A 
ATOM     35  C   UNL     1       3.432 -16.150   6.202  0.00  0.00    +0.044 C 
ENDBRANCH  26  29
ENDBRANCH  23  24
ENDBRANCH   5  23
TORSDOF 9
