REMARK  Name = ZINC39696254
REMARK  8 active torsions:
REMARK  status: ('A' for Active; 'I' for Inactive)
REMARK    1  A    between atoms: C_1  and  C_2
REMARK    2  A    between atoms: C_2  and  C_3
REMARK    3  A    between atoms: C_6  and  C_9
REMARK    4  A    between atoms: C_9  and  C_11
REMARK    5  A    between atoms: C_9  and  N_12
REMARK    6  A    between atoms: C_13  and  C_15
REMARK    7  A    between atoms: C_26  and  C_28
REMARK    8  A    between atoms: C_31  and  C_33
REMARK                            x       y       z     vdW  Elec       q    Type
REMARK                         _______ _______ _______ _____ _____    ______ ____
ROOT
ATOM      1  C   UNL     1       1.741  -4.917   6.817  0.00  0.00    +0.100 C 
ATOM      2  C   UNL     1       0.865  -4.271   7.913  0.00  0.00    +0.121 C 
ATOM      3  N   UNL     1       0.855  -5.261   9.016  0.00  0.00    -0.294 N 
ATOM      4  C   UNL     1       2.240  -5.789   9.050  0.00  0.00    +0.115 C 
ATOM      5  C   UNL     1       2.643  -5.912   7.567  0.00  0.00    -0.004 C 
ATOM      6  C   UNL     1       4.110  -5.535   7.387  0.00  0.00    -0.010 C 
ATOM      7  C   UNL     1       4.989  -6.572   8.092  0.00  0.00    -0.082 C 
ATOM      8  N   UNL     1       4.731  -7.902   7.526  0.00  0.00    +0.379 N 
ATOM      9  C   UNL     1       3.341  -8.295   7.786  0.00  0.00    -0.082 C 
ATOM     10  C   UNL     1       2.393  -7.332   7.068  0.00  0.00    -0.010 C 
ATOM     11  C   UNL     1      -0.180  -5.604   9.809  0.00  0.00    +0.282 C 
ATOM     12  O   UNL     1      -0.028  -6.441  10.679  0.00  0.00    -0.267 OA
ATOM     13  H   UNL     1       4.892  -7.879   6.531  0.00  0.00    -0.086 HD
ATOM     14  H   UNL     1       5.354  -8.573   7.950  0.00  0.00    -0.086 HD
ENDROOT
BRANCH  11  15
ATOM     15  C   UNL     1      -1.486  -4.968   9.623  0.00  0.00    +0.190 A 
ATOM     16  C   UNL     1      -2.621  -5.220  10.364  0.00  0.00    +0.055 A 
ATOM     17  C   UNL     1      -3.629  -4.399   9.850  0.00  0.00    +0.051 A 
ATOM     18  C   UNL     1      -3.079  -3.682   8.825  0.00  0.00    +0.139 A 
ATOM     19  O   UNL     1      -1.788  -4.030   8.701  0.00  0.00    -0.450 OA
BRANCH  18  20
ATOM     20  C   UNL     1      -3.787  -2.687   7.995  0.00  0.00    +0.052 A 
ATOM     21  C   UNL     1      -5.016  -3.004   7.414  0.00  0.00    +0.014 A 
ATOM     22  C   UNL     1      -5.671  -2.070   6.639  0.00  0.00    +0.001 A 
ATOM     23  C   UNL     1      -5.114  -0.820   6.436  0.00  0.00    +0.003 A 
ATOM     24  C   UNL     1      -3.897  -0.496   7.007  0.00  0.00    +0.039 A 
ATOM     25  C   UNL     1      -3.231  -1.420   7.791  0.00  0.00    +0.134 A 
ATOM     26  F   UNL     1      -2.045  -1.102   8.354  0.00  0.00    -0.205 F 
ENDBRANCH  18  20
ENDBRANCH  11  15
BRANCH   1  28
ATOM     27  N   UNL     1       2.952  -4.043   4.845  0.00  0.00    -0.308 N 
ATOM     28  C   UNL     1       2.577  -3.869   6.128  0.00  0.00    +0.219 C 
ATOM     29  O   UNL     1       2.911  -2.869   6.727  0.00  0.00    -0.275 OA
ATOM     30  H   UNL     1       2.685  -4.843   4.366  0.00  0.00    +0.149 HD
BRANCH  27  31
ATOM     31  C   UNL     1       3.764  -3.025   4.175  0.00  0.00    +0.100 C 
ATOM     32  C   UNL     1       2.850  -1.937   3.606  0.00  0.00    +0.033 C 
BRANCH  31  36
ATOM     33  C   UNL     1       5.978  -4.832   1.000  0.00  0.00    -0.048 A 
ATOM     34  C   UNL     1       6.570  -3.868   1.794  0.00  0.00    +0.004 A 
ATOM     35  C   UNL     1       5.854  -3.283   2.821  0.00  0.00    +0.006 A 
ATOM     36  C   UNL     1       4.545  -3.662   3.054  0.00  0.00    -0.027 A 
ATOM     37  C   UNL     1       3.952  -4.625   2.259  0.00  0.00    +0.006 A 
ATOM     38  C   UNL     1       4.667  -5.207   1.229  0.00  0.00    +0.004 A 
BRANCH  33  40
ATOM     39  C   UNL     1       6.571  -4.655  -1.402  0.00  0.00    +0.009 C 
ATOM     40  C   UNL     1       6.759  -5.470  -0.120  0.00  0.00    +0.032 C 
ENDBRANCH  33  40
ENDBRANCH  31  36
ENDBRANCH  27  31
ENDBRANCH   1  28
TORSDOF 6
