REMARK  Name = ZINC36629352
REMARK  9 active torsions:
REMARK  status: ('A' for Active; 'I' for Inactive)
REMARK    1  A    between atoms: C_1  and  C_2
REMARK    2  A    between atoms: C_2  and  O_3
REMARK    3  A    between atoms: O_3  and  C_4
REMARK    4  A    between atoms: C_13  and  C_14
REMARK    5  A    between atoms: N_16  and  C_17
REMARK    6  A    between atoms: C_18  and  C_29
REMARK    7  A    between atoms: N_23  and  C_26
REMARK    8  A    between atoms: C_26  and  C_27
REMARK    9  A    between atoms: C_26  and  C_28
REMARK                            x       y       z     vdW  Elec       q    Type
REMARK                         _______ _______ _______ _____ _____    ______ ____
ROOT
ATOM      1  C   UNL     1       1.829  -0.257  -5.505  0.00  0.00    +0.085 A 
ATOM      2  C   UNL     1       1.191   0.262  -6.623  0.00  0.00    +0.068 A 
ATOM      3  C   UNL     1       1.961   1.152  -7.469  0.00  0.00    -0.027 A 
ATOM      4  C   UNL     1       3.228   1.362  -7.047  0.00  0.00    -0.021 A 
ATOM      5  S   UNL     1       3.371   0.407  -5.567  0.00  0.00    -0.079 S 
ATOM      6  C   UNL     1       4.250   2.225  -7.718  0.00  0.00    -0.035 C 
ATOM      7  N   UNL     1       3.794   2.500  -9.093  0.00  0.00    +0.384 N 
ATOM      8  C   UNL     1       2.407   2.982  -9.065  0.00  0.00    -0.073 C 
ATOM      9  C   UNL     1       1.453   1.830  -8.734  0.00  0.00    +0.018 C 
ATOM     10  H   UNL     1       3.844   1.653  -9.639  0.00  0.00    -0.081 HD
ENDROOT
BRANCH   2  11
ATOM     11  C   UNL     1      -0.201  -0.077  -6.934  0.00  0.00    +0.244 C 
ATOM     12  O   UNL     1      -1.107   0.608  -6.495  0.00  0.00    -0.270 OA
ATOM     13  N   UNL     1      -0.478  -1.145  -7.708  0.00  0.00    -0.325 N 
ATOM     14  H   UNL     1       0.244  -1.690  -8.058  0.00  0.00    +0.145 HD
ATOM     15  H   UNL     1      -1.399  -1.369  -7.914  0.00  0.00    +0.145 HD
ENDBRANCH   2  11
BRANCH   1  18
ATOM     16  C   UNL     1       2.078  -1.521  -3.520  0.00  0.00    +0.253 C 
ATOM     17  O   UNL     1       3.225  -1.126  -3.423  0.00  0.00    -0.270 OA
ATOM     18  N   UNL     1       1.312  -1.120  -4.553  0.00  0.00    -0.275 N 
ATOM     19  H   UNL     1       0.398  -1.435  -4.630  0.00  0.00    +0.156 HD
BRANCH  16  29
ATOM     20  C   UNL     1       0.885  -1.943  -1.374  0.00  0.00    +0.133 A 
ATOM     21  C   UNL     1       0.362  -2.819  -0.422  0.00  0.00    +0.047 A 
ATOM     22  C   UNL     1       0.462  -4.166  -0.558  0.00  0.00    +0.012 A 
ATOM     23  C   UNL     1       1.104  -4.732  -1.675  0.00  0.00    -0.017 A 
ATOM     24  C   UNL     1       1.212  -6.125  -1.825  0.00  0.00    +0.008 A 
ATOM     25  C   UNL     1       1.839  -6.638  -2.920  0.00  0.00    +0.001 A 
ATOM     26  C   UNL     1       2.377  -5.802  -3.895  0.00  0.00    +0.001 A 
ATOM     27  C   UNL     1       2.289  -4.446  -3.781  0.00  0.00    +0.009 A 
ATOM     28  C   UNL     1       1.651  -3.885  -2.669  0.00  0.00    -0.002 A 
ATOM     29  C   UNL     1       1.529  -2.437  -2.509  0.00  0.00    +0.086 A 
BRANCH  20  30
ATOM     30  O   UNL     1       0.762  -0.604  -1.198  0.00  0.00    -0.491 OA
BRANCH  30  32
ATOM     31  C   UNL     1       0.051   1.365   0.009  0.00  0.00    +0.048 C 
ATOM     32  C   UNL     1       0.092  -0.165  -0.015  0.00  0.00    +0.226 C 
ENDBRANCH  30  32
ENDBRANCH  20  30
ENDBRANCH  16  29
ENDBRANCH   1  18
BRANCH   7  33
ATOM     33  C   UNL     1       4.655   3.524  -9.699  0.00  0.00    -0.074 C 
ATOM     34  C   UNL     1       6.117   3.079  -9.607  0.00  0.00    -0.014 C 
ATOM     35  C   UNL     1       4.270   3.710 -11.168  0.00  0.00    -0.014 C 
ENDBRANCH   7  33
TORSDOF 6
