REMARK  Name = ZINC06770755
REMARK  8 active torsions:
REMARK  status: ('A' for Active; 'I' for Inactive)
REMARK    1  A    between atoms: C_1  and  C_2
REMARK    2  A    between atoms: C_4  and  C_8
REMARK    3  A    between atoms: N_6  and  C_7
REMARK    4  A    between atoms: N_10  and  C_11
REMARK    5  A    between atoms: N_10  and  C_23
REMARK    6  A    between atoms: C_11  and  C_12
REMARK    7  A    between atoms: C_12  and  C_13
REMARK    8  A    between atoms: C_23  and  C_24
REMARK                            x       y       z     vdW  Elec       q    Type
REMARK                         _______ _______ _______ _____ _____    ______ ____
ROOT
ATOM      1  C   UNL     1       6.719  -0.029   0.388  0.00  0.00    +0.267 C 
ATOM      2  O   UNL     1       6.347   1.115   0.562  0.00  0.00    -0.268 OA
ATOM      3  N   UNL     1       6.193  -1.028   1.123  0.00  0.00    -0.292 N 
ENDROOT
BRANCH   1   7
ATOM      4  C   UNL     1      10.281   0.436  -3.188  0.00  0.00    +0.065 C 
ATOM      5  C   UNL     1       9.296  -0.106  -2.184  0.00  0.00    +0.037 A 
ATOM      6  C   UNL     1       8.472   0.622  -1.394  0.00  0.00    +0.057 A 
ATOM      7  C   UNL     1       7.749  -0.324  -0.630  0.00  0.00    +0.147 A 
ATOM      8  N   UNL     1       8.164  -1.518  -1.002  0.00  0.00    -0.167 NA
ATOM      9  N   UNL     1       9.067  -1.408  -1.909  0.00  0.00    -0.271 N 
ATOM     10  C   UNL     1       9.750  -2.533  -2.552  0.00  0.00    +0.172 C 
ENDBRANCH   1   7
BRANCH   3  11
ATOM     11  C   UNL     1       6.567  -2.417   0.846  0.00  0.00    +0.113 C 
BRANCH  11  12
ATOM     12  C   UNL     1       5.707  -2.958  -0.298  0.00  0.00    +0.056 C 
BRANCH  12  13
ATOM     13  C   UNL     1       6.092  -4.387  -0.583  0.00  0.00    -0.021 A 
ATOM     14  C   UNL     1       6.959  -4.809  -1.517  0.00  0.00    +0.087 A 
ATOM     15  N   UNL     1       7.056  -6.174  -1.481  0.00  0.00    -0.360 N 
ATOM     16  H   UNL     1       7.622  -6.708  -2.060  0.00  0.00    +0.165 HD
ATOM     17  C   UNL     1       6.226  -6.676  -0.503  0.00  0.00    +0.047 A 
ATOM     18  C   UNL     1       5.586  -5.579   0.102  0.00  0.00    +0.003 A 
ATOM     19  C   UNL     1       4.676  -5.789   1.139  0.00  0.00    +0.010 A 
ATOM     20  C   UNL     1       4.412  -7.061   1.563  0.00  0.00    +0.001 A 
ATOM     21  C   UNL     1       5.041  -8.146   0.969  0.00  0.00    +0.002 A 
ATOM     22  C   UNL     1       5.942  -7.962  -0.057  0.00  0.00    +0.026 A 
ENDBRANCH  12  13
ENDBRANCH  11  12
ENDBRANCH   3  11
BRANCH   3  23
ATOM     23  C   UNL     1       5.246  -0.725   2.200  0.00  0.00    +0.143 C 
BRANCH  23  24
ATOM     24  C   UNL     1       3.843  -0.729   1.650  0.00  0.00    -0.026 A 
ATOM     25  C   UNL     1       3.107  -1.899   1.645  0.00  0.00    +0.009 A 
ATOM     26  C   UNL     1       1.819  -1.907   1.141  0.00  0.00    +0.050 A 
ATOM     27  C   UNL     1       1.263  -0.741   0.641  0.00  0.00    +0.166 A 
ATOM     28  C   UNL     1       2.004   0.438   0.646  0.00  0.00    +0.167 A 
ATOM     29  C   UNL     1       3.294   0.439   1.153  0.00  0.00    +0.054 A 
ATOM     30  O   UNL     1       1.243   1.434   0.106  0.00  0.00    -0.453 OA
ATOM     31  C   UNL     1      -0.111   0.948   0.146  0.00  0.00    +0.466 C 
ATOM     32  O   UNL     1       0.038  -0.483   0.097  0.00  0.00    -0.453 OA
ENDBRANCH  23  24
ENDBRANCH   3  23
TORSDOF 6
