REMARK  Name = ZINC16933596
REMARK  6 active torsions:
REMARK  status: ('A' for Active; 'I' for Inactive)
REMARK    1  A    between atoms: C_1  and  C_2
REMARK    2  A    between atoms: C_2  and  N_3
REMARK    3  A    between atoms: C_7  and  C_8
REMARK    4  A    between atoms: N_17  and  C_18
REMARK    5  A    between atoms: C_21  and  C_25
REMARK    6  A    between atoms: C_23  and  O_24
REMARK                            x       y       z     vdW  Elec       q    Type
REMARK                         _______ _______ _______ _____ _____    ______ ____
ROOT
ATOM      1  N   UNL     1       1.225   1.928   0.327  0.00  0.00    -0.246 N 
ATOM      2  C   UNL     1       2.225   1.196  -0.133  0.00  0.00    +0.259 C 
ATOM      3  O   UNL     1       3.382   1.456   0.139  0.00  0.00    -0.269 OA
ATOM      4  C   UNL     1       1.873   0.046  -0.991  0.00  0.00    +0.078 C 
ATOM      5  C   UNL     1       2.683  -0.861  -1.590  0.00  0.00    +0.028 C 
ATOM      6  S   UNL     1       0.090   0.172  -1.027  0.00  0.00    -0.049 S 
ATOM      7  C   UNL     1      -0.079   1.617   0.008  0.00  0.00    +0.169 C 
ATOM      8  N   UNL     1      -1.179   2.235   0.372  0.00  0.00    -0.222 NA
ENDROOT
BRANCH   5   9
ATOM      9  C   UNL     1       2.105  -2.036  -2.258  0.00  0.00    -0.021 A 
ATOM     10  C   UNL     1       0.789  -2.425  -1.982  0.00  0.00    +0.008 A 
ATOM     11  C   UNL     1       0.252  -3.525  -2.615  0.00  0.00    +0.003 A 
ATOM     12  C   UNL     1       1.012  -4.251  -3.516  0.00  0.00    +0.038 A 
ATOM     13  C   UNL     1       2.317  -3.876  -3.792  0.00  0.00    +0.124 A 
ATOM     14  C   UNL     1       2.869  -2.773  -3.169  0.00  0.00    +0.046 A 
ATOM     15  F   UNL     1       3.052  -4.591  -4.672  0.00  0.00    -0.205 F 
ENDBRANCH   5   9
BRANCH   8  16
ATOM     16  C   UNL     1      -2.401   1.707   0.049  0.00  0.00    +0.108 A 
ATOM     17  C   UNL     1      -2.696   0.380   0.362  0.00  0.00    +0.032 A 
ATOM     18  C   UNL     1      -3.929  -0.146   0.034  0.00  0.00    +0.005 A 
ATOM     19  C   UNL     1      -4.874   0.638  -0.605  0.00  0.00    -0.047 A 
ATOM     20  C   UNL     1      -4.591   1.955  -0.921  0.00  0.00    +0.051 A 
ATOM     21  C   UNL     1      -3.362   2.499  -0.592  0.00  0.00    +0.142 A 
ATOM     22  C   UNL     1      -6.217   0.054  -0.960  0.00  0.00    +0.044 C 
BRANCH  21  23
ATOM     23  O   UNL     1      -3.086   3.795  -0.896  0.00  0.00    -0.505 OA
ATOM     24  H   UNL     1      -2.689   3.918  -1.770  0.00  0.00    +0.292 HD
ENDBRANCH  21  23
ENDBRANCH   8  16
BRANCH   1  26
ATOM     25  C   UNL     1       1.521   2.639   2.649  0.00  0.00    +0.025 C 
ATOM     26  C   UNL     1       1.506   3.083   1.185  0.00  0.00    +0.112 C 
ENDBRANCH   1  26
TORSDOF 4
