REMARK  Name = ZINC02747221
REMARK  7 active torsions:
REMARK  status: ('A' for Active; 'I' for Inactive)
REMARK    1  A    between atoms: C_1  and  C_2
REMARK    2  A    between atoms: C_9  and  N_15
REMARK    3  A    between atoms: C_10  and  C_11
REMARK    4  A    between atoms: C_11  and  O_13
REMARK    5  A    between atoms: O_13  and  C_14
REMARK    6  A    between atoms: C_16  and  C_18
REMARK    7  A    between atoms: C_18  and  N_19
REMARK                            x       y       z     vdW  Elec       q    Type
REMARK                         _______ _______ _______ _____ _____    ______ ____
ROOT
ATOM      1  C   UNL     1       4.899  -5.358  -1.071  0.00  0.00    +0.008 C 
ATOM      2  C   UNL     1       3.992  -4.425  -0.267  0.00  0.00    -0.009 C 
ATOM      3  C   UNL     1       3.638  -3.196  -1.110  0.00  0.00    +0.008 C 
ATOM      4  C   UNL     1       2.944  -2.149  -0.237  0.00  0.00    +0.037 C 
ATOM      5  C   UNL     1       1.777  -2.811   0.485  0.00  0.00    -0.021 A 
ATOM      6  C   UNL     1       1.712  -4.154   0.616  0.00  0.00    -0.004 A 
ATOM      7  S   UNL     1       0.216  -4.449   1.515  0.00  0.00    -0.077 S 
ATOM      8  C   UNL     1      -0.314  -2.812   1.723  0.00  0.00    +0.086 A 
ATOM      9  C   UNL     1       0.680  -2.076   1.092  0.00  0.00    +0.091 A 
ATOM     10  C   UNL     1       2.696  -5.160   0.103  0.00  0.00    +0.046 C 
ENDROOT
BRANCH   8  11
ATOM     11  N   UNL     1      -1.453  -2.350   2.363  0.00  0.00    -0.278 N 
ATOM     12  C   UNL     1      -2.312  -3.224   2.924  0.00  0.00    +0.239 C 
ATOM     13  O   UNL     1      -2.088  -4.415   2.869  0.00  0.00    -0.273 OA
ATOM     14  H   UNL     1      -1.656  -1.271   2.413  0.00  0.00    +0.155 HD
BRANCH  12  15
ATOM     15  C   UNL     1      -3.551  -2.722   3.620  0.00  0.00    +0.239 C 
BRANCH  15  16
ATOM     16  N   UNL     1      -4.313  -3.860   4.141  0.00  0.00    -0.259 N 
ATOM     17  C   UNL     1      -4.705  -4.034   5.422  0.00  0.00    +0.126 A 
ATOM     18  C   UNL     1      -5.383  -5.203   5.490  0.00  0.00    +0.086 A 
ATOM     19  C   UNL     1      -5.406  -5.763   4.208  0.00  0.00    +0.249 A 
ATOM     20  N   UNL     1      -4.770  -4.956   3.398  0.00  0.00    -0.145 NA
ATOM     21  N   UNL     1      -6.045  -7.043   3.831  0.00  0.00    +0.078 N 
ATOM     22  O   UNL     1      -6.617  -7.710   4.675  0.00  0.00    -0.125 OA
ATOM     23  O   UNL     1      -6.001  -7.431   2.677  0.00  0.00    -0.125 OA
ATOM     24 BR   UNL     1      -6.161  -5.949   7.044  0.00  0.00    -0.045 Br
ENDBRANCH  15  16
ENDBRANCH  12  15
ENDBRANCH   8  11
BRANCH   9  25
ATOM     25  C   UNL     1       0.621  -0.614   1.034  0.00  0.00    +0.342 C 
ATOM     26  O   UNL     1       1.131   0.051   1.916  0.00  0.00    -0.245 OA
BRANCH  25  27
ATOM     27  O   UNL     1       0.002  -0.004   0.002  0.00  0.00    -0.464 OA
ATOM     28  C   UNL     1      -0.018   1.448   0.010  0.00  0.00    +0.280 C 
ENDBRANCH  25  27
ENDBRANCH   9  25
TORSDOF 5
