REMARK  Name = ZINC34677688
REMARK  14 active torsions:
REMARK  status: ('A' for Active; 'I' for Inactive)
REMARK    1  A    between atoms: C_1  and  C_2
REMARK    2  A    between atoms: C_2  and  N_3
REMARK    3  A    between atoms: N_3  and  C_4
REMARK    4  A    between atoms: C_4  and  C_5
REMARK    5  A    between atoms: C_6  and  C_8
REMARK    6  A    between atoms: C_15  and  C_17
REMARK    7  A    between atoms: C_20  and  C_22
REMARK    8  A    between atoms: C_22  and  N_23
REMARK    9  A    between atoms: N_26  and  C_29
REMARK   10  A    between atoms: C_29  and  C_30
REMARK   11  A    between atoms: C_30  and  C_32
REMARK   12  A    between atoms: C_30  and  O_36
REMARK   13  A    between atoms: C_32  and  C_33
REMARK   14  A    between atoms: C_33  and  C_34
REMARK                            x       y       z     vdW  Elec       q    Type
REMARK                         _______ _______ _______ _____ _____    ______ ____
ROOT
ATOM      1  C   UNL     1       3.235   0.073   3.276  0.00  0.00    +0.164 A 
ATOM      2  C   UNL     1       4.481   0.497   3.620  0.00  0.00    +0.230 A 
ATOM      3  O   UNL     1       4.768  -0.052   4.811  0.00  0.00    -0.449 OA
ATOM      4  C   UNL     1       3.720  -0.798   5.191  0.00  0.00    +0.179 A 
ATOM      5  N   UNL     1       2.793  -0.728   4.284  0.00  0.00    -0.210 NA
ENDROOT
BRANCH   1  12
ATOM      6  C   UNL     1      -0.073  -1.068   0.142  0.00  0.00    +0.092 C 
ATOM      7  C   UNL     1      -0.943  -1.674   1.247  0.00  0.00    +0.016 C 
ATOM      8  C   UNL     1      -0.083  -1.947   2.483  0.00  0.00    +0.020 C 
ATOM      9  C   UNL     1       0.501  -0.627   2.996  0.00  0.00    +0.108 C 
ATOM     10  N   UNL     1       1.217   0.033   1.896  0.00  0.00    -0.295 N 
ATOM     11  C   UNL     1       0.511   0.262   0.628  0.00  0.00    +0.121 C 
ATOM     12  C   UNL     1       2.499   0.420   2.047  0.00  0.00    +0.268 C 
ATOM     13  O   UNL     1       3.049   1.057   1.169  0.00  0.00    -0.268 OA
BRANCH   6  15
ATOM     14  N   UNL     1      -0.331  -0.761  -2.299  0.00  0.00    -0.302 N 
ATOM     15  C   UNL     1      -0.914  -0.830  -1.085  0.00  0.00    +0.220 C 
ATOM     16  O   UNL     1      -2.115  -0.699  -0.982  0.00  0.00    -0.275 OA
BRANCH  14  18
ATOM     17  C   UNL     1      -1.605  -2.022  -3.963  0.00  0.00    +0.024 C 
ATOM     18  C   UNL     1      -1.157  -0.633  -3.502  0.00  0.00    +0.104 C 
ENDBRANCH  14  18
BRANCH  14  19
ATOM     19  C   UNL     1       1.129  -0.815  -2.414  0.00  0.00    +0.104 C 
ATOM     20  C   UNL     1       1.679   0.602  -2.588  0.00  0.00    +0.024 C 
ENDBRANCH  14  19
ENDBRANCH   6  15
ENDBRANCH   1  12
BRANCH   4  21
ATOM     21  C   UNL     1       3.631  -1.588   6.471  0.00  0.00    +0.019 C 
BRANCH  21  22
ATOM     22  N   UNL     1       4.152  -2.943   6.247  0.00  0.00    +0.387 N 
ATOM     23  C   UNL     1       3.288  -3.649   5.292  0.00  0.00    -0.063 C 
ATOM     24  C   UNL     1       3.841  -5.054   5.044  0.00  0.00    +0.066 C 
ATOM     25  N   UNL     1       3.894  -5.787   6.316  0.00  0.00    -0.303 NA
ATOM     26  C   UNL     1       4.737  -5.080   7.291  0.00  0.00    +0.066 C 
ATOM     27  C   UNL     1       4.176  -3.675   7.521  0.00  0.00    -0.063 C 
ATOM     28  H   UNL     1       5.088  -2.886   5.875  0.00  0.00    -0.081 HD
BRANCH  25  29
ATOM     29  C   UNL     1       4.368  -7.163   6.111  0.00  0.00    +0.115 C 
BRANCH  29  30
ATOM     30  C   UNL     1       3.311  -7.956   5.340  0.00  0.00    +0.129 C 
BRANCH  30  31
ATOM     31  O   UNL     1       2.116  -8.039   6.119  0.00  0.00    -0.391 OA
ATOM     32  H   UNL     1       2.232  -8.475   6.974  0.00  0.00    +0.210 HD
ENDBRANCH  30  31
BRANCH  30  33
ATOM     33  C   UNL     1       3.836  -9.366   5.060  0.00  0.00    +0.036 C 
BRANCH  33  34
ATOM     34  C   UNL     1       2.833 -10.118   4.183  0.00  0.00    +0.029 C 
BRANCH  34  35
ATOM     35  C   UNL     1       3.350 -11.507   3.907  0.00  0.00    -0.034 C 
ATOM     36  C   UNL     1       2.611 -12.550   4.195  0.00  0.00    +0.004 C 
ENDBRANCH  34  35
ENDBRANCH  33  34
ENDBRANCH  30  33
ENDBRANCH  29  30
ENDBRANCH  25  29
ENDBRANCH  21  22
ENDBRANCH   4  21
TORSDOF 12
