REMARK  Name = ZINC66588465
REMARK  6 active torsions:
REMARK  status: ('A' for Active; 'I' for Inactive)
REMARK    1  A    between atoms: C_3  and  N_11
REMARK    2  A    between atoms: C_5  and  S_7
REMARK    3  A    between atoms: S_7  and  C_8
REMARK    4  A    between atoms: N_11  and  S_12
REMARK    5  A    between atoms: S_12  and  C_15
REMARK    6  A    between atoms: C_18  and  N_21
REMARK                            x       y       z     vdW  Elec       q    Type
REMARK                         _______ _______ _______ _____ _____    ______ ____
ROOT
ATOM      1  S   UNL     1       3.553   3.789  -0.013  0.00  0.00    +0.092 S 
ATOM      2  O   UNL     1       2.983   4.192  -1.251  0.00  0.00    -0.148 OA
ATOM      3  O   UNL     1       3.008   4.179   1.240  0.00  0.00    -0.148 OA
ENDROOT
BRANCH   1   4
ATOM      4  C   UNL     1       5.227   4.338  -0.028  0.00  0.00    +0.110 A 
ATOM      5  C   UNL     1       5.898   4.543   1.164  0.00  0.00    +0.031 A 
ATOM      6  C   UNL     1       7.211   4.974   1.153  0.00  0.00    +0.034 A 
ATOM      7  C   UNL     1       7.854   5.201  -0.050  0.00  0.00    +0.126 A 
ATOM      8  C   UNL     1       7.184   4.996  -1.241  0.00  0.00    +0.034 A 
ATOM      9  C   UNL     1       5.872   4.560  -1.230  0.00  0.00    +0.031 A 
BRANCH   7  10
ATOM     10  N   UNL     1       9.260   5.664  -0.062  0.00  0.00    +0.056 N 
ATOM     11  O   UNL     1       9.846   5.843   0.980  0.00  0.00    -0.126 OA
ATOM     12  O   UNL     1       9.822   5.862  -1.113  0.00  0.00    -0.126 OA
ENDBRANCH   7  10
ENDBRANCH   1   4
BRANCH   1  13
ATOM     13  N   UNL     1       3.582   2.133  -0.022  0.00  0.00    -0.098 NA
BRANCH  13  16
ATOM     14  C   UNL     1      -0.017   1.377   0.010  0.00  0.00    +0.003 A 
ATOM     15  C   UNL     1       1.169   2.087   0.002  0.00  0.00    +0.027 A 
ATOM     16  C   UNL     1       2.384   1.414  -0.014  0.00  0.00    +0.075 A 
ATOM     17  C   UNL     1       2.407   0.026  -0.021  0.00  0.00    +0.041 A 
ATOM     18  C   UNL     1       1.215  -0.684  -0.013  0.00  0.00    +0.015 A 
ATOM     19  C   UNL     1       0.002  -0.004   0.002  0.00  0.00    +0.015 A 
BRANCH  18  20
ATOM     20  S   UNL     1       1.238  -2.446  -0.024  0.00  0.00    -0.056 S 
BRANCH  20  21
ATOM     21  C   UNL     1      -0.516  -2.908  -0.008  0.00  0.00    +0.404 C 
ATOM     22  F   UNL     1      -1.123  -2.396   1.143  0.00  0.00    -0.197 F 
ATOM     23  F   UNL     1      -1.147  -2.383  -1.141  0.00  0.00    -0.197 F 
ENDBRANCH  20  21
ENDBRANCH  18  20
ENDBRANCH  13  16
ENDBRANCH   1  13
TORSDOF 6
