REMARK  Name = ZINC11691940
REMARK  2 active torsions:
REMARK  status: ('A' for Active; 'I' for Inactive)
REMARK    1  A    between atoms: C_4  and  N_7
REMARK    2  A    between atoms: N_10  and  C_13
REMARK                            x       y       z     vdW  Elec       q    Type
REMARK                         _______ _______ _______ _____ _____    ______ ____
ROOT
ATOM      1  C   UNL     1      -0.977   8.895   1.712  0.00  0.00    +0.124 C 
ATOM      2  C   UNL     1      -0.704  10.152   1.377  0.00  0.00    +0.135 C 
ATOM      3  N   UNL     1      -1.142  11.222   2.196  0.00  0.00    -0.301 N 
ATOM      4  C   UNL     1      -1.596  10.945   3.494  0.00  0.00    +0.053 A 
ATOM      5  C   UNL     1      -1.768  11.957   4.421  0.00  0.00    +0.025 A 
ATOM      6  C   UNL     1      -2.216  11.653   5.697  0.00  0.00    +0.002 A 
ATOM      7  C   UNL     1      -2.490  10.345   6.044  0.00  0.00    +0.002 A 
ATOM      8  C   UNL     1      -2.320   9.326   5.119  0.00  0.00    +0.025 A 
ATOM      9  C   UNL     1      -1.874   9.623   3.845  0.00  0.00    +0.054 A 
ATOM     10  N   UNL     1      -1.694   8.611   2.888  0.00  0.00    -0.299 N 
ATOM     11 CL   UNL     1       0.188  10.485  -0.075  0.00  0.00    -0.063 Cl
ATOM     12  H   UNL     1      -1.126  12.134   1.865  0.00  0.00    +0.153 HD
ATOM     13  H   UNL     1      -2.061   7.725   3.037  0.00  0.00    +0.153 HD
ENDROOT
BRANCH   1  17
ATOM     14  N   UNL     1      -0.146   5.241  -0.013  0.00  0.00    -0.327 N 
ATOM     15  C   UNL     1       0.579   5.701   1.179  0.00  0.00    +0.124 C 
ATOM     16  C   UNL     1       0.771   7.219   1.102  0.00  0.00    +0.125 C 
ATOM     17  N   UNL     1      -0.542   7.846   0.892  0.00  0.00    -0.313 N 
ATOM     18  C   UNL     1      -1.387   7.343  -0.201  0.00  0.00    +0.125 C 
ATOM     19  C   UNL     1      -1.495   5.820  -0.073  0.00  0.00    +0.124 C 
BRANCH  14  23
ATOM     20  C   UNL     1      -0.301   1.082  -0.153  0.00  0.00    +0.000 A 
ATOM     21  C   UNL     1      -1.471   1.819  -0.204  0.00  0.00    +0.002 A 
ATOM     22  C   UNL     1      -1.423   3.198  -0.151  0.00  0.00    +0.023 A 
ATOM     23  C   UNL     1      -0.198   3.846  -0.060  0.00  0.00    +0.030 A 
ATOM     24  C   UNL     1       0.975   3.104  -0.015  0.00  0.00    +0.023 A 
ATOM     25  C   UNL     1       0.920   1.724  -0.062  0.00  0.00    +0.002 A 
ENDBRANCH  14  23
ENDBRANCH   1  17
TORSDOF 2
