REMARK  Name = ZINC35650869
REMARK  8 active torsions:
REMARK  status: ('A' for Active; 'I' for Inactive)
REMARK    1  A    between atoms: C_1  and  C_2
REMARK    2  A    between atoms: C_2  and  C_3
REMARK    3  A    between atoms: C_3  and  C_5
REMARK    4  A    between atoms: C_3  and  N_6
REMARK    5  A    between atoms: N_6  and  S_7
REMARK    6  A    between atoms: S_7  and  C_10
REMARK    7  A    between atoms: C_12  and  C_18
REMARK    8  A    between atoms: C_15  and  C_16
REMARK                            x       y       z     vdW  Elec       q    Type
REMARK                         _______ _______ _______ _____ _____    ______ ____
ROOT
ATOM      1  C   UNL     1       1.245  -1.357  -4.495  0.00  0.00    +0.112 A 
ATOM      2  C   UNL     1       2.604  -1.426  -4.718  0.00  0.00    +0.044 A 
ATOM      3  C   UNL     1       3.182  -2.627  -5.136  0.00  0.00    +0.068 A 
ATOM      4  C   UNL     1       2.376  -3.753  -5.327  0.00  0.00    +0.053 A 
ATOM      5  C   UNL     1       1.016  -3.671  -5.101  0.00  0.00    +0.129 A 
ATOM      6  C   UNL     1       0.452  -2.476  -4.681  0.00  0.00    +0.011 A 
ATOM      7  C   UNL     1      -1.032  -2.394  -4.430  0.00  0.00    +0.049 C 
ATOM      8  F   UNL     1       0.235  -4.757  -5.285  0.00  0.00    -0.205 F 
ENDROOT
BRANCH   1   9
ATOM      9  S   UNL     1       0.516   0.157  -3.967  0.00  0.00    +0.059 S 
ATOM     10  O   UNL     1      -0.600   0.389  -4.815  0.00  0.00    -0.153 OA
ATOM     11  O   UNL     1       1.577   1.093  -3.831  0.00  0.00    -0.153 OA
BRANCH   9  12
ATOM     12  N   UNL     1      -0.089  -0.095  -2.446  0.00  0.00    -0.187 NA
ATOM     13  H   UNL     1      -1.047  -0.061  -2.294  0.00  0.00    +0.148 HD
BRANCH  12  14
ATOM     14  C   UNL     1       0.821  -0.369  -1.331  0.00  0.00    +0.073 C 
ATOM     15  C   UNL     1       0.910  -1.880  -1.106  0.00  0.00    +0.025 C 
BRANCH  14  17
ATOM     16  C   UNL     1       0.320   1.824  -0.245  0.00  0.00    +0.005 C 
ATOM     17  C   UNL     1       0.292   0.305  -0.064  0.00  0.00    +0.017 C 
ENDBRANCH  14  17
ENDBRANCH  12  14
ENDBRANCH   9  12
ENDBRANCH   1   9
BRANCH   3  18
ATOM     18  C   UNL     1       4.635  -2.707  -5.376  0.00  0.00    +0.387 C 
ATOM     19  O   UNL     1       5.338  -1.720  -5.209  0.00  0.00    -0.241 OA
ATOM     20  O   UNL     1       5.138  -3.760  -5.743  0.00  0.00    -0.241 OA
ENDBRANCH   3  18
TORSDOF 5
