REMARK  Name = ZINC35487043
REMARK  16 active torsions:
REMARK  status: ('A' for Active; 'I' for Inactive)
REMARK    1  A    between atoms: C_1  and  C_2
REMARK    2  A    between atoms: C_2  and  C_3
REMARK    3  A    between atoms: C_3  and  C_4
REMARK    4  A    between atoms: C_4  and  C_5
REMARK    5  A    between atoms: C_5  and  O_6
REMARK    6  A    between atoms: O_6  and  C_7
REMARK    7  A    between atoms: C_10  and  C_16
REMARK    8  A    between atoms: C_12  and  O_13
REMARK    9  A    between atoms: O_13  and  C_14
REMARK   10  A    between atoms: C_14  and  C_15
REMARK   11  A    between atoms: N_31  and  C_32
REMARK   12  A    between atoms: C_32  and  C_33
REMARK   13  A    between atoms: C_33  and  C_34
REMARK   14  A    between atoms: C_34  and  N_35
REMARK   15  A    between atoms: N_35  and  C_36
REMARK   16  A    between atoms: N_35  and  C_37
REMARK                            x       y       z     vdW  Elec       q    Type
REMARK                         _______ _______ _______ _____ _____    ______ ____
ROOT
ATOM      1  C   UNL     1      -7.818  -6.645   0.041  0.00  0.00    +0.145 C 
ATOM      2  C   UNL     1      -8.404  -6.617   1.414  0.00  0.00    +0.072 A 
ATOM      3  C   UNL     1      -7.921  -7.173   2.682  0.00  0.00    +0.199 A 
ATOM      4  O   UNL     1      -6.802  -7.632   2.826  0.00  0.00    -0.287 OA
ATOM      5  C   UNL     1      -8.926  -7.122   3.774  0.00  0.00    +0.067 A 
ATOM      6  C   UNL     1      -8.694  -7.786   4.978  0.00  0.00    +0.053 A 
ATOM      7  C   UNL     1      -9.640  -7.732   5.979  0.00  0.00    +0.124 A 
ATOM      8  C   UNL     1     -10.818  -7.019   5.786  0.00  0.00    +0.042 A 
ATOM      9  C   UNL     1     -11.055  -6.359   4.602  0.00  0.00    +0.050 A 
ATOM     10  C   UNL     1     -10.112  -6.396   3.575  0.00  0.00    +0.140 A 
ATOM     11  O   UNL     1     -10.367  -5.730   2.426  0.00  0.00    -0.450 OA
ATOM     12  C   UNL     1      -9.588  -5.938   1.347  0.00  0.00    +0.199 A 
ATOM     13  C   UNL     1      -9.802  -5.518  -0.049  0.00  0.00    +0.283 C 
ATOM     14  O   UNL     1     -10.766  -4.896  -0.448  0.00  0.00    -0.267 OA
ATOM     15  N   UNL     1      -8.772  -5.927  -0.820  0.00  0.00    -0.284 N 
ATOM     16  F   UNL     1      -9.423  -8.373   7.149  0.00  0.00    -0.205 F 
ENDROOT
BRANCH   1  20
ATOM     17  C   UNL     1      -4.032  -4.656   0.016  0.00  0.00    +0.162 A 
ATOM     18  C   UNL     1      -5.205  -3.918   0.025  0.00  0.00    +0.050 A 
ATOM     19  C   UNL     1      -6.427  -4.564   0.033  0.00  0.00    +0.009 A 
ATOM     20  C   UNL     1      -6.482  -5.946   0.032  0.00  0.00    -0.019 A 
ATOM     21  C   UNL     1      -5.316  -6.687   0.023  0.00  0.00    +0.055 A 
ATOM     22  C   UNL     1      -4.088  -6.046   0.009  0.00  0.00    +0.162 A 
BRANCH  17  23
ATOM     23  O   UNL     1      -2.829  -4.022   0.007  0.00  0.00    -0.488 OA
BRANCH  23  24
ATOM     24  C   UNL     1      -2.848  -2.593   0.015  0.00  0.00    +0.229 C 
BRANCH  24  25
ATOM     25  C   UNL     1      -1.413  -2.063   0.004  0.00  0.00    +0.041 C 
BRANCH  25  26
ATOM     26  C   UNL     1      -1.433  -0.534   0.013  0.00  0.00    +0.003 C 
BRANCH  26  28
ATOM     27  C   UNL     1      -0.019   1.526   0.010  0.00  0.00    +0.004 C 
ATOM     28  C   UNL     1       0.002  -0.004   0.002  0.00  0.00    -0.003 C 
ENDBRANCH  26  28
ENDBRANCH  25  26
ENDBRANCH  24  25
ENDBRANCH  23  24
ENDBRANCH  17  23
BRANCH  22  29
ATOM     29  O   UNL     1      -2.939  -6.774  -0.006  0.00  0.00    -0.489 OA
BRANCH  29  30
ATOM     30  C   UNL     1      -3.073  -8.197  -0.013  0.00  0.00    +0.226 C 
ATOM     31  C   UNL     1      -1.684  -8.839  -0.029  0.00  0.00    +0.048 C 
ENDBRANCH  29  30
ENDBRANCH  22  29
ENDBRANCH   1  20
BRANCH  15  32
ATOM     32  C   UNL     1      -8.628  -5.697  -2.260  0.00  0.00    +0.107 C 
BRANCH  32  33
ATOM     33  C   UNL     1      -9.268  -6.855  -3.028  0.00  0.00    +0.000 C 
BRANCH  33  34
ATOM     34  C   UNL     1      -9.118  -6.614  -4.532  0.00  0.00    -0.078 C 
BRANCH  34  35
ATOM     35  N   UNL     1      -9.732  -7.726  -5.269  0.00  0.00    +0.376 N 
ATOM     36  C   UNL     1      -9.694  -7.438  -6.710  0.00  0.00    -0.097 C 
ATOM     37  C   UNL     1      -8.989  -8.963  -4.998  0.00  0.00    -0.097 C 
ATOM     38  H   UNL     1     -10.690  -7.837  -4.974  0.00  0.00    -0.083 HD
ENDBRANCH  34  35
ENDBRANCH  33  34
ENDBRANCH  32  33
ENDBRANCH  15  32
TORSDOF 12
