REMARK  Name = ZINC01431518
REMARK  6 active torsions:
REMARK  status: ('A' for Active; 'I' for Inactive)
REMARK    1  A    between atoms: C_1  and  C_2
REMARK    2  A    between atoms: C_2  and  C_3
REMARK    3  A    between atoms: C_2  and  C_4
REMARK    4  A    between atoms: C_2  and  C_5
REMARK    5  A    between atoms: C_8  and  C_11
REMARK    6  A    between atoms: C_14  and  C_20
REMARK                            x       y       z     vdW  Elec       q    Type
REMARK                         _______ _______ _______ _____ _____    ______ ____
ROOT
ATOM      1  C   UNL     1      -6.125  -0.411   1.309  0.00  0.00    +0.079 C 
ATOM      2  N   UNL     1      -6.278  -1.689   1.303  0.00  0.00    -0.166 NA
ATOM      3  N   UNL     1      -7.532  -2.292   1.271  0.00  0.00    -0.183 N 
ATOM      4  C   UNL     1      -7.936  -3.546   1.602  0.00  0.00    +0.259 A 
ATOM      5  N   UNL     1      -9.224  -3.607   1.379  0.00  0.00    -0.122 NA
ATOM      6  N   UNL     1      -9.656  -2.475   0.934  0.00  0.00    -0.120 NA
ATOM      7  C   UNL     1      -8.670  -1.637   0.852  0.00  0.00    +0.213 A 
ATOM      8  S   UNL     1      -8.636   0.046   0.330  0.00  0.00    -0.078 S 
ATOM      9  C   UNL     1      -7.226   0.604   1.331  0.00  0.00    +0.135 C 
ENDROOT
BRANCH   1  13
ATOM     10  C   UNL     1      -2.143   1.058   1.278  0.00  0.00    -0.042 A 
ATOM     11  C   UNL     1      -3.204   1.945   1.298  0.00  0.00    +0.005 A 
ATOM     12  C   UNL     1      -4.501   1.475   1.303  0.00  0.00    +0.010 A 
ATOM     13  C   UNL     1      -4.741   0.099   1.298  0.00  0.00    -0.001 A 
ATOM     14  C   UNL     1      -3.665  -0.791   1.283  0.00  0.00    +0.010 A 
ATOM     15  C   UNL     1      -2.373  -0.307   1.272  0.00  0.00    +0.005 A 
BRANCH  10  17
ATOM     16  C   UNL     1      -0.013   1.086   0.008  0.00  0.00    +0.015 C 
ATOM     17  C   UNL     1      -0.729   1.579   1.267  0.00  0.00    -0.013 C 
ATOM     18  C   UNL     1       0.011   1.072   2.506  0.00  0.00    +0.015 C 
ATOM     19  C   UNL     1      -0.750   3.109   1.275  0.00  0.00    +0.015 C 
ENDBRANCH  10  17
ENDBRANCH   1  13
BRANCH   4  20
ATOM     20  C   UNL     1      -7.064  -4.657   2.126  0.00  0.00    +0.454 C 
ATOM     21  F   UNL     1      -7.749  -5.873   2.027  0.00  0.00    -0.163 F 
ATOM     22  F   UNL     1      -5.887  -4.722   1.373  0.00  0.00    -0.163 F 
ATOM     23  F   UNL     1      -6.747  -4.409   3.466  0.00  0.00    -0.163 F 
ENDBRANCH   4  20
TORSDOF 3
