REMARK  Name = ZINC13507334
REMARK  8 active torsions:
REMARK  status: ('A' for Active; 'I' for Inactive)
REMARK    1  A    between atoms: C_10  and  N_11
REMARK    2  A    between atoms: N_11  and  C_12
REMARK    3  A    between atoms: C_12  and  C_14
REMARK    4  A    between atoms: C_12  and  C_20
REMARK    5  A    between atoms: N_22  and  C_23
REMARK    6  A    between atoms: C_28  and  C_30
REMARK    7  A    between atoms: C_30  and  N_31
REMARK    8  A    between atoms: C_32  and  C_34
REMARK                            x       y       z     vdW  Elec       q    Type
REMARK                         _______ _______ _______ _____ _____    ______ ____
ROOT
ATOM      1  N   UNL     1       2.508   4.074   0.096  0.00  0.00    -0.253 N 
ATOM      2  C   UNL     1       2.811   5.043   0.983  0.00  0.00    +0.238 C 
ATOM      3  O   UNL     1       2.052   5.287   1.897  0.00  0.00    -0.274 OA
ENDROOT
BRANCH   1  13
ATOM      4  C   UNL     1       5.803   0.381  -0.892  0.00  0.00    +0.001 A 
ATOM      5  C   UNL     1       4.938   0.644   0.169  0.00  0.00    +0.001 A 
ATOM      6  C   UNL     1       4.143   1.748   0.167  0.00  0.00    +0.010 A 
ATOM      7  C   UNL     1       4.191   2.638  -0.918  0.00  0.00    +0.004 A 
ATOM      8  C   UNL     1       5.070   2.372  -1.997  0.00  0.00    -0.016 A 
ATOM      9  C   UNL     1       5.877   1.221  -1.960  0.00  0.00    +0.008 A 
ATOM     10  C   UNL     1       5.120   3.261  -3.084  0.00  0.00    +0.008 A 
ATOM     11  C   UNL     1       4.326   4.367  -3.094  0.00  0.00    +0.002 A 
ATOM     12  C   UNL     1       3.456   4.637  -2.042  0.00  0.00    +0.024 A 
ATOM     13  C   UNL     1       3.381   3.793  -0.956  0.00  0.00    +0.045 A 
ENDBRANCH   1  13
BRANCH   1  14
ATOM     14  C   UNL     1       1.261   3.317   0.236  0.00  0.00    +0.199 C 
BRANCH  14  15
ATOM     15  C   UNL     1       0.088   4.230  -0.012  0.00  0.00    +0.000 A 
ATOM     16  C   UNL     1      -1.000   4.224   0.847  0.00  0.00    +0.009 A 
ATOM     17  C   UNL     1      -2.055   5.084   0.583  0.00  0.00    +0.020 A 
ATOM     18  C   UNL     1      -1.991   5.906  -0.527  0.00  0.00    +0.111 A 
ATOM     19  N   UNL     1      -0.942   5.882  -1.325  0.00  0.00    -0.263 NA
ATOM     20  C   UNL     1       0.081   5.080  -1.101  0.00  0.00    +0.116 A 
ENDBRANCH  14  15
BRANCH  14  21
ATOM     21  C   UNL     1       1.242   2.192  -0.766  0.00  0.00    +0.239 C 
ATOM     22  O   UNL     1       1.731   2.349  -1.865  0.00  0.00    -0.273 OA
ATOM     23  N   UNL     1       0.682   1.010  -0.441  0.00  0.00    -0.311 N 
ATOM     24  H   UNL     1       0.287   0.884   0.436  0.00  0.00    +0.149 HD
BRANCH  23  25
ATOM     25  C   UNL     1       0.664  -0.085  -1.415  0.00  0.00    +0.073 C 
ATOM     26  C   UNL     1      -0.593   0.020  -2.304  0.00  0.00    +0.022 C 
ATOM     27  C   UNL     1      -1.021  -1.451  -2.531  0.00  0.00    +0.002 C 
ATOM     28  C   UNL     1      -0.731  -2.108  -1.158  0.00  0.00    +0.002 C 
ATOM     29  C   UNL     1       0.576  -1.437  -0.687  0.00  0.00    +0.022 C 
ENDBRANCH  23  25
ENDBRANCH  14  21
ENDBRANCH   1  14
BRANCH   2  30
ATOM     30  C   UNL     1       4.093   5.822   0.840  0.00  0.00    +0.201 C 
BRANCH  30  31
ATOM     31  N   UNL     1       4.189   6.808   1.919  0.00  0.00    -0.300 N 
ATOM     32  C   UNL     1       5.259   7.624   1.993  0.00  0.00    +0.280 C 
ATOM     33  O   UNL     1       6.146   7.541   1.164  0.00  0.00    -0.267 OA
ATOM     34  H   UNL     1       3.482   6.874   2.579  0.00  0.00    +0.150 HD
BRANCH  32  35
ATOM     35  C   UNL     1       5.354   8.611   3.073  0.00  0.00    +0.189 A 
ATOM     36  C   UNL     1       6.378   9.494   3.264  0.00  0.00    +0.054 A 
ATOM     37  C   UNL     1       6.057  10.243   4.408  0.00  0.00    +0.042 A 
ATOM     38  C   UNL     1       4.867   9.790   4.858  0.00  0.00    +0.196 A 
ATOM     39  O   UNL     1       4.444   8.810   4.048  0.00  0.00    -0.458 OA
ENDBRANCH  32  35
ENDBRANCH  30  31
ENDBRANCH   2  30
TORSDOF 8
