REMARK  Name = ZINC42667492
REMARK  8 active torsions:
REMARK  status: ('A' for Active; 'I' for Inactive)
REMARK    1  A    between atoms: C_1  and  C_2
REMARK    2  A    between atoms: C_7  and  N_8
REMARK    3  A    between atoms: C_9  and  C_11
REMARK    4  A    between atoms: C_11  and  C_13
REMARK    5  A    between atoms: C_11  and  N_14
REMARK    6  A    between atoms: N_14  and  C_15
REMARK    7  A    between atoms: C_18  and  N_21
REMARK    8  A    between atoms: N_24  and  C_25
REMARK                            x       y       z     vdW  Elec       q    Type
REMARK                         _______ _______ _______ _____ _____    ______ ____
ROOT
ATOM      1  N   UNL     1      -0.220  -0.874   5.992  0.00  0.00    -0.333 N 
ATOM      2  H   UNL     1       0.155  -1.762   5.886  0.00  0.00    +0.147 HD
ENDROOT
BRANCH   1   3
ATOM      3  C   UNL     1      -0.838  -0.514   7.194  0.00  0.00    +0.028 A 
ATOM      4  C   UNL     1      -1.380   0.756   7.343  0.00  0.00    +0.025 A 
ATOM      5  C   UNL     1      -1.990   1.111   8.530  0.00  0.00    +0.025 A 
ATOM      6  C   UNL     1      -2.062   0.198   9.574  0.00  0.00    +0.035 A 
ATOM      7  C   UNL     1      -1.520  -1.071   9.425  0.00  0.00    +0.025 A 
ATOM      8  C   UNL     1      -0.915  -1.428   8.236  0.00  0.00    +0.025 A 
BRANCH   6   9
ATOM      9  N   UNL     1      -2.681   0.559  10.779  0.00  0.00    -0.269 N 
ATOM     10  C   UNL     1      -3.753   1.376  10.768  0.00  0.00    +0.304 C 
ATOM     11  O   UNL     1      -4.133   1.866   9.722  0.00  0.00    -0.253 OA
ATOM     12  N   UNL     1      -4.404   1.649  11.916  0.00  0.00    -0.296 N 
ATOM     13  H   UNL     1      -2.337   0.221  11.621  0.00  0.00    +0.156 HD
ATOM     14  H   UNL     1      -4.101   1.258  12.750  0.00  0.00    +0.151 HD
BRANCH  12  15
ATOM     15  C   UNL     1      -5.569   2.537  11.904  0.00  0.00    +0.075 C 
ATOM     16  C   UNL     1      -5.668   3.588  13.011  0.00  0.00    +0.024 C 
ATOM     17  C   UNL     1      -6.595   2.371  13.027  0.00  0.00    +0.024 C 
ENDBRANCH  12  15
ENDBRANCH   6   9
ENDBRANCH   1   3
BRANCH   1  18
ATOM     18  C   UNL     1      -0.139   0.091   4.892  0.00  0.00    +0.154 C 
ATOM     19  C   UNL     1       1.088   0.984   5.086  0.00  0.00    +0.038 C 
BRANCH  18  21
ATOM     20  N   UNL     1       0.067   0.040   2.428  0.00  0.00    -0.284 N 
ATOM     21  C   UNL     1      -0.022  -0.647   3.583  0.00  0.00    +0.237 C 
ATOM     22  O   UNL     1      -0.007  -1.860   3.571  0.00  0.00    -0.273 OA
ATOM     23  H   UNL     1       0.121   1.008   2.442  0.00  0.00    +0.155 HD
BRANCH  20  30
ATOM     24  C   UNL     1      -1.211   1.254   0.194  0.00  0.00    +0.046 C 
ATOM     25  C   UNL     1      -0.532  -0.087   0.091  0.00  0.00    -0.028 A 
ATOM     26  C   UNL     1      -0.513  -0.761  -1.114  0.00  0.00    +0.025 A 
ATOM     27  C   UNL     1       0.110  -1.993  -1.210  0.00  0.00    +0.041 A 
ATOM     28  C   UNL     1       0.716  -2.552  -0.099  0.00  0.00    +0.022 A 
ATOM     29  C   UNL     1       0.700  -1.882   1.109  0.00  0.00    +0.025 A 
ATOM     30  C   UNL     1       0.080  -0.643   1.206  0.00  0.00    +0.036 A 
ATOM     31 CL   UNL     1       0.131  -2.838  -2.726  0.00  0.00    -0.084 Cl
ENDBRANCH  20  30
ENDBRANCH  18  21
ENDBRANCH   1  18
TORSDOF 6
