REMARK  Name = ZINC46568720
REMARK  7 active torsions:
REMARK  status: ('A' for Active; 'I' for Inactive)
REMARK    1  A    between atoms: C_1  and  O_2
REMARK    2  A    between atoms: O_2  and  C_3
REMARK    3  A    between atoms: C_12  and  C_13
REMARK    4  A    between atoms: N_14  and  N_15
REMARK    5  A    between atoms: N_15  and  C_16
REMARK    6  A    between atoms: C_19  and  S_22
REMARK    7  A    between atoms: S_22  and  N_25
REMARK                            x       y       z     vdW  Elec       q    Type
REMARK                         _______ _______ _______ _____ _____    ______ ____
ROOT
ATOM      1  C   UNL     1      -0.012  -2.825  -0.013  0.00  0.00    +0.142 C 
ATOM      2  N   UNL     1       1.144  -2.230  -0.020  0.00  0.00    -0.190 NA
ENDROOT
BRANCH   1  12
ATOM      3  C   UNL     1      -1.200  -0.637   0.010  0.00  0.00    +0.129 A 
ATOM      4  C   UNL     1      -2.376   0.111   0.019  0.00  0.00    +0.047 A 
ATOM      5  C   UNL     1      -3.600  -0.481   0.028  0.00  0.00    +0.012 A 
ATOM      6  C   UNL     1      -3.723  -1.881   0.027  0.00  0.00    -0.017 A 
ATOM      7  C   UNL     1      -4.983  -2.503   0.035  0.00  0.00    +0.008 A 
ATOM      8  C   UNL     1      -5.063  -3.862   0.034  0.00  0.00    +0.001 A 
ATOM      9  C   UNL     1      -3.914  -4.649   0.025  0.00  0.00    +0.001 A 
ATOM     10  C   UNL     1      -2.675  -4.079   0.016  0.00  0.00    +0.009 A 
ATOM     11  C   UNL     1      -2.556  -2.684   0.017  0.00  0.00    -0.006 A 
ATOM     12  C   UNL     1      -1.248  -2.031   0.003  0.00  0.00    +0.044 A 
BRANCH   3  14
ATOM     13  C   UNL     1      -0.017   1.425   0.010  0.00  0.00    +0.277 C 
ATOM     14  O   UNL     1       0.002  -0.004   0.002  0.00  0.00    -0.494 OA
ENDBRANCH   3  14
ENDBRANCH   1  12
BRANCH   2  15
ATOM     15  N   UNL     1       2.322  -2.987  -0.035  0.00  0.00    -0.238 N 
ATOM     16  H   UNL     1       2.276  -3.956  -0.040  0.00  0.00    +0.174 HD
BRANCH  15  17
ATOM     17  C   UNL     1       3.562  -2.348  -0.043  0.00  0.00    +0.048 A 
ATOM     18  C   UNL     1       3.630  -0.959  -0.030  0.00  0.00    +0.026 A 
ATOM     19  C   UNL     1       4.859  -0.330  -0.037  0.00  0.00    +0.030 A 
ATOM     20  C   UNL     1       6.022  -1.080  -0.058  0.00  0.00    +0.105 A 
ATOM     21  C   UNL     1       5.958  -2.461  -0.070  0.00  0.00    +0.030 A 
ATOM     22  C   UNL     1       4.732  -3.098  -0.057  0.00  0.00    +0.026 A 
BRANCH  20  23
ATOM     23  S   UNL     1       7.588  -0.272  -0.068  0.00  0.00    +0.056 S 
ATOM     24  O   UNL     1       8.513  -1.188  -0.638  0.00  0.00    -0.153 OA
ATOM     25  O   UNL     1       7.372   1.026  -0.605  0.00  0.00    -0.153 OA
BRANCH  23  26
ATOM     26  N   UNL     1       8.041  -0.063   1.510  0.00  0.00    -0.204 NA
ATOM     27  H   UNL     1       7.463  -0.371   2.226  0.00  0.00    +0.144 HD
ATOM     28  H   UNL     1       8.884   0.369   1.720  0.00  0.00    +0.144 HD
ENDBRANCH  23  26
ENDBRANCH  20  23
ENDBRANCH  15  17
ENDBRANCH   2  15
TORSDOF 6
