REMARK  Name = ZINC09672408
REMARK  9 active torsions:
REMARK  status: ('A' for Active; 'I' for Inactive)
REMARK    1  A    between atoms: C_1  and  C_2
REMARK    2  A    between atoms: C_7  and  N_8
REMARK    3  A    between atoms: C_11  and  C_16
REMARK    4  A    between atoms: C_16  and  S_17
REMARK    5  A    between atoms: S_17  and  C_18
REMARK    6  A    between atoms: C_21  and  C_31
REMARK    7  A    between atoms: N_22  and  C_23
REMARK    8  A    between atoms: C_26  and  C_30
REMARK    9  A    between atoms: C_27  and  C_29
REMARK                            x       y       z     vdW  Elec       q    Type
REMARK                         _______ _______ _______ _____ _____    ______ ____
ROOT
ATOM      1  S   UNL     1       2.760   7.097  -0.390  0.00  0.00    -0.078 S 
ENDROOT
BRANCH   1   2
ATOM      2  C   UNL     1       1.795   5.646  -0.134  0.00  0.00    +0.197 A 
ATOM      3  N   UNL     1       0.529   5.603   0.224  0.00  0.00    -0.122 NA
ATOM      4  N   UNL     1       0.138   4.383   0.319  0.00  0.00    -0.128 NA
ATOM      5  C   UNL     1       1.127   3.570   0.028  0.00  0.00    +0.169 A 
ATOM      6  N   UNL     1       2.221   4.354  -0.266  0.00  0.00    -0.270 N 
BRANCH   6   7
ATOM      7  C   UNL     1       3.504   3.918  -0.626  0.00  0.00    +0.051 A 
ATOM      8  C   UNL     1       3.696   3.232  -1.819  0.00  0.00    +0.026 A 
ATOM      9  C   UNL     1       4.960   2.804  -2.171  0.00  0.00    +0.005 A 
ATOM     10  C   UNL     1       6.035   3.058  -1.339  0.00  0.00    -0.047 A 
ATOM     11  C   UNL     1       5.848   3.741  -0.152  0.00  0.00    -0.046 A 
ATOM     12  C   UNL     1       4.586   4.176   0.204  0.00  0.00    +0.030 A 
ATOM     13  C   UNL     1       7.021   4.016   0.752  0.00  0.00    +0.044 C 
ATOM     14  C   UNL     1       7.414   2.590  -1.728  0.00  0.00    +0.044 C 
ENDBRANCH   6   7
BRANCH   5  15
ATOM     15  C   UNL     1       1.077   2.093   0.022  0.00  0.00    +0.022 A 
ATOM     16  C   UNL     1      -0.148   1.414   0.037  0.00  0.00    +0.031 A 
ATOM     17  C   UNL     1      -0.147   0.035   0.031  0.00  0.00    +0.111 A 
ATOM     18  N   UNL     1       0.985  -0.642   0.012  0.00  0.00    -0.263 NA
ATOM     19  C   UNL     1       2.160  -0.042  -0.002  0.00  0.00    +0.111 A 
ATOM     20  C   UNL     1       2.253   1.333   0.003  0.00  0.00    +0.031 A 
ENDBRANCH   5  15
ENDBRANCH   1   2
BRANCH   1  21
ATOM     21  C   UNL     1       1.524   8.367  -0.022  0.00  0.00    +0.153 C 
BRANCH  21  25
ATOM     22  N   UNL     1       2.602  12.186  -2.719  0.00  0.00    -0.283 N 
ATOM     23  C   UNL     1       2.646  11.548  -1.495  0.00  0.00    +0.224 A 
ATOM     24  N   UNL     1       2.100  10.342  -1.351  0.00  0.00    -0.198 NA
ATOM     25  C   UNL     1       2.142   9.732  -0.180  0.00  0.00    +0.146 A 
ATOM     26  N   UNL     1       2.721  10.317   0.854  0.00  0.00    -0.199 NA
ATOM     27  C   UNL     1       3.273  11.520   0.717  0.00  0.00    +0.217 A 
ATOM     28  N   UNL     1       3.233  12.137  -0.459  0.00  0.00    -0.181 NA
ATOM     29  N   UNL     1       3.882  12.128   1.796  0.00  0.00    -0.327 N 
ATOM     30  H   UNL     1       2.250  11.722  -3.495  0.00  0.00    +0.155 HD
ATOM     31  H   UNL     1       4.281  13.006   1.696  0.00  0.00    +0.145 HD
ATOM     32  H   UNL     1       3.911  11.676   2.654  0.00  0.00    +0.145 HD
BRANCH  22  39
ATOM     33  C   UNL     1       3.481  13.070  -5.277  0.00  0.00    +0.045 C 
ATOM     34  C   UNL     1       3.503  13.973  -4.070  0.00  0.00    -0.029 A 
ATOM     35  C   UNL     1       3.959  15.271  -4.186  0.00  0.00    +0.005 A 
ATOM     36  C   UNL     1       3.979  16.100  -3.080  0.00  0.00    +0.000 A 
ATOM     37  C   UNL     1       3.542  15.633  -1.854  0.00  0.00    +0.002 A 
ATOM     38  C   UNL     1       3.080  14.337  -1.732  0.00  0.00    +0.023 A 
ATOM     39  C   UNL     1       3.064  13.500  -2.841  0.00  0.00    +0.036 A 
ENDBRANCH  22  39
ENDBRANCH  21  25
ENDBRANCH   1  21
TORSDOF 6
