REMARK  Name = ZINC39669774
REMARK  8 active torsions:
REMARK  status: ('A' for Active; 'I' for Inactive)
REMARK    1  A    between atoms: C_1  and  C_2
REMARK    2  A    between atoms: C_2  and  C_3
REMARK    3  A    between atoms: C_2  and  C_4
REMARK    4  A    between atoms: C_2  and  N_33
REMARK    5  A    between atoms: C_4  and  N_5
REMARK    6  A    between atoms: C_6  and  C_8
REMARK    7  A    between atoms: C_19  and  C_21
REMARK    8  A    between atoms: C_24  and  C_26
REMARK                            x       y       z     vdW  Elec       q    Type
REMARK                         _______ _______ _______ _____ _____    ______ ____
ROOT
ATOM      1  C   UNL     1      -1.971  -4.875   0.819  0.00  0.00    +0.100 C 
ATOM      2  C   UNL     1      -1.164  -5.118  -0.476  0.00  0.00    +0.121 C 
ATOM      3  N   UNL     1      -1.722  -6.371  -1.035  0.00  0.00    -0.294 N 
ATOM      4  C   UNL     1      -3.181  -6.266  -0.792  0.00  0.00    +0.115 C 
ATOM      5  C   UNL     1      -3.294  -5.630   0.607  0.00  0.00    -0.004 C 
ATOM      6  C   UNL     1      -3.460  -6.714   1.668  0.00  0.00    -0.010 C 
ATOM      7  C   UNL     1      -4.809  -7.412   1.471  0.00  0.00    -0.082 C 
ATOM      8  N   UNL     1      -5.892  -6.427   1.576  0.00  0.00    +0.379 N 
ATOM      9  C   UNL     1      -5.778  -5.440   0.495  0.00  0.00    -0.082 C 
ATOM     10  C   UNL     1      -4.470  -4.659   0.651  0.00  0.00    -0.010 C 
ATOM     11  C   UNL     1      -1.055  -7.379  -1.631  0.00  0.00    +0.282 C 
ATOM     12  O   UNL     1      -1.668  -8.305  -2.128  0.00  0.00    -0.267 OA
ATOM     13  H   UNL     1      -6.781  -6.899   1.506  0.00  0.00    -0.086 HD
ATOM     14  H   UNL     1      -5.832  -5.957   2.466  0.00  0.00    -0.086 HD
ENDROOT
BRANCH  11  15
ATOM     15  C   UNL     1       0.409  -7.360  -1.679  0.00  0.00    +0.190 A 
ATOM     16  C   UNL     1       1.209  -8.267  -2.341  0.00  0.00    +0.055 A 
ATOM     17  C   UNL     1       2.532  -7.872  -2.123  0.00  0.00    +0.051 A 
ATOM     18  C   UNL     1       2.494  -6.750  -1.345  0.00  0.00    +0.139 A 
ATOM     19  O   UNL     1       1.210  -6.448  -1.088  0.00  0.00    -0.450 OA
BRANCH  18  20
ATOM     20  C   UNL     1       3.668  -5.992  -0.870  0.00  0.00    +0.052 A 
ATOM     21  C   UNL     1       4.673  -6.636  -0.146  0.00  0.00    +0.014 A 
ATOM     22  C   UNL     1       5.767  -5.921   0.295  0.00  0.00    +0.001 A 
ATOM     23  C   UNL     1       5.872  -4.568   0.022  0.00  0.00    +0.003 A 
ATOM     24  C   UNL     1       4.881  -3.922  -0.694  0.00  0.00    +0.039 A 
ATOM     25  C   UNL     1       3.782  -4.626  -1.148  0.00  0.00    +0.134 A 
ATOM     26  F   UNL     1       2.817  -3.995  -1.852  0.00  0.00    -0.205 F 
ENDBRANCH  18  20
ENDBRANCH  11  15
BRANCH   1  28
ATOM     27  N   UNL     1      -2.349  -2.892   2.249  0.00  0.00    -0.313 N 
ATOM     28  C   UNL     1      -2.232  -3.402   1.007  0.00  0.00    +0.218 C 
ATOM     29  O   UNL     1      -2.335  -2.677   0.041  0.00  0.00    -0.275 OA
ATOM     30  H   UNL     1      -2.337  -3.482   3.019  0.00  0.00    +0.149 HD
BRANCH  27  31
ATOM     31  C   UNL     1      -2.496  -1.446   2.436  0.00  0.00    +0.126 C 
BRANCH  31  33
ATOM     32  C   UNL     1      -1.132  -1.529   4.527  0.00  0.00    +0.029 C 
ATOM     33  C   UNL     1      -2.480  -1.121   3.931  0.00  0.00    +0.032 C 
ATOM     34  C   UNL     1      -2.692   0.381   4.128  0.00  0.00    +0.029 C 
BRANCH  33  35
ATOM     35  N   UNL     1      -3.557  -1.860   4.604  0.00  0.00    -0.291 NA
ATOM     36  C   UNL     1      -4.852  -1.613   3.954  0.00  0.00    +0.113 C 
ATOM     37  C   UNL     1      -5.933  -2.446   4.647  0.00  0.00    +0.175 C 
ATOM     38  O   UNL     1      -5.956  -2.122   6.040  0.00  0.00    -0.377 OA
ATOM     39  C   UNL     1      -4.711  -2.352   6.705  0.00  0.00    +0.175 C 
ATOM     40  C   UNL     1      -3.618  -1.518   6.032  0.00  0.00    +0.113 C 
ENDBRANCH  33  35
ENDBRANCH  31  33
ENDBRANCH  27  31
ENDBRANCH   1  28
TORSDOF 6
