REMARK  Name = ZINC14879220
REMARK  11 active torsions:
REMARK  status: ('A' for Active; 'I' for Inactive)
REMARK    1  A    between atoms: C_1  and  C_2
REMARK    2  A    between atoms: C_2  and  C_4
REMARK    3  A    between atoms: C_2  and  N_9
REMARK    4  A    between atoms: C_10  and  C_12
REMARK    5  A    between atoms: C_13  and  O_34
REMARK    6  A    between atoms: N_21  and  C_24
REMARK    7  A    between atoms: C_24  and  C_25
REMARK    8  A    between atoms: C_28  and  C_31
REMARK    9  A    between atoms: C_31  and  C_32
REMARK   10  A    between atoms: C_31  and  C_33
REMARK   11  A    between atoms: O_34  and  C_35
REMARK                            x       y       z     vdW  Elec       q    Type
REMARK                         _______ _______ _______ _____ _____    ______ ____
ROOT
ATOM      1  C   UNL     1       2.667  -1.113   2.411  0.00  0.00    +0.098 A 
ATOM      2  C   UNL     1       1.833  -1.520   3.547  0.00  0.00    +0.139 A 
ATOM      3  C   UNL     1       2.465  -1.993   4.679  0.00  0.00    +0.116 A 
ATOM      4  C   UNL     1       3.862  -2.066   4.705  0.00  0.00    +0.255 A 
ATOM      5  O   UNL     1       4.421  -2.483   5.706  0.00  0.00    -0.268 OA
ATOM      6  N   UNL     1       4.602  -1.683   3.646  0.00  0.00    -0.310 N 
ATOM      7  C   UNL     1       4.038  -1.226   2.523  0.00  0.00    +0.039 A 
ATOM      8  C   UNL     1       4.908  -0.817   1.352  0.00  0.00    +0.070 C 
ATOM      9  C   UNL     1       5.650   0.469   1.724  0.00  0.00    +0.091 C 
ATOM     10  N   UNL     1       6.860   0.165   2.475  0.00  0.00    -0.296 NA
ATOM     11  C   UNL     1       6.659  -0.386   3.808  0.00  0.00    +0.106 C 
ATOM     12  C   UNL     1       6.070  -1.783   3.739  0.00  0.00    +0.140 C 
ENDROOT
BRANCH   1  14
ATOM     13  N   UNL     1       1.912  -1.410   0.106  0.00  0.00    -0.302 N 
ATOM     14  C   UNL     1       2.054  -0.600   1.174  0.00  0.00    +0.250 C 
ATOM     15  O   UNL     1       1.676   0.555   1.116  0.00  0.00    -0.270 OA
ATOM     16  H   UNL     1       2.278  -2.308   0.126  0.00  0.00    +0.150 HD
BRANCH  13  18
ATOM     17  C   UNL     1      -0.300  -1.151  -0.905  0.00  0.00    +0.036 C 
ATOM     18  C   UNL     1       1.204  -0.934  -1.085  0.00  0.00    +0.136 C 
BRANCH  18  19
ATOM     19  C   UNL     1       1.681  -1.700  -2.292  0.00  0.00    +0.125 A 
ATOM     20  C   UNL     1       1.914  -1.181  -3.511  0.00  0.00    +0.046 A 
ATOM     21  C   UNL     1       2.344  -2.247  -4.335  0.00  0.00    +0.041 A 
ATOM     22  C   UNL     1       2.347  -3.354  -3.570  0.00  0.00    +0.195 A 
ATOM     23  O   UNL     1       1.950  -3.015  -2.332  0.00  0.00    -0.466 OA
ENDBRANCH  18  19
ENDBRANCH  13  18
ENDBRANCH   1  14
BRANCH   2  24
ATOM     24  O   UNL     1       0.484  -1.435   3.486  0.00  0.00    -0.494 OA
ATOM     25  C   UNL     1      -0.245  -1.855   4.641  0.00  0.00    +0.277 C 
ENDBRANCH   2  24
BRANCH  10  26
ATOM     26  C   UNL     1       7.761   1.324   2.515  0.00  0.00    +0.119 C 
BRANCH  26  27
ATOM     27  C   UNL     1       9.094   0.905   3.080  0.00  0.00    -0.033 A 
ATOM     28  C   UNL     1       9.319   0.970   4.442  0.00  0.00    +0.005 A 
ATOM     29  C   UNL     1      10.541   0.586   4.960  0.00  0.00    +0.004 A 
ATOM     30  C   UNL     1      11.540   0.137   4.116  0.00  0.00    -0.045 A 
ATOM     31  C   UNL     1      11.315   0.072   2.753  0.00  0.00    +0.004 A 
ATOM     32  C   UNL     1      10.091   0.452   2.236  0.00  0.00    +0.005 A 
BRANCH  30  33
ATOM     33  C   UNL     1      12.873  -0.281   4.680  0.00  0.00    +0.013 C 
ATOM     34  C   UNL     1      13.137  -1.747   4.332  0.00  0.00    +0.012 C 
ATOM     35  C   UNL     1      13.977   0.592   4.081  0.00  0.00    +0.012 C 
ENDBRANCH  30  33
ENDBRANCH  26  27
ENDBRANCH  10  26
TORSDOF 7
