REMARK  Name = ZINC09342692
REMARK  10 active torsions:
REMARK  status: ('A' for Active; 'I' for Inactive)
REMARK    1  A    between atoms: C_1  and  C_2
REMARK    2  A    between atoms: C_2  and  C_3
REMARK    3  A    between atoms: N_9  and  S_10
REMARK    4  A    between atoms: S_10  and  C_13
REMARK    5  A    between atoms: C_16  and  N_19
REMARK    6  A    between atoms: C_20  and  C_22
REMARK    7  A    between atoms: C_22  and  C_23
REMARK    8  A    between atoms: C_23  and  N_24
REMARK    9  A    between atoms: N_24  and  S_25
REMARK   10  A    between atoms: S_25  and  C_28
REMARK                            x       y       z     vdW  Elec       q    Type
REMARK                         _______ _______ _______ _____ _____    ______ ____
ROOT
ATOM      1  N   UNL     1      -7.273  -0.224   0.350  0.00  0.00    -0.285 N 
ATOM      2  C   UNL     1      -8.352  -0.104  -0.448  0.00  0.00    +0.218 C 
ATOM      3  O   UNL     1      -8.216   0.229  -1.606  0.00  0.00    -0.275 OA
ATOM      4  H   UNL     1      -7.386  -0.425   1.292  0.00  0.00    +0.155 HD
ENDROOT
BRANCH   1   8
ATOM      5  C   UNL     1      -3.450   0.269  -1.231  0.00  0.00    +0.106 A 
ATOM      6  C   UNL     1      -3.669  -0.662  -0.232  0.00  0.00    +0.030 A 
ATOM      7  C   UNL     1      -4.934  -0.824   0.298  0.00  0.00    +0.025 A 
ATOM      8  C   UNL     1      -5.989  -0.058  -0.181  0.00  0.00    +0.033 A 
ATOM      9  C   UNL     1      -5.766   0.872  -1.188  0.00  0.00    +0.025 A 
ATOM     10  C   UNL     1      -4.498   1.033  -1.710  0.00  0.00    +0.030 A 
BRANCH   5  11
ATOM     11  S   UNL     1      -1.833   0.477  -1.900  0.00  0.00    +0.061 S 
ATOM     12  O   UNL     1      -1.987   1.189  -3.120  0.00  0.00    -0.153 OA
ATOM     13  O   UNL     1      -1.200  -0.794  -1.834  0.00  0.00    -0.153 OA
BRANCH  11  19
ATOM     14  C   UNL     1      -1.182   2.931  -0.933  0.00  0.00    +0.080 C 
ATOM     15  C   UNL     1      -1.548   3.442   0.464  0.00  0.00    +0.021 C 
ATOM     16  C   UNL     1      -0.487   2.981   1.466  0.00  0.00    +0.003 C 
ATOM     17  C   UNL     1      -0.446   1.452   1.506  0.00  0.00    +0.017 C 
ATOM     18  C   UNL     1      -0.071   0.918   0.120  0.00  0.00    +0.110 C 
ATOM     19  N   UNL     1      -1.002   1.474  -0.872  0.00  0.00    -0.174 NA
BRANCH  14  21
ATOM     20  C   UNL     1      -2.571   4.774  -1.889  0.00  0.00    +0.005 C 
ATOM     21  C   UNL     1      -2.305   3.268  -1.916  0.00  0.00    +0.017 C 
ENDBRANCH  14  21
ENDBRANCH  11  19
ENDBRANCH   5  11
ENDBRANCH   1   8
BRANCH   2  22
ATOM     22  C   UNL     1      -9.728  -0.385   0.099  0.00  0.00    +0.113 C 
BRANCH  22  23
ATOM     23  C   UNL     1     -10.768  -0.178  -1.004  0.00  0.00    +0.115 C 
BRANCH  23  24
ATOM     24  N   UNL     1     -12.105  -0.451  -0.473  0.00  0.00    -0.189 NA
ATOM     25  H   UNL     1     -12.206  -0.920   0.370  0.00  0.00    +0.148 HD
BRANCH  24  26
ATOM     26  S   UNL     1     -13.446   0.042  -1.311  0.00  0.00    +0.058 S 
ATOM     27  O   UNL     1     -14.574  -0.388  -0.562  0.00  0.00    -0.153 OA
ATOM     28  O   UNL     1     -13.233   1.404  -1.653  0.00  0.00    -0.153 OA
BRANCH  26  29
ATOM     29  C   UNL     1     -13.474  -0.859  -2.825  0.00  0.00    +0.105 A 
ATOM     30  C   UNL     1     -12.845  -0.348  -3.945  0.00  0.00    +0.031 A 
ATOM     31  C   UNL     1     -12.862  -1.056  -5.132  0.00  0.00    +0.040 A 
ATOM     32  C   UNL     1     -13.519  -2.273  -5.202  0.00  0.00    +0.124 A 
ATOM     33  C   UNL     1     -14.153  -2.781  -4.081  0.00  0.00    +0.040 A 
ATOM     34  C   UNL     1     -14.130  -2.074  -2.894  0.00  0.00    +0.031 A 
ATOM     35  F   UNL     1     -13.540  -2.964  -6.362  0.00  0.00    -0.205 F 
ENDBRANCH  26  29
ENDBRANCH  24  26
ENDBRANCH  23  24
ENDBRANCH  22  23
ENDBRANCH   2  22
TORSDOF 9
