REMARK  Name = ZINC05363606
REMARK  10 active torsions:
REMARK  status: ('A' for Active; 'I' for Inactive)
REMARK    1  A    between atoms: C_1  and  C_2
REMARK    2  A    between atoms: C_8  and  N_10
REMARK    3  A    between atoms: C_11  and  C_13
REMARK    4  A    between atoms: C_13  and  C_15
REMARK    5  A    between atoms: C_13  and  O_16
REMARK    6  A    between atoms: O_16  and  C_17
REMARK    7  A    between atoms: C_17  and  C_19
REMARK    8  A    between atoms: C_22  and  N_28
REMARK    9  A    between atoms: C_23  and  N_25
REMARK   10  A    between atoms: N_28  and  C_29
REMARK                            x       y       z     vdW  Elec       q    Type
REMARK                         _______ _______ _______ _____ _____    ______ ____
ROOT
ATOM      1  O   UNL     1      -6.146   1.847  -0.189  0.00  0.00    -0.449 OA
ENDROOT
BRANCH   1   2
ATOM      2  C   UNL     1      -7.355   1.051  -0.298  0.00  0.00    +0.259 C 
ATOM      3  C   UNL     1      -7.714   0.870  -1.775  0.00  0.00    +0.062 C 
BRANCH   2   5
ATOM      4  N   UNL     1      -9.684   1.150   0.528  0.00  0.00    -0.309 N 
ATOM      5  C   UNL     1      -8.484   1.753   0.411  0.00  0.00    +0.254 C 
ATOM      6  O   UNL     1      -8.313   2.859   0.877  0.00  0.00    -0.272 OA
ATOM      7  H   UNL     1      -9.821   0.265   0.155  0.00  0.00    +0.149 HD
BRANCH   4  14
ATOM      8  C   UNL     1     -12.228   1.545  -0.799  0.00  0.00    +0.009 C 
ATOM      9  C   UNL     1     -12.119   1.293   0.706  0.00  0.00    +0.006 C 
ATOM     10  C   UNL     1     -13.266   2.006   1.426  0.00  0.00    +0.005 C 
ATOM     11  C   UNL     1     -13.157   1.754   2.931  0.00  0.00    +0.000 C 
ATOM     12  C   UNL     1     -11.820   2.293   3.443  0.00  0.00    +0.002 C 
ATOM     13  C   UNL     1     -10.673   1.581   2.723  0.00  0.00    +0.022 C 
ATOM     14  C   UNL     1     -10.782   1.833   1.218  0.00  0.00    +0.076 C 
ENDBRANCH   4  14
ENDBRANCH   2   5
ENDBRANCH   1   2
BRANCH   1  15
ATOM     15  C   UNL     1      -4.974   1.182  -0.181  0.00  0.00    +0.340 C 
ATOM     16  O   UNL     1      -4.963  -0.030  -0.264  0.00  0.00    -0.245 OA
BRANCH  15  17
ATOM     17  C   UNL     1      -3.705   1.925  -0.073  0.00  0.00    +0.061 A 
ATOM     18  C   UNL     1      -3.716   3.320   0.022  0.00  0.00    +0.017 A 
ATOM     19  C   UNL     1      -2.541   4.008   0.123  0.00  0.00    +0.026 A 
ATOM     20  C   UNL     1      -1.327   3.324   0.132  0.00  0.00    +0.058 A 
ATOM     21  C   UNL     1      -1.307   1.935   0.037  0.00  0.00    +0.148 A 
ATOM     22  C   UNL     1      -2.488   1.236  -0.071  0.00  0.00    +0.049 A 
BRANCH  21  23
ATOM     23  N   UNL     1      -0.016   1.211   0.046  0.00  0.00    +0.058 N 
ATOM     24  O   UNL     1       0.138   0.232  -0.662  0.00  0.00    -0.126 OA
ATOM     25  O   UNL     1       0.894   1.597   0.758  0.00  0.00    -0.126 OA
ENDBRANCH  21  23
BRANCH  20  26
ATOM     26  N   UNL     1      -0.134   4.030   0.234  0.00  0.00    -0.345 N 
ATOM     27  C   UNL     1      -0.157   5.477   0.463  0.00  0.00    +0.125 C 
ATOM     28  H   UNL     1       0.713   3.564   0.154  0.00  0.00    +0.146 HD
ENDBRANCH  20  26
ENDBRANCH  15  17
ENDBRANCH   1  15
TORSDOF 7
