REMARK  Name = ZINC09347391
REMARK  10 active torsions:
REMARK  status: ('A' for Active; 'I' for Inactive)
REMARK    1  A    between atoms: C_1  and  C_2
REMARK    2  A    between atoms: C_2  and  O_3
REMARK    3  A    between atoms: O_3  and  C_4
REMARK    4  A    between atoms: C_4  and  C_6
REMARK    5  A    between atoms: C_10  and  N_11
REMARK    6  A    between atoms: C_12  and  C_14
REMARK    7  A    between atoms: C_14  and  C_16
REMARK    8  A    between atoms: C_14  and  S_17
REMARK    9  A    between atoms: S_17  and  C_18
REMARK   10  A    between atoms: C_24  and  C_26
REMARK                            x       y       z     vdW  Elec       q    Type
REMARK                         _______ _______ _______ _____ _____    ______ ____
ROOT
ATOM      1  N   UNL     1     -11.723  -2.005  -0.503  0.00  0.00    -0.278 N 
ATOM      2  C   UNL     1     -11.216  -0.831  -0.077  0.00  0.00    +0.231 C 
ATOM      3  O   UNL     1     -11.960   0.082   0.210  0.00  0.00    -0.274 OA
ATOM      4  H   UNL     1     -11.128  -2.736  -0.732  0.00  0.00    +0.155 HD
ENDROOT
BRANCH   1   9
ATOM      5  C   UNL     1     -13.798  -3.286  -1.031  0.00  0.00    +0.091 A 
ATOM      6  C   UNL     1     -15.258  -3.198  -1.051  0.00  0.00    -0.021 A 
ATOM      7  C   UNL     1     -15.765  -2.015  -0.661  0.00  0.00    -0.004 A 
ATOM      8  S   UNL     1     -14.345  -1.024  -0.265  0.00  0.00    -0.077 S 
ATOM      9  C   UNL     1     -13.095  -2.168  -0.612  0.00  0.00    +0.086 A 
ATOM     10  C   UNL     1     -17.269  -2.001  -0.711  0.00  0.00    +0.043 C 
ATOM     11  C   UNL     1     -17.670  -3.491  -0.778  0.00  0.00    +0.010 C 
ATOM     12  C   UNL     1     -16.419  -4.125  -1.418  0.00  0.00    +0.037 C 
BRANCH   5  13
ATOM     13  C   UNL     1     -13.106  -4.511  -1.435  0.00  0.00    +0.342 C 
ATOM     14  O   UNL     1     -12.857  -5.369  -0.610  0.00  0.00    -0.245 OA
BRANCH  13  15
ATOM     15  O   UNL     1     -12.745  -4.689  -2.722  0.00  0.00    -0.461 OA
BRANCH  15  17
ATOM     16  C   UNL     1     -11.734  -5.949  -4.545  0.00  0.00    +0.048 C 
ATOM     17  C   UNL     1     -12.062  -5.928  -3.051  0.00  0.00    +0.229 C 
ENDBRANCH  15  17
ENDBRANCH  13  15
ENDBRANCH   5  13
ENDBRANCH   1   9
BRANCH   2  18
ATOM     18  C   UNL     1      -9.724  -0.654   0.042  0.00  0.00    +0.136 C 
ATOM     19  C   UNL     1      -9.236  -1.292   1.343  0.00  0.00    +0.029 C 
BRANCH  18  20
ATOM     20  S   UNL     1      -9.324   1.116   0.049  0.00  0.00    -0.084 S 
BRANCH  20  21
ATOM     21  C   UNL     1      -7.563   1.155   0.042  0.00  0.00    +0.161 A 
ATOM     22  N   UNL     1      -6.704   0.152   0.033  0.00  0.00    -0.133 NA
ATOM     23  N   UNL     1      -5.352   0.410   0.022  0.00  0.00    -0.125 NA
ATOM     24  C   UNL     1      -4.921   1.656   0.033  0.00  0.00    +0.189 A 
ATOM     25  S   UNL     1      -6.462   2.561   0.045  0.00  0.00    -0.024 S 
ATOM     26  N   UNL     1      -3.616   2.138   0.030  0.00  0.00    -0.259 N 
ATOM     27  C   UNL     1      -2.580   1.276   0.021  0.00  0.00    +0.256 C 
ATOM     28  O   UNL     1      -2.786   0.076   0.015  0.00  0.00    -0.269 OA
ATOM     29  H   UNL     1      -3.451   3.094   0.035  0.00  0.00    +0.157 HD
BRANCH  27  30
ATOM     30  C   UNL     1      -1.205   1.783   0.017  0.00  0.00    +0.074 A 
ATOM     31  C   UNL     1      -0.013   1.076   0.008  0.00  0.00    +0.021 A 
ATOM     32  C   UNL     1       1.149   1.808   0.001  0.00  0.00    +0.008 A 
ATOM     33  C   UNL     1       1.077   3.165   0.008  0.00  0.00    +0.046 A 
ATOM     34  S   UNL     1      -0.629   3.472   0.026  0.00  0.00    -0.092 S 
ENDBRANCH  27  30
ENDBRANCH  20  21
ENDBRANCH  18  20
ENDBRANCH   2  18
TORSDOF 8
