REMARK  Name = ZINC09521379
REMARK  5 active torsions:
REMARK  status: ('A' for Active; 'I' for Inactive)
REMARK    1  A    between atoms: C_1  and  C_2
REMARK    2  A    between atoms: C_9  and  N_13
REMARK    3  A    between atoms: C_10  and  C_11
REMARK    4  A    between atoms: C_14  and  C_16
REMARK    5  A    between atoms: C_16  and  C_17
REMARK                            x       y       z     vdW  Elec       q    Type
REMARK                         _______ _______ _______ _____ _____    ______ ____
ROOT
ATOM      1  N   UNL     1      -2.303  -5.918   0.765  0.00  0.00    -0.279 N 
ATOM      2  C   UNL     1      -3.568  -6.207   0.399  0.00  0.00    +0.222 C 
ATOM      3  O   UNL     1      -4.297  -5.327  -0.010  0.00  0.00    -0.275 OA
ATOM      4  H   UNL     1      -1.721  -6.621   1.092  0.00  0.00    +0.155 HD
ENDROOT
BRANCH   1  12
ATOM      5  C   UNL     1      -0.019   1.526   0.010  0.00  0.00    +0.008 C 
ATOM      6  C   UNL     1       0.002  -0.004   0.002  0.00  0.00    -0.009 C 
ATOM      7  C   UNL     1       0.742  -0.514   1.242  0.00  0.00    +0.008 C 
ATOM      8  C   UNL     1       0.985  -2.020   1.120  0.00  0.00    +0.037 C 
ATOM      9  C   UNL     1      -0.340  -2.706   0.809  0.00  0.00    -0.018 A 
ATOM     10  C   UNL     1      -1.390  -2.006   0.327  0.00  0.00    -0.004 A 
ATOM     11  S   UNL     1      -2.678  -3.204   0.126  0.00  0.00    -0.077 S 
ATOM     12  C   UNL     1      -1.835  -4.615   0.674  0.00  0.00    +0.090 A 
ATOM     13  C   UNL     1      -0.578  -4.126   0.999  0.00  0.00    +0.084 A 
ATOM     14  C   UNL     1      -1.437  -0.538   0.030  0.00  0.00    +0.046 C 
BRANCH  13  15
ATOM     15  C   UNL     1       0.446  -4.990   1.504  0.00  0.00    +0.102 C 
ATOM     16  N   UNL     1       1.259  -5.675   1.905  0.00  0.00    -0.191 NA
ENDBRANCH  13  15
ENDBRANCH   1  12
BRANCH   2  17
ATOM     17  C   UNL     1      -4.077  -7.622   0.498  0.00  0.00    +0.131 C 
BRANCH  17  18
ATOM     18  C   UNL     1      -5.509  -7.675   0.032  0.00  0.00    -0.035 A 
ATOM     19  C   UNL     1      -6.537  -7.492   0.938  0.00  0.00    +0.008 A 
ATOM     20  C   UNL     1      -7.852  -7.535   0.514  0.00  0.00    +0.050 A 
ATOM     21  C   UNL     1      -8.143  -7.771  -0.820  0.00  0.00    +0.166 A 
ATOM     22  C   UNL     1      -7.108  -7.960  -1.732  0.00  0.00    +0.166 A 
ATOM     23  C   UNL     1      -5.792  -7.911  -1.301  0.00  0.00    +0.053 A 
ATOM     24  O   UNL     1      -7.648  -8.173  -2.967  0.00  0.00    -0.453 OA
ATOM     25  C   UNL     1      -9.008  -7.708  -2.877  0.00  0.00    +0.466 C 
ATOM     26  O   UNL     1      -9.332  -7.866  -1.483  0.00  0.00    -0.453 OA
ENDBRANCH  17  18
ENDBRANCH   2  17
TORSDOF 4
