REMARK  Name = ZINC33126290
REMARK  13 active torsions:
REMARK  status: ('A' for Active; 'I' for Inactive)
REMARK    1  A    between atoms: C_1  and  C_2
REMARK    2  A    between atoms: C_2  and  C_3
REMARK    3  A    between atoms: C_2  and  C_4
REMARK    4  A    between atoms: C_4  and  N_5
REMARK    5  A    between atoms: N_5  and  C_6
REMARK    6  A    between atoms: N_5  and  C_17
REMARK    7  A    between atoms: C_6  and  C_7
REMARK    8  A    between atoms: C_10  and  O_15
REMARK    9  A    between atoms: C_11  and  O_13
REMARK   10  A    between atoms: O_13  and  C_14
REMARK   11  A    between atoms: O_15  and  C_16
REMARK   12  A    between atoms: C_17  and  C_18
REMARK   13  A    between atoms: C_26  and  C_29
REMARK                            x       y       z     vdW  Elec       q    Type
REMARK                         _______ _______ _______ _____ _____    ______ ____
ROOT
ATOM      1  C   UNL     1       0.237   0.802   0.144  0.00  0.00    -0.022 C 
ENDROOT
BRANCH   1   2
ATOM      2  C   UNL     1       0.079   1.279  -1.277  0.00  0.00    +0.032 A 
ATOM      3  C   UNL     1       1.094   1.965  -1.882  0.00  0.00    +0.093 A 
ATOM      4  C   UNL     1       0.930   2.397  -3.210  0.00  0.00    +0.273 A 
ATOM      5  O   UNL     1       1.819   3.007  -3.780  0.00  0.00    -0.266 OA
ATOM      6  N   UNL     1      -0.232   2.128  -3.840  0.00  0.00    -0.201 N 
ATOM      7  C   UNL     1      -1.222   1.440  -3.185  0.00  0.00    +0.158 A 
ATOM      8  N   UNL     1      -1.049   1.035  -1.933  0.00  0.00    -0.234 NA
ATOM      9  C   UNL     1      -2.306   1.306  -4.078  0.00  0.00    +0.075 A 
ATOM     10  C   UNL     1      -1.967   1.906  -5.252  0.00  0.00    +0.066 A 
ATOM     11  N   UNL     1      -0.695   2.419  -5.129  0.00  0.00    -0.288 N 
ATOM     12  H   UNL     1      -0.053   2.971  -5.832  0.00  0.00    +0.187 HD
BRANCH  10  13
ATOM     13  C   UNL     1      -2.819   1.992  -6.455  0.00  0.00    -0.000 A 
ATOM     14  C   UNL     1      -2.354   2.643  -7.600  0.00  0.00    +0.011 A 
ATOM     15  C   UNL     1      -3.152   2.715  -8.721  0.00  0.00    +0.020 A 
ATOM     16  C   UNL     1      -4.418   2.153  -8.711  0.00  0.00    +0.041 A 
ATOM     17  C   UNL     1      -4.888   1.511  -7.577  0.00  0.00    +0.020 A 
ATOM     18  C   UNL     1      -4.097   1.427  -6.451  0.00  0.00    +0.011 A 
ATOM     19 CL   UNL     1      -5.420   2.254 -10.125  0.00  0.00    -0.084 Cl
ENDBRANCH  10  13
ENDBRANCH   1   2
BRANCH   1  20
ATOM     20  N   UNL     1      -0.127   1.886   1.067  0.00  0.00    +0.386 N 
ATOM     21  H   UNL     1       0.065   2.842   0.558  0.00  0.00    -0.081 HD
BRANCH  20  22
ATOM     22  C   UNL     1      -1.556   1.832   1.404  0.00  0.00    -0.075 C 
BRANCH  22  24
ATOM     23  C   UNL     1      -3.868   2.258   0.558  0.00  0.00    +0.005 C 
ATOM     24  C   UNL     1      -2.378   2.348   0.221  0.00  0.00    -0.034 C 
ATOM     25  C   UNL     1      -2.006   3.805  -0.062  0.00  0.00    +0.005 C 
ENDBRANCH  22  24
ENDBRANCH  20  22
BRANCH  20  26
ATOM     26  C   UNL     1       0.702   1.845   2.279  0.00  0.00    -0.042 C 
BRANCH  26  27
ATOM     27  C   UNL     1       0.634   3.177   2.979  0.00  0.00    -0.060 A 
ATOM     28  C   UNL     1       1.449   4.215   2.568  0.00  0.00    +0.005 A 
ATOM     29  C   UNL     1       1.386   5.441   3.203  0.00  0.00    +0.049 A 
ATOM     30  C   UNL     1       0.513   5.629   4.263  0.00  0.00    +0.161 A 
ATOM     31  C   UNL     1      -0.304   4.582   4.681  0.00  0.00    +0.162 A 
ATOM     32  C   UNL     1      -0.240   3.357   4.036  0.00  0.00    +0.051 A 
BRANCH  31  33
ATOM     33  O   UNL     1      -1.163   4.761   5.720  0.00  0.00    -0.491 OA
ATOM     34  C   UNL     1      -1.971   3.643   6.094  0.00  0.00    +0.277 C 
ENDBRANCH  31  33
BRANCH  30  35
ATOM     35  O   UNL     1       0.453   6.833   4.892  0.00  0.00    -0.491 OA
ATOM     36  C   UNL     1       1.320   7.861   4.409  0.00  0.00    +0.277 C 
ENDBRANCH  30  35
ENDBRANCH  26  27
ENDBRANCH  20  26
ENDBRANCH   1  20
TORSDOF 9
