REMARK  Name = ZINC13500589
REMARK  15 active torsions:
REMARK  status: ('A' for Active; 'I' for Inactive)
REMARK    1  A    between atoms: C_1  and  C_2
REMARK    2  A    between atoms: C_2  and  C_3
REMARK    3  A    between atoms: C_3  and  C_4
REMARK    4  A    between atoms: C_3  and  C_5
REMARK    5  A    between atoms: C_3  and  N_6
REMARK    6  A    between atoms: C_7  and  C_11
REMARK    7  A    between atoms: C_11  and  C_13
REMARK    8  A    between atoms: C_11  and  N_74
REMARK    9  A    between atoms: C_13  and  C_14
REMARK   10  A    between atoms: C_13  and  C_15
REMARK   11  A    between atoms: C_16  and  C_17
REMARK   12  A    between atoms: C_16  and  N_74
REMARK   13  A    between atoms: C_21  and  C_30
REMARK   14  A    between atoms: C_23  and  C_29
REMARK   15  A    between atoms: C_31  and  N_74
REMARK                            x       y       z     vdW  Elec       q    Type
REMARK                         _______ _______ _______ _____ _____    ______ ____
ROOT
ATOM      1  N   UNL     1      -1.506   7.634  -1.830  0.00  0.00    +0.391 N 
ATOM      2  H   UNL     1      -1.232   6.910  -2.504  0.00  0.00    -0.080 HD
ENDROOT
BRANCH   1   3
ATOM      3  C   UNL     1      -2.975   7.796  -1.871  0.00  0.00    -0.067 C 
ATOM      4  C   UNL     1      -3.652   6.563  -1.237  0.00  0.00    -0.015 C 
ATOM      5  C   UNL     1      -4.902   6.321  -2.121  0.00  0.00    -0.002 C 
ATOM      6  C   UNL     1      -4.383   6.646  -3.544  0.00  0.00    -0.002 C 
ATOM      7  C   UNL     1      -3.440   7.849  -3.337  0.00  0.00    -0.015 C 
ENDBRANCH   1   3
BRANCH   1   8
ATOM      8  C   UNL     1      -0.847   8.905  -2.195  0.00  0.00    +0.006 C 
BRANCH   8  10
ATOM      9  N   UNL     1      -1.746  10.305  -4.129  0.00  0.00    -0.225 N 
ATOM     10  C   UNL     1      -1.139   9.206  -3.643  0.00  0.00    +0.139 A 
ATOM     11  N   UNL     1      -0.857   8.445  -4.672  0.00  0.00    -0.115 NA
ATOM     12  N   UNL     1      -1.264   9.048  -5.736  0.00  0.00    -0.023 NA
ATOM     13  N   UNL     1      -1.798  10.174  -5.411  0.00  0.00    -0.043 NA
BRANCH   9  14
ATOM     14  C   UNL     1      -2.248  11.438  -3.349  0.00  0.00    +0.061 C 
ATOM     15  C   UNL     1      -3.292  10.944  -2.346  0.00  0.00    +0.036 C 
ATOM     16  C   UNL     1      -1.088  12.094  -2.596  0.00  0.00    +0.036 C 
BRANCH  14  18
ATOM     17  C   UNL     1      -3.413  13.645  -3.475  0.00  0.00    +0.006 C 
ATOM     18  C   UNL     1      -2.888  12.461  -4.289  0.00  0.00    +0.026 C 
ENDBRANCH  14  18
ENDBRANCH   9  14
ENDBRANCH   8  10
BRANCH   8  19
ATOM     19  C   UNL     1       0.663   8.759  -1.999  0.00  0.00    -0.024 C 
ATOM     20  C   UNL     1       1.169   7.563  -2.808  0.00  0.00    +0.006 C 
ATOM     21  C   UNL     1       1.365  10.032  -2.478  0.00  0.00    +0.006 C 
ENDBRANCH   8  19
ENDBRANCH   1   8
BRANCH   1  22
ATOM     22  C   UNL     1      -1.082   7.215  -0.477  0.00  0.00    -0.036 C 
BRANCH  22  23
ATOM     23  C   UNL     1      -1.690   8.114   0.569  0.00  0.00    +0.001 A 
ATOM     24  C   UNL     1      -2.676   7.644   1.372  0.00  0.00    +0.017 A 
ATOM     25  C   UNL     1      -3.246   8.543   2.378  0.00  0.00    -0.001 A 
ATOM     26  C   UNL     1      -4.265   8.115   3.235  0.00  0.00    +0.013 A 
ATOM     27  C   UNL     1      -4.776   8.978   4.163  0.00  0.00    -0.050 A 
ATOM     28  C   UNL     1      -4.292  10.276   4.263  0.00  0.00    +0.008 A 
ATOM     29  C   UNL     1      -3.292  10.720   3.426  0.00  0.00    -0.026 A 
ATOM     30  C   UNL     1      -2.752   9.857   2.477  0.00  0.00    +0.052 A 
ATOM     31  N   UNL     1      -1.748  10.273   1.629  0.00  0.00    -0.322 N 
ATOM     32  H   UNL     1      -1.409  11.179   1.698  0.00  0.00    +0.169 HD
ATOM     33  C   UNL     1      -1.231   9.441   0.708  0.00  0.00    +0.251 A 
ATOM     34  O   UNL     1      -0.343   9.843  -0.024  0.00  0.00    -0.268 OA
ATOM     35  C   UNL     1      -2.780  12.132   3.541  0.00  0.00    +0.046 C 
ATOM     36  C   UNL     1      -5.874   8.518   5.087  0.00  0.00    +0.044 C 
ENDBRANCH  22  23
ENDBRANCH   1  22
TORSDOF 8
