REMARK  Name = ZINC10000307
REMARK  11 active torsions:
REMARK  status: ('A' for Active; 'I' for Inactive)
REMARK    1  A    between atoms: C_1  and  C_2
REMARK    2  A    between atoms: C_5  and  N_33
REMARK    3  A    between atoms: C_7  and  C_8
REMARK    4  A    between atoms: C_11  and  C_13
REMARK    5  A    between atoms: N_14  and  N_15
REMARK    6  A    between atoms: C_16  and  C_18
REMARK    7  A    between atoms: C_18  and  C_20
REMARK    8  A    between atoms: C_18  and  N_23
REMARK    9  A    between atoms: C_20  and  C_21
REMARK   10  A    between atoms: C_20  and  C_22
REMARK   11  A    between atoms: C_24  and  C_26
REMARK                            x       y       z     vdW  Elec       q    Type
REMARK                         _______ _______ _______ _____ _____    ______ ____
ROOT
ATOM      1  N   UNL     1      -1.122   1.625  -0.450  0.00  0.00    -0.205 N 
ATOM      2  C   UNL     1       0.018   1.136   0.078  0.00  0.00    +0.253 C 
ATOM      3  O   UNL     1       0.024   0.044   0.595  0.00  0.00    -0.272 OA
ATOM      4  H   UNL     1      -1.112   2.469  -0.929  0.00  0.00    +0.177 HD
ENDROOT
BRANCH   1   6
ATOM      5  C   UNL     1      -3.349   1.453  -0.839  0.00  0.00    +0.176 C 
ATOM      6  N   UNL     1      -2.226   0.971  -0.319  0.00  0.00    -0.185 NA
BRANCH   5  10
ATOM      7  C   UNL     1      -5.988  -0.802  -0.129  0.00  0.00    +0.136 A 
ATOM      8  C   UNL     1      -6.723   0.174  -0.847  0.00  0.00    +0.050 A 
ATOM      9  C   UNL     1      -5.856   1.154  -1.209  0.00  0.00    +0.051 A 
ATOM     10  C   UNL     1      -4.537   0.750  -0.697  0.00  0.00    +0.148 A 
ATOM     11  O   UNL     1      -4.698  -0.430  -0.059  0.00  0.00    -0.454 OA
BRANCH   7  18
ATOM     12  C   UNL     1      -4.692  -3.311  -0.690  0.00  0.00    +0.044 C 
ATOM     13  C   UNL     1      -5.922  -3.232   0.177  0.00  0.00    -0.040 A 
ATOM     14  C   UNL     1      -6.450  -4.367   0.724  0.00  0.00    +0.006 A 
ATOM     15  C   UNL     1      -7.586  -4.297   1.518  0.00  0.00    +0.033 A 
ATOM     16  C   UNL     1      -8.195  -3.076   1.769  0.00  0.00    +0.127 A 
ATOM     17  C   UNL     1      -7.682  -1.928   1.237  0.00  0.00    +0.044 A 
ATOM     18  C   UNL     1      -6.529  -1.987   0.430  0.00  0.00    +0.022 A 
BRANCH  16  19
ATOM     19  N   UNL     1      -9.407  -3.018   2.618  0.00  0.00    +0.056 N 
ATOM     20  O   UNL     1      -9.988  -1.861   2.858  0.00  0.00    -0.126 OA
ATOM     21  O   UNL     1      -9.904  -4.124   3.132  0.00  0.00    -0.126 OA
ENDBRANCH  16  19
ENDBRANCH   7  18
ENDBRANCH   5  10
ENDBRANCH   1   6
BRANCH   2  22
ATOM     22  C   UNL     1       1.285   1.948   0.018  0.00  0.00    +0.163 C 
BRANCH  22  23
ATOM     23  N   UNL     1       2.443   1.052   0.065  0.00  0.00    -0.300 N 
ATOM     24  C   UNL     1       3.620   1.442  -0.462  0.00  0.00    +0.246 C 
ATOM     25  O   UNL     1       3.721   2.539  -0.977  0.00  0.00    -0.270 OA
ATOM     26  H   UNL     1       2.362   0.176   0.476  0.00  0.00    +0.150 HD
BRANCH  24  27
ATOM     27  C   UNL     1       4.787   0.538  -0.415  0.00  0.00    +0.055 A 
ATOM     28  C   UNL     1       4.676  -0.720   0.181  0.00  0.00    +0.014 A 
ATOM     29  C   UNL     1       5.768  -1.562   0.217  0.00  0.00    +0.001 A 
ATOM     30  C   UNL     1       6.976  -1.159  -0.326  0.00  0.00    +0.001 A 
ATOM     31  C   UNL     1       7.096   0.088  -0.912  0.00  0.00    +0.021 A 
ATOM     32  C   UNL     1       6.009   0.939  -0.961  0.00  0.00    +0.053 A 
ATOM     33 CL   UNL     1       6.161   2.504  -1.697  0.00  0.00    -0.083 Cl
ENDBRANCH  24  27
ENDBRANCH  22  23
BRANCH  22  34
ATOM     34  C   UNL     1       1.334   2.907   1.210  0.00  0.00    +0.012 C 
ATOM     35  C   UNL     1       1.442   2.103   2.507  0.00  0.00    +0.009 C 
ATOM     36  C   UNL     1       2.550   3.825   1.076  0.00  0.00    +0.009 C 
ENDBRANCH  22  34
ENDBRANCH   2  22
TORSDOF 8
