REMARK  Name = ZINC36624247
REMARK  6 active torsions:
REMARK  status: ('A' for Active; 'I' for Inactive)
REMARK    1  A    between atoms: C_1  and  C_2
REMARK    2  A    between atoms: C_4  and  C_11
REMARK    3  A    between atoms: C_7  and  N_8
REMARK    4  A    between atoms: N_13  and  C_14
REMARK    5  A    between atoms: C_14  and  C_16
REMARK    6  A    between atoms: C_14  and  C_17
REMARK                            x       y       z     vdW  Elec       q    Type
REMARK                         _______ _______ _______ _____ _____    ______ ____
ROOT
ATOM      1  C   UNL     1      -0.188  -2.819  -2.476  0.00  0.00    +0.245 C 
ATOM      2  O   UNL     1      -0.512  -2.233  -3.490  0.00  0.00    -0.270 OA
ATOM      3  N   UNL     1       0.073  -4.141  -2.515  0.00  0.00    -0.305 N 
ATOM      4  H   UNL     1       0.332  -4.608  -1.705  0.00  0.00    +0.150 HD
ENDROOT
BRANCH   1   8
ATOM      5  C   UNL     1      -0.538   1.447   0.089  0.00  0.00    +0.046 C 
ATOM      6  C   UNL     1      -0.247  -0.031   0.040  0.00  0.00    -0.020 A 
ATOM      7  C   UNL     1      -0.349  -0.713  -1.155  0.00  0.00    +0.018 A 
ATOM      8  C   UNL     1      -0.080  -2.082  -1.199  0.00  0.00    +0.037 A 
ATOM      9  C   UNL     1       0.292  -2.751  -0.032  0.00  0.00    +0.015 A 
ATOM     10  C   UNL     1       0.391  -2.057   1.156  0.00  0.00    +0.034 A 
ATOM     11  C   UNL     1       0.127  -0.699   1.192  0.00  0.00    +0.129 A 
BRANCH  11  12
ATOM     12  N   UNL     1       0.241   0.040   2.469  0.00  0.00    +0.057 N 
ATOM     13  O   UNL     1       0.675   1.169   2.477  0.00  0.00    -0.126 OA
ATOM     14  O   UNL     1      -0.100  -0.484   3.503  0.00  0.00    -0.126 OA
ENDBRANCH  11  12
ENDBRANCH   1   8
BRANCH   3  15
ATOM     15  C   UNL     1      -0.034  -4.872  -3.780  0.00  0.00    +0.103 C 
ATOM     16  C   UNL     1      -1.486  -5.301  -4.000  0.00  0.00    +0.033 C 
BRANCH  15  17
ATOM     17  C   UNL     1       0.850  -6.092  -3.732  0.00  0.00    +0.008 A 
ATOM     18  C   UNL     1       1.175  -6.662  -2.515  0.00  0.00    +0.008 A 
ATOM     19  C   UNL     1       1.985  -7.781  -2.470  0.00  0.00    +0.000 A 
ATOM     20  C   UNL     1       2.470  -8.332  -3.642  0.00  0.00    +0.003 A 
ATOM     21  C   UNL     1       2.146  -7.764  -4.859  0.00  0.00    +0.039 A 
ATOM     22  C   UNL     1       1.330  -6.646  -4.906  0.00  0.00    +0.128 A 
ATOM     23  F   UNL     1       1.009  -6.092  -6.095  0.00  0.00    -0.205 F 
ENDBRANCH  15  17
ENDBRANCH   3  15
TORSDOF 4
