REMARK  Name = ZINC19793581
REMARK  7 active torsions:
REMARK  status: ('A' for Active; 'I' for Inactive)
REMARK    1  A    between atoms: C_1  and  C_2
REMARK    2  A    between atoms: C_3  and  C_19
REMARK    3  A    between atoms: C_7  and  N_12
REMARK    4  A    between atoms: C_19  and  N_20
REMARK    5  A    between atoms: C_22  and  C_31
REMARK    6  A    between atoms: C_27  and  C_29
REMARK    7  A    between atoms: C_27  and  C_30
REMARK                            x       y       z     vdW  Elec       q    Type
REMARK                         _______ _______ _______ _____ _____    ______ ____
ROOT
ATOM      1  C   UNL     1      -1.589  -1.066   0.994  0.00  0.00    +0.063 C 
ATOM      2  C   UNL     1      -1.571   0.250   1.728  0.00  0.00    +0.018 A 
ATOM      3  C   UNL     1      -0.757   1.274   1.258  0.00  0.00    +0.002 A 
ATOM      4  C   UNL     1      -0.726   2.485   1.924  0.00  0.00    +0.191 A 
ATOM      5  C   UNL     1      -1.546   2.634   3.067  0.00  0.00    +0.047 A 
ATOM      6  C   UNL     1      -1.572   3.833   3.792  0.00  0.00    +0.037 A 
ATOM      7  C   UNL     1      -2.380   3.935   4.904  0.00  0.00    +0.031 A 
ATOM      8  C   UNL     1      -3.169   2.854   5.311  0.00  0.00    +0.025 A 
ATOM      9  C   UNL     1      -3.159   1.682   4.622  0.00  0.00    +0.028 A 
ATOM     10  C   UNL     1      -2.346   1.543   3.483  0.00  0.00    +0.050 A 
ATOM     11  N   UNL     1      -2.323   0.397   2.792  0.00  0.00    -0.358 N 
ATOM     12  O   UNL     1       0.062   3.501   1.492  0.00  0.00    -0.287 OA
ATOM     13  H   UNL     1      -2.955  -0.434   3.138  0.00  0.00    +0.166 HD
ENDROOT
BRANCH   7  14
ATOM     14  N   UNL     1      -2.410   5.128   5.631  0.00  0.00    -0.325 N 
ATOM     15  C   UNL     1      -1.063   5.506   6.082  0.00  0.00    +0.133 C 
ATOM     16  C   UNL     1      -1.134   6.845   6.821  0.00  0.00    +0.178 C 
ATOM     17  O   UNL     1      -2.057   6.735   7.907  0.00  0.00    -0.377 OA
ATOM     18  C   UNL     1      -3.380   6.370   7.505  0.00  0.00    +0.178 C 
ATOM     19  C   UNL     1      -3.331   5.026   6.773  0.00  0.00    +0.133 C 
ENDBRANCH   7  14
BRANCH   3  20
ATOM     20  C   UNL     1       0.093   1.063   0.031  0.00  0.00    -0.037 C 
BRANCH  20  21
ATOM     21  N   UNL     1      -0.711   1.286  -1.159  0.00  0.00    +0.385 N 
ATOM     22  C   UNL     1      -0.174   0.646  -2.369  0.00  0.00    -0.071 C 
ATOM     23  C   UNL     1      -0.413   1.642  -3.530  0.00  0.00    -0.048 C 
ATOM     24  C   UNL     1      -1.477   2.619  -2.957  0.00  0.00    -0.011 C 
ATOM     25  C   UNL     1      -0.982   2.697  -1.484  0.00  0.00    -0.067 C 
ATOM     26  C   UNL     1       0.278   3.544  -1.465  0.00  0.00    -0.009 C 
ATOM     27  C   UNL     1       1.293   3.287  -2.557  0.00  0.00    -0.036 C 
ATOM     28  C   UNL     1       0.866   2.448  -3.743  0.00  0.00    +0.011 C 
ATOM     29  C   UNL     1       2.555   2.660  -1.932  0.00  0.00    +0.011 C 
ATOM     30  C   UNL     1       1.731   4.668  -3.108  0.00  0.00    +0.011 C 
ATOM     31  C   UNL     1      -0.894   0.939  -4.808  0.00  0.00    +0.009 C 
ATOM     32  H   UNL     1      -1.651   0.803  -0.854  0.00  0.00    -0.081 HD
ENDBRANCH  20  21
ENDBRANCH   3  20
TORSDOF 3
