REMARK  Name = ZINC03514583
REMARK  6 active torsions:
REMARK  status: ('A' for Active; 'I' for Inactive)
REMARK    1  A    between atoms: C_1  and  C_2
REMARK    2  A    between atoms: C_7  and  N_8
REMARK    3  A    between atoms: C_12  and  S_14
REMARK    4  A    between atoms: S_14  and  C_15
REMARK    5  A    between atoms: C_15  and  C_16
REMARK    6  A    between atoms: N_21  and  C_22
REMARK                            x       y       z     vdW  Elec       q    Type
REMARK                         _______ _______ _______ _____ _____    ______ ____
ROOT
ATOM      1  S   UNL     1       0.480   2.414   8.578  0.00  0.00    -0.088 S 
ENDROOT
BRANCH   1   6
ATOM      2  N   UNL     1       3.955   3.960  12.954  0.00  0.00    -0.292 N 
ATOM      3  C   UNL     1       3.327   3.582  11.773  0.00  0.00    +0.187 A 
ATOM      4  N   UNL     1       3.852   3.350  10.585  0.00  0.00    -0.125 NA
ATOM      5  N   UNL     1       3.040   2.977   9.539  0.00  0.00    -0.133 NA
ATOM      6  C   UNL     1       1.738   2.864   9.726  0.00  0.00    +0.160 A 
ATOM      7  S   UNL     1       1.595   3.281  11.457  0.00  0.00    -0.024 S 
ATOM      8  H   UNL     1       3.446   4.013  13.778  0.00  0.00    +0.154 HD
BRANCH   2  15
ATOM      9  C   UNL     1       5.244   4.344  15.462  0.00  0.00    +0.045 C 
ATOM     10  C   UNL     1       5.988   4.459  14.156  0.00  0.00    -0.029 A 
ATOM     11  C   UNL     1       7.337   4.754  14.153  0.00  0.00    +0.005 A 
ATOM     12  C   UNL     1       8.020   4.865  12.956  0.00  0.00    +0.000 A 
ATOM     13  C   UNL     1       7.355   4.676  11.758  0.00  0.00    +0.002 A 
ATOM     14  C   UNL     1       6.007   4.376  11.753  0.00  0.00    +0.023 A 
ATOM     15  C   UNL     1       5.319   4.263  12.955  0.00  0.00    +0.036 A 
ENDBRANCH   2  15
ENDBRANCH   1   6
BRANCH   1  16
ATOM     16  C   UNL     1       1.379   2.138   7.027  0.00  0.00    +0.172 C 
BRANCH  16  17
ATOM     17  C   UNL     1       0.407   1.742   5.946  0.00  0.00    +0.231 C 
ATOM     18  O   UNL     1      -0.776   1.654   6.197  0.00  0.00    -0.274 OA
ATOM     19  N   UNL     1       0.852   1.485   4.700  0.00  0.00    -0.240 N 
ATOM     20  C   UNL     1      -0.017   1.131   3.733  0.00  0.00    +0.306 C 
ATOM     21  O   UNL     1      -1.203   1.043   3.985  0.00  0.00    -0.252 OA
ATOM     22  N   UNL     1       0.428   0.874   2.487  0.00  0.00    -0.296 N 
ATOM     23  H   UNL     1       1.799   1.555   4.499  0.00  0.00    +0.159 HD
ATOM     24  H   UNL     1       1.374   0.944   2.287  0.00  0.00    +0.151 HD
BRANCH  22  25
ATOM     25  C   UNL     1      -0.517   0.489   1.437  0.00  0.00    +0.074 C 
ATOM     26  C   UNL     1       0.197  -0.330   0.342  0.00  0.00    +0.022 C 
ATOM     27  C   UNL     1      -0.417   0.101  -1.002  0.00  0.00    +0.002 C 
ATOM     28  C   UNL     1      -1.484   1.167  -0.677  0.00  0.00    +0.002 C 
ATOM     29  C   UNL     1      -1.042   1.742   0.691  0.00  0.00    +0.022 C 
ENDBRANCH  22  25
ENDBRANCH  16  17
ENDBRANCH   1  16
TORSDOF 5
