REMARK  Name = ZINC46023988
REMARK  8 active torsions:
REMARK  status: ('A' for Active; 'I' for Inactive)
REMARK    1  A    between atoms: C_1  and  C_2
REMARK    2  A    between atoms: C_2  and  C_3
REMARK    3  A    between atoms: C_8  and  N_9
REMARK    4  A    between atoms: C_10  and  C_12
REMARK    5  A    between atoms: C_12  and  C_13
REMARK    6  A    between atoms: C_14  and  C_28
REMARK    7  A    between atoms: C_18  and  C_23
REMARK    8  A    between atoms: C_21  and  C_22
REMARK                            x       y       z     vdW  Elec       q    Type
REMARK                         _______ _______ _______ _____ _____    ______ ____
ROOT
ATOM      1  C   UNL     1       6.403  -0.523   0.931  0.00  0.00    +0.004 A 
ATOM      2  C   UNL     1       6.882  -1.833   1.056  0.00  0.00    +0.047 A 
ATOM      3  N   UNL     1       8.152  -2.097   0.846  0.00  0.00    -0.216 NA
ATOM      4  C   UNL     1       9.009  -1.126   0.509  0.00  0.00    +0.254 A 
ATOM      5  N   UNL     1      10.310  -1.134   0.249  0.00  0.00    -0.189 NA
ATOM      6  C   UNL     1      10.720   0.103  -0.042  0.00  0.00    +0.190 A 
ATOM      7  N   UNL     1       9.691   0.930   0.025  0.00  0.00    -0.143 NA
ATOM      8  N   UNL     1       8.573   0.164   0.379  0.00  0.00    -0.200 N 
ATOM      9  C   UNL     1       7.264   0.468   0.585  0.00  0.00    +0.049 A 
ATOM     10  C   UNL     1       6.777   1.887   0.437  0.00  0.00    +0.066 C 
ATOM     11  C   UNL     1       5.937  -2.944   1.434  0.00  0.00    +0.066 C 
ENDROOT
BRANCH   6  12
ATOM     12  C   UNL     1      12.105   0.488  -0.384  0.00  0.00    +0.058 A 
ATOM     13  C   UNL     1      13.220  -0.301  -0.480  0.00  0.00    +0.019 A 
ATOM     14  C   UNL     1      14.419   0.286  -0.818  0.00  0.00    +0.008 A 
ATOM     15  C   UNL     1      14.460   1.625  -1.045  0.00  0.00    +0.046 A 
ATOM     16  S   UNL     1      12.758   2.099  -0.787  0.00  0.00    -0.093 S 
ENDBRANCH   6  12
BRANCH   1  17
ATOM     17  C   UNL     1       4.947  -0.219   1.171  0.00  0.00    +0.134 C 
BRANCH  17  19
ATOM     18  N   UNL     1       2.833  -0.268  -0.113  0.00  0.00    -0.285 N 
ATOM     19  C   UNL     1       4.165  -0.474  -0.091  0.00  0.00    +0.222 C 
ATOM     20  O   UNL     1       4.734  -0.865  -1.088  0.00  0.00    -0.275 OA
ATOM     21  H   UNL     1       2.388   0.106   0.663  0.00  0.00    +0.155 HD
BRANCH  18  27
ATOM     22  C   UNL     1       0.800  -1.084  -1.129  0.00  0.00    -0.026 A 
ATOM     23  C   UNL     1       0.070  -1.399  -2.258  0.00  0.00    +0.005 A 
ATOM     24  C   UNL     1       0.627  -1.234  -3.513  0.00  0.00    +0.000 A 
ATOM     25  C   UNL     1       1.917  -0.751  -3.641  0.00  0.00    +0.002 A 
ATOM     26  C   UNL     1       2.652  -0.433  -2.516  0.00  0.00    +0.023 A 
ATOM     27  C   UNL     1       2.093  -0.594  -1.255  0.00  0.00    +0.037 A 
BRANCH  22  29
ATOM     28  C   UNL     1      -0.422   0.058   0.702  0.00  0.00    +0.009 C 
ATOM     29  C   UNL     1       0.191  -1.265   0.238  0.00  0.00    +0.033 C 
ENDBRANCH  22  29
ENDBRANCH  18  27
ENDBRANCH  17  19
ENDBRANCH   1  17
TORSDOF 5
