REMARK  Name = ZINC21258146
REMARK  2 active torsions:
REMARK  status: ('A' for Active; 'I' for Inactive)
REMARK    1  A    between atoms: C_8  and  C_12
REMARK    2  A    between atoms: C_12  and  N_13
REMARK                            x       y       z     vdW  Elec       q    Type
REMARK                         _______ _______ _______ _____ _____    ______ ____
ROOT
ATOM      1  N   UNL     1      -2.629  -3.422  -1.353  0.00  0.00    -0.220 N 
ATOM      2  C   UNL     1      -3.316  -2.709  -2.269  0.00  0.00    +0.247 C 
ATOM      3  O   UNL     1      -3.796  -1.604  -2.130  0.00  0.00    -0.273 OA
ATOM      4  C   UNL     1      -3.357  -3.576  -3.506  0.00  0.00    +0.113 C 
ATOM      5  C   UNL     1      -4.800  -3.908  -3.871  0.00  0.00    +0.035 C 
ATOM      6  C   UNL     1      -4.820  -4.817  -5.103  0.00  0.00    +0.003 C 
ATOM      7  C   UNL     1      -4.132  -4.106  -6.270  0.00  0.00    +0.000 C 
ATOM      8  C   UNL     1      -2.680  -3.798  -5.898  0.00  0.00    +0.003 C 
ATOM      9  C   UNL     1      -2.653  -2.885  -4.669  0.00  0.00    +0.035 C 
ATOM     10  N   UNL     1      -2.632  -4.791  -3.115  0.00  0.00    -0.285 N 
ATOM     11  C   UNL     1      -2.244  -4.609  -1.838  0.00  0.00    +0.310 C 
ATOM     12  O   UNL     1      -1.615  -5.429  -1.199  0.00  0.00    -0.252 OA
ATOM     13  H   UNL     1      -2.508  -5.614  -3.835  0.00  0.00    +0.151 HD
ENDROOT
BRANCH   1  14
ATOM     14  C   UNL     1      -2.345  -2.958   0.008  0.00  0.00    +0.156 C 
BRANCH  14  22
ATOM     15  C   UNL     1       2.748  -0.293  -2.158  0.00  0.00    +0.001 A 
ATOM     16  C   UNL     1       3.103   0.336  -0.966  0.00  0.00    +0.002 A 
ATOM     17  C   UNL     1       2.341   0.199   0.153  0.00  0.00    +0.028 A 
ATOM     18  C   UNL     1       1.176  -0.587   0.113  0.00  0.00    +0.073 A 
ATOM     19  C   UNL     1       0.817  -1.225  -1.101  0.00  0.00    +0.001 A 
ATOM     20  C   UNL     1       1.627  -1.062  -2.236  0.00  0.00    +0.010 A 
ATOM     21  C   UNL     1      -0.349  -2.012  -1.140  0.00  0.00    +0.018 A 
ATOM     22  C   UNL     1      -1.089  -2.126   0.003  0.00  0.00    +0.008 A 
ATOM     23  C   UNL     1      -0.679  -1.472   1.164  0.00  0.00    +0.135 A 
ATOM     24  N   UNL     1       0.409  -0.739   1.197  0.00  0.00    -0.235 NA
ATOM     25 CL   UNL     1      -1.634  -1.631   2.605  0.00  0.00    -0.062 Cl
ENDBRANCH  14  22
ENDBRANCH   1  14
TORSDOF 2
