REMARK  Name = ZINC34747406
REMARK  4 active torsions:
REMARK  status: ('A' for Active; 'I' for Inactive)
REMARK    1  A    between atoms: C_4  and  C_7
REMARK    2  A    between atoms: C_7  and  N_8
REMARK    3  A    between atoms: N_21  and  C_24
REMARK    4  A    between atoms: C_24  and  C_25
REMARK                            x       y       z     vdW  Elec       q    Type
REMARK                         _______ _______ _______ _____ _____    ______ ____
ROOT
ATOM      1  N   UNL     1       4.055  -0.780   1.410  0.00  0.00    -0.276 N 
ATOM      2  C   UNL     1       4.755   0.227   1.964  0.00  0.00    +0.264 A 
ATOM      3  O   UNL     1       4.836   1.306   1.403  0.00  0.00    -0.267 OA
ATOM      4  C   UNL     1       5.401   0.013   3.223  0.00  0.00    +0.076 A 
ATOM      5  C   UNL     1       6.207   0.956   4.001  0.00  0.00    -0.023 A 
ATOM      6  C   UNL     1       6.713   0.511   5.169  0.00  0.00    -0.004 A 
ATOM      7  S   UNL     1       6.155  -1.167   5.302  0.00  0.00    -0.073 S 
ATOM      8  C   UNL     1       5.242  -1.265   3.783  0.00  0.00    +0.117 A 
ATOM      9  N   UNL     1       4.536  -2.217   3.182  0.00  0.00    -0.208 NA
ATOM     10  C   UNL     1       3.947  -1.991   2.026  0.00  0.00    +0.202 A 
ATOM     11  N   UNL     1       3.219  -2.992   1.431  0.00  0.00    -0.304 N 
ATOM     12  C   UNL     1       3.427  -3.340   0.017  0.00  0.00    +0.089 C 
ATOM     13  C   UNL     1       3.626  -4.855  -0.086  0.00  0.00    -0.059 C 
ATOM     14  N   UNL     1       2.492  -5.541   0.547  0.00  0.00    +0.387 N 
ATOM     15  C   UNL     1       2.466  -5.243   1.984  0.00  0.00    -0.059 C 
ATOM     16  C   UNL     1       2.213  -3.750   2.191  0.00  0.00    +0.089 C 
ATOM     17  C   UNL     1       7.563   1.272   6.139  0.00  0.00    +0.043 C 
ATOM     18  C   UNL     1       8.092   2.531   5.437  0.00  0.00    +0.005 C 
ATOM     19  C   UNL     1       6.925   3.222   4.725  0.00  0.00    +0.005 C 
ATOM     20  C   UNL     1       6.475   2.383   3.529  0.00  0.00    +0.037 C 
ATOM     21  H   UNL     1       1.632  -5.226   0.123  0.00  0.00    -0.081 HD
ENDROOT
BRANCH   1  22
ATOM     22  C   UNL     1       3.390  -0.568   0.121  0.00  0.00    +0.163 C 
BRANCH  22  26
ATOM     23  C   UNL     1      -0.664   0.603   0.782  0.00  0.00    +0.000 A 
ATOM     24  C   UNL     1       0.341   1.551   0.800  0.00  0.00    +0.000 A 
ATOM     25  C   UNL     1       1.653   1.172   0.587  0.00  0.00    +0.005 A 
ATOM     26  C   UNL     1       1.960  -0.155   0.355  0.00  0.00    -0.028 A 
ATOM     27  C   UNL     1       0.955  -1.104   0.338  0.00  0.00    +0.005 A 
ATOM     28  C   UNL     1      -0.357  -0.725   0.550  0.00  0.00    +0.000 A 
ENDBRANCH  22  26
ENDBRANCH   1  22
BRANCH  14  29
ATOM     29  C   UNL     1       2.628  -6.991   0.351  0.00  0.00    +0.018 C 
BRANCH  29  30
ATOM     30  C   UNL     1       1.406  -7.687   0.891  0.00  0.00    +0.194 C 
ATOM     31  O   UNL     1       0.509  -7.040   1.390  0.00  0.00    -0.278 OA
ATOM     32  N   UNL     1       1.308  -9.029   0.821  0.00  0.00    -0.331 N 
ATOM     33  H   UNL     1       2.025  -9.547   0.422  0.00  0.00    +0.145 HD
ATOM     34  H   UNL     1       0.521  -9.478   1.168  0.00  0.00    +0.145 HD
ENDBRANCH  29  30
ENDBRANCH  14  29
TORSDOF 4
