REMARK  Name = ZINC65002780
REMARK  6 active torsions:
REMARK  status: ('A' for Active; 'I' for Inactive)
REMARK    1  A    between atoms: C_1  and  N_2
REMARK    2  A    between atoms: C_6  and  S_12
REMARK    3  A    between atoms: S_12  and  N_15
REMARK    4  A    between atoms: N_15  and  C_16
REMARK    5  A    between atoms: C_16  and  C_17
REMARK    6  A    between atoms: C_26  and  C_28
REMARK                            x       y       z     vdW  Elec       q    Type
REMARK                         _______ _______ _______ _____ _____    ______ ____
ROOT
ATOM      1  C   UNL     1      -4.258  -5.469  -3.698  0.00  0.00    -0.030 A 
ATOM      2  C   UNL     1      -4.551  -6.819  -3.767  0.00  0.00    +0.005 A 
ATOM      3  C   UNL     1      -5.025  -7.361  -4.947  0.00  0.00    +0.006 A 
ATOM      4  C   UNL     1      -5.207  -6.557  -6.055  0.00  0.00    -0.024 A 
ATOM      5  C   UNL     1      -4.917  -5.203  -5.997  0.00  0.00    +0.040 A 
ATOM      6  C   UNL     1      -4.443  -4.662  -4.800  0.00  0.00    +0.028 A 
ATOM      7  N   UNL     1      -5.168  -4.569  -7.217  0.00  0.00    -0.267 N 
ATOM      8  C   UNL     1      -5.667  -5.540  -8.194  0.00  0.00    +0.118 C 
ATOM      9  C   UNL     1      -5.705  -6.883  -7.446  0.00  0.00    +0.056 C 
ATOM     10  C   UNL     1      -4.980  -3.257  -7.459  0.00  0.00    +0.251 C 
ATOM     11  O   UNL     1      -4.645  -2.514  -6.556  0.00  0.00    -0.270 OA
ENDROOT
BRANCH  10  12
ATOM     12  C   UNL     1      -5.179  -2.721  -8.821  0.00  0.00    +0.037 A 
ATOM     13  C   UNL     1      -6.279  -3.127  -9.580  0.00  0.00    +0.014 A 
ATOM     14  C   UNL     1      -6.460  -2.622 -10.851  0.00  0.00    +0.021 A 
ATOM     15  C   UNL     1      -5.554  -1.715 -11.374  0.00  0.00    +0.041 A 
ATOM     16  C   UNL     1      -4.461  -1.309 -10.627  0.00  0.00    +0.021 A 
ATOM     17  C   UNL     1      -4.272  -1.802  -9.353  0.00  0.00    +0.014 A 
ATOM     18 CL   UNL     1      -5.789  -1.085 -12.975  0.00  0.00    -0.084 Cl
ENDBRANCH  10  12
BRANCH   1  19
ATOM     19  C   UNL     1      -3.741  -4.878  -2.412  0.00  0.00    +0.141 C 
BRANCH  19  20
ATOM     20  N   UNL     1      -4.869  -4.431  -1.591  0.00  0.00    -0.186 NA
ATOM     21  H   UNL     1      -5.750  -4.338  -1.987  0.00  0.00    +0.148 HD
BRANCH  20  22
ATOM     22  S   UNL     1      -4.641  -4.086   0.012  0.00  0.00    +0.059 S 
ATOM     23  O   UNL     1      -3.928  -5.183   0.567  0.00  0.00    -0.153 OA
ATOM     24  O   UNL     1      -5.899  -3.660   0.519  0.00  0.00    -0.153 OA
BRANCH  22  30
ATOM     25  C   UNL     1      -1.043   1.889   0.332  0.00  0.00    +0.138 C 
ATOM     26  N   UNL     1      -0.837   0.438   0.303  0.00  0.00    -0.274 N 
ATOM     27  C   UNL     1      -1.874  -0.493   0.232  0.00  0.00    +0.040 A 
ATOM     28  C   UNL     1      -3.255  -0.317   0.174  0.00  0.00    +0.026 A 
ATOM     29  C   UNL     1      -4.091  -1.412   0.107  0.00  0.00    +0.030 A 
ATOM     30  C   UNL     1      -3.567  -2.692   0.097  0.00  0.00    +0.106 A 
ATOM     31  C   UNL     1      -2.196  -2.875   0.154  0.00  0.00    +0.034 A 
ATOM     32  C   UNL     1      -1.360  -1.784   0.221  0.00  0.00    -0.015 A 
ATOM     33  C   UNL     1       0.143  -1.643   0.292  0.00  0.00    +0.133 C 
ATOM     34  C   UNL     1       0.372  -0.147   0.337  0.00  0.00    +0.224 C 
ATOM     35  O   UNL     1       1.444   0.417   0.395  0.00  0.00    -0.275 OA
ENDBRANCH  22  30
ENDBRANCH  20  22
ENDBRANCH  19  20
ENDBRANCH   1  19
TORSDOF 5
