REMARK  Name = ZINC63633453
REMARK  7 active torsions:
REMARK  status: ('A' for Active; 'I' for Inactive)
REMARK    1  A    between atoms: C_1  and  C_2
REMARK    2  A    between atoms: C_8  and  C_28
REMARK    3  A    between atoms: N_16  and  C_17
REMARK    4  A    between atoms: C_17  and  C_18
REMARK    5  A    between atoms: C_18  and  C_19
REMARK    6  A    between atoms: C_33  and  O_34
REMARK    7  A    between atoms: O_34  and  C_35
REMARK                            x       y       z     vdW  Elec       q    Type
REMARK                         _______ _______ _______ _____ _____    ______ ____
ROOT
ATOM      1  C   UNL     1      -0.019   1.526   0.010  0.00  0.00    +0.024 C 
ATOM      2  C   UNL     1       0.002  -0.004   0.002  0.00  0.00    +0.062 C 
ATOM      3  C   UNL     1       0.732  -0.505  -1.252  0.00  0.00    +0.114 C 
ATOM      4  C   UNL     1       0.802  -2.009  -1.174  0.00  0.00    +0.221 C 
ATOM      5  O   UNL     1       0.912  -2.658  -2.193  0.00  0.00    -0.275 OA
ATOM      6  N   UNL     1       0.744  -2.638   0.008  0.00  0.00    -0.243 N 
ATOM      7  C   UNL     1       0.677  -4.110   0.043  0.00  0.00    +0.234 C 
ATOM      8  N   UNL     1      -0.331  -4.522   1.018  0.00  0.00    -0.228 NA
ATOM      9  C   UNL     1      -0.827  -3.730   1.913  0.00  0.00    +0.180 C 
ATOM     10  N   UNL     1      -0.473  -2.405   2.016  0.00  0.00    -0.286 N 
ATOM     11  C   UNL     1       0.725  -1.944   1.295  0.00  0.00    +0.239 C 
ATOM     12  N   UNL     1       0.722  -0.495   1.181  0.00  0.00    -0.280 NA
ATOM     13  N   UNL     1      -1.748  -4.236   2.799  0.00  0.00    -0.317 N 
ATOM     14  H   UNL     1      -1.000  -1.790   2.550  0.00  0.00    +0.152 HD
ATOM     15  H   UNL     1      -2.134  -3.660   3.478  0.00  0.00    +0.149 HD
ATOM     16  H   UNL     1       1.662  -0.129   1.210  0.00  0.00    +0.125 HD
ENDROOT
BRANCH   7  17
ATOM     17  C   UNL     1       2.020  -4.666   0.439  0.00  0.00    +0.036 A 
ATOM     18  C   UNL     1       3.167  -3.930   0.214  0.00  0.00    +0.011 A 
ATOM     19  C   UNL     1       4.400  -4.440   0.577  0.00  0.00    +0.001 A 
ATOM     20  C   UNL     1       4.488  -5.688   1.167  0.00  0.00    +0.004 A 
ATOM     21  C   UNL     1       3.344  -6.427   1.395  0.00  0.00    +0.046 A 
ATOM     22  C   UNL     1       2.105  -5.915   1.036  0.00  0.00    +0.127 A 
BRANCH  22  23
ATOM     23  O   UNL     1       0.978  -6.639   1.265  0.00  0.00    -0.495 OA
ATOM     24  C   UNL     1       1.141  -7.917   1.883  0.00  0.00    +0.277 C 
ENDBRANCH  22  23
ENDBRANCH   7  17
BRANCH  13  25
ATOM     25  C   UNL     1      -2.148  -5.643   2.717  0.00  0.00    +0.108 C 
BRANCH  25  26
ATOM     26  C   UNL     1      -3.177  -5.945   3.809  0.00  0.00    +0.052 C 
BRANCH  26  27
ATOM     27  C   UNL     1      -3.588  -7.392   3.725  0.00  0.00    -0.040 C 
ATOM     28  C   UNL     1      -3.076  -8.425   4.433  0.00  0.00    -0.001 A 
ATOM     29  C   UNL     1      -2.024  -8.508   5.452  0.00  0.00    +0.010 A 
ATOM     30  C   UNL     1      -1.726  -9.711   5.992  0.00  0.00    +0.001 A 
ATOM     31  C   UNL     1      -2.395 -10.880   5.602  0.00  0.00    +0.002 A 
ATOM     32  C   UNL     1      -3.373 -10.884   4.672  0.00  0.00    +0.026 A 
ATOM     33  C   UNL     1      -3.769  -9.673   4.039  0.00  0.00    +0.043 A 
ATOM     34  N   UNL     1      -4.673  -9.421   3.124  0.00  0.00    -0.380 N 
ATOM     35  C   UNL     1      -4.661  -7.983   2.837  0.00  0.00    +0.144 C 
ATOM     36  H   UNL     1      -5.255 -10.076   2.708  0.00  0.00    +0.160 HD
ENDBRANCH  26  27
ENDBRANCH  25  26
ENDBRANCH  13  25
TORSDOF 5
