REMARK  Name = ZINC01783681
REMARK  9 active torsions:
REMARK  status: ('A' for Active; 'I' for Inactive)
REMARK    1  A    between atoms: C_1  and  C_2
REMARK    2  A    between atoms: C_2  and  O_3
REMARK    3  A    between atoms: O_3  and  C_4
REMARK    4  A    between atoms: C_6  and  C_11
REMARK    5  A    between atoms: C_9  and  O_10
REMARK    6  A    between atoms: N_12  and  N_13
REMARK    7  A    between atoms: C_14  and  C_16
REMARK    8  A    between atoms: C_16  and  C_18
REMARK    9  A    between atoms: C_16  and  N_19
REMARK                            x       y       z     vdW  Elec       q    Type
REMARK                         _______ _______ _______ _____ _____    ______ ____
ROOT
ATOM      1  N   UNL     1      -1.352   3.757   0.274  0.00  0.00    -0.205 N 
ATOM      2  C   UNL     1      -0.749   3.086   1.275  0.00  0.00    +0.255 C 
ATOM      3  O   UNL     1      -0.224   3.695   2.183  0.00  0.00    -0.272 OA
ATOM      4  H   UNL     1      -1.772   3.271  -0.453  0.00  0.00    +0.177 HD
ENDROOT
BRANCH   1   6
ATOM      5  C   UNL     1      -1.951   5.805  -0.683  0.00  0.00    +0.138 C 
ATOM      6  N   UNL     1      -1.371   5.158   0.281  0.00  0.00    -0.188 NA
BRANCH   5   9
ATOM      7  C   UNL     1      -2.610   9.359  -1.700  0.00  0.00    +0.162 A 
ATOM      8  C   UNL     1      -2.595   7.976  -1.712  0.00  0.00    +0.059 A 
ATOM      9  C   UNL     1      -1.971   7.279  -0.675  0.00  0.00    -0.002 A 
ATOM     10  C   UNL     1      -1.371   7.981   0.373  0.00  0.00    +0.013 A 
ATOM     11  C   UNL     1      -1.385   9.360   0.376  0.00  0.00    +0.050 A 
ATOM     12  C   UNL     1      -2.005  10.053  -0.655  0.00  0.00    +0.158 A 
BRANCH  12  13
ATOM     13  O   UNL     1      -2.021  11.412  -0.645  0.00  0.00    -0.503 OA
ATOM     14  H   UNL     1      -2.786  11.793  -0.193  0.00  0.00    +0.292 HD
ENDBRANCH  12  13
BRANCH   7  15
ATOM     15  O   UNL     1      -3.217  10.041  -2.708  0.00  0.00    -0.489 OA
BRANCH  15  17
ATOM     16  C   UNL     1      -4.444  10.199  -4.784  0.00  0.00    +0.048 C 
ATOM     17  C   UNL     1      -3.817   9.265  -3.747  0.00  0.00    +0.226 C 
ENDBRANCH  15  17
ENDBRANCH   7  15
ENDBRANCH   5   9
ENDBRANCH   1   6
BRANCH   2  18
ATOM     18  C   UNL     1      -0.729   1.579   1.267  0.00  0.00    +0.176 C 
ATOM     19  C   UNL     1      -0.013   1.086   0.008  0.00  0.00    +0.041 C 
BRANCH  18  20
ATOM     20  N   UNL     1      -0.020   1.094   2.454  0.00  0.00    -0.287 N 
ATOM     21  C   UNL     1       1.278   1.442   2.642  0.00  0.00    +0.204 A 
ATOM     22  N   UNL     1       1.943   1.034   3.689  0.00  0.00    -0.230 NA
ATOM     23  C   UNL     1       1.369   0.254   4.601  0.00  0.00    +0.116 A 
ATOM     24  C   UNL     1       0.034  -0.162   4.491  0.00  0.00    +0.076 A 
ATOM     25  C   UNL     1      -0.669   0.307   3.333  0.00  0.00    +0.263 A 
ATOM     26  O   UNL     1      -1.833  -0.001   3.147  0.00  0.00    -0.267 OA
ATOM     27  C   UNL     1      -0.462  -1.017   5.569  0.00  0.00    -0.023 A 
ATOM     28  C   UNL     1       0.406  -1.321   6.557  0.00  0.00    -0.004 A 
ATOM     29  S   UNL     1       1.912  -0.497   6.115  0.00  0.00    -0.073 S 
ATOM     30  C   UNL     1       0.147  -2.169   7.764  0.00  0.00    +0.043 C 
ATOM     31  C   UNL     1      -1.371  -2.348   7.913  0.00  0.00    +0.005 C 
ATOM     32  C   UNL     1      -1.954  -2.743   6.553  0.00  0.00    +0.005 C 
ATOM     33  C   UNL     1      -1.891  -1.553   5.595  0.00  0.00    +0.037 C 
ENDBRANCH  18  20
ENDBRANCH   2  18
TORSDOF 7
