REMARK  Name = ZINC12483673
REMARK  11 active torsions:
REMARK  status: ('A' for Active; 'I' for Inactive)
REMARK    1  A    between atoms: C_1  and  C_2
REMARK    2  A    between atoms: C_7  and  C_8
REMARK    3  A    between atoms: C_8  and  C_10
REMARK    4  A    between atoms: C_8  and  N_20
REMARK    5  A    between atoms: N_12  and  C_13
REMARK    6  A    between atoms: C_13  and  C_14
REMARK    7  A    between atoms: N_20  and  C_21
REMARK    8  A    between atoms: C_26  and  C_27
REMARK    9  A    between atoms: C_27  and  C_29
REMARK   10  A    between atoms: C_30  and  C_32
REMARK   11  A    between atoms: C_32  and  N_33
REMARK                            x       y       z     vdW  Elec       q    Type
REMARK                         _______ _______ _______ _____ _____    ______ ____
ROOT
ATOM      1  N   UNL     1      -0.484   0.944  -4.630  0.00  0.00    -0.253 N 
ATOM      2  C   UNL     1      -1.259  -0.026  -5.155  0.00  0.00    +0.242 C 
ATOM      3  O   UNL     1      -2.327  -0.291  -4.646  0.00  0.00    -0.273 OA
ENDROOT
BRANCH   1   4
ATOM      4  C   UNL     1       0.741   1.248  -5.214  0.00  0.00    +0.048 A 
ATOM      5  C   UNL     1       1.894   0.595  -4.799  0.00  0.00    +0.024 A 
ATOM      6  C   UNL     1       3.108   0.894  -5.383  0.00  0.00    +0.002 A 
ATOM      7  C   UNL     1       3.191   1.854  -6.379  0.00  0.00    +0.001 A 
ATOM      8  C   UNL     1       2.061   2.518  -6.802  0.00  0.00    +0.013 A 
ATOM      9  C   UNL     1       0.821   2.223  -6.223  0.00  0.00    +0.039 A 
BRANCH   9  10
ATOM     10  C   UNL     1      -0.388   2.927  -6.668  0.00  0.00    +0.162 C 
ATOM     11  O   UNL     1      -1.465   2.645  -6.186  0.00  0.00    -0.292 OA
ATOM     12  C   UNL     1      -0.291   3.999  -7.722  0.00  0.00    +0.091 C 
ENDBRANCH   9  10
ENDBRANCH   1   4
BRANCH   1  13
ATOM     13  C   UNL     1      -0.933   1.678  -3.444  0.00  0.00    +0.197 C 
BRANCH  13  20
ATOM     14  C   UNL     1      -3.375   3.215  -3.583  0.00  0.00    +0.044 C 
ATOM     15  C   UNL     1      -2.045   3.894  -3.786  0.00  0.00    -0.045 A 
ATOM     16  C   UNL     1      -1.994   5.253  -4.037  0.00  0.00    +0.004 A 
ATOM     17  C   UNL     1      -0.774   5.875  -4.222  0.00  0.00    +0.000 A 
ATOM     18  C   UNL     1       0.395   5.140  -4.155  0.00  0.00    +0.000 A 
ATOM     19  C   UNL     1       0.344   3.783  -3.898  0.00  0.00    +0.006 A 
ATOM     20  C   UNL     1      -0.877   3.159  -3.719  0.00  0.00    -0.015 A 
ENDBRANCH  13  20
BRANCH  13  21
ATOM     21  C   UNL     1      -0.035   1.349  -2.280  0.00  0.00    +0.239 C 
ATOM     22  O   UNL     1       0.938   0.644  -2.445  0.00  0.00    -0.273 OA
ATOM     23  N   UNL     1      -0.312   1.838  -1.055  0.00  0.00    -0.311 N 
ATOM     24  H   UNL     1      -1.047   2.460  -0.936  0.00  0.00    +0.149 HD
BRANCH  23  25
ATOM     25  C   UNL     1       0.496   1.431   0.097  0.00  0.00    +0.135 C 
BRANCH  25  26
ATOM     26  C   UNL     1      -0.026   2.125   1.357  0.00  0.00    +0.135 C 
ATOM     27  C   UNL     1       0.818   1.703   2.575  0.00  0.00    +0.035 C 
ATOM     28  C   UNL     1       1.383   3.035   3.126  0.00  0.00    +0.031 C 
ATOM     29  C   UNL     1       0.399   4.075   2.532  0.00  0.00    +0.160 C 
ATOM     30  O   UNL     1       0.106   3.550   1.220  0.00  0.00    -0.375 OA
ENDBRANCH  25  26
ENDBRANCH  23  25
ENDBRANCH  13  21
ENDBRANCH   1  13
BRANCH   2  31
ATOM     31  C   UNL     1      -0.797  -0.781  -6.374  0.00  0.00    +0.242 C 
BRANCH  31  32
ATOM     32  N   UNL     1      -1.808  -1.774  -6.745  0.00  0.00    -0.235 N 
ATOM     33  C   UNL     1      -1.881  -3.077  -6.312  0.00  0.00    +0.090 A 
ATOM     34  C   UNL     1      -1.109  -3.854  -5.455  0.00  0.00    +0.029 A 
ATOM     35  C   UNL     1      -1.454  -5.155  -5.221  0.00  0.00    +0.002 A 
ATOM     36  C   UNL     1      -2.571  -5.711  -5.833  0.00  0.00    +0.002 A 
ATOM     37  C   UNL     1      -3.349  -4.967  -6.672  0.00  0.00    +0.032 A 
ATOM     38  C   UNL     1      -3.013  -3.632  -6.931  0.00  0.00    +0.113 A 
ATOM     39  N   UNL     1      -3.567  -2.676  -7.704  0.00  0.00    -0.129 NA
ATOM     40  N   UNL     1      -2.890  -1.585  -7.618  0.00  0.00    -0.064 NA
ENDBRANCH  31  32
ENDBRANCH   2  31
TORSDOF 9
