REMARK  Name = ZINC12636387
REMARK  14 active torsions:
REMARK  status: ('A' for Active; 'I' for Inactive)
REMARK    1  A    between atoms: C_1  and  C_2
REMARK    2  A    between atoms: C_5  and  O_8
REMARK    3  A    between atoms: O_8  and  C_9
REMARK    4  A    between atoms: C_9  and  C_10
REMARK    5  A    between atoms: C_10  and  N_11
REMARK    6  A    between atoms: C_15  and  C_42
REMARK    7  A    between atoms: N_19  and  O_20
REMARK    8  A    between atoms: O_20  and  C_21
REMARK    9  A    between atoms: C_23  and  N_36
REMARK   10  A    between atoms: C_25  and  O_35
REMARK   11  A    between atoms: C_27  and  O_34
REMARK   12  A    between atoms: C_29  and  C_32
REMARK   13  A    between atoms: C_32  and  O_33
REMARK   14  A    between atoms: C_37  and  C_39
REMARK                            x       y       z     vdW  Elec       q    Type
REMARK                         _______ _______ _______ _____ _____    ______ ____
ROOT
ATOM      1  N   UNL     1       1.289   1.878  -0.000  0.00  0.00    -0.262 N 
ATOM      2  C   UNL     1      -0.017   1.396   0.010  0.00  0.00    +0.046 A 
ATOM      3  C   UNL     1      -1.242   2.054   0.030  0.00  0.00    +0.024 A 
ATOM      4  C   UNL     1      -2.417   1.331   0.034  0.00  0.00    +0.005 A 
ATOM      5  C   UNL     1      -2.394  -0.053   0.025  0.00  0.00    -0.050 A 
ATOM      6  C   UNL     1      -1.187  -0.724   0.010  0.00  0.00    +0.015 A 
ATOM      7  C   UNL     1       0.002  -0.004   0.002  0.00  0.00    +0.030 A 
ATOM      8  C   UNL     1       1.429  -0.404  -0.014  0.00  0.00    +0.174 C 
ATOM      9  N   UNL     1       1.915  -1.613  -0.025  0.00  0.00    -0.076 NA
ATOM     10  C   UNL     1       2.184   0.875  -0.014  0.00  0.00    +0.273 C 
ATOM     11  O   UNL     1       3.393   0.995  -0.026  0.00  0.00    -0.268 OA
ATOM     12  C   UNL     1      -3.686  -0.828   0.034  0.00  0.00    +0.044 C 
ENDROOT
BRANCH   1  13
ATOM     13  C   UNL     1       1.643   3.299   0.004  0.00  0.00    +0.155 C 
BRANCH  13  14
ATOM     14  C   UNL     1       1.780   3.787   1.447  0.00  0.00    +0.248 C 
BRANCH  14  15
ATOM     15  O   UNL     1       2.879   3.122   2.073  0.00  0.00    -0.490 OA
BRANCH  15  20
ATOM     16  C   UNL     1       3.958   4.454   7.438  0.00  0.00    +0.044 C 
ATOM     17  C   UNL     1       3.669   4.097   6.002  0.00  0.00    -0.050 A 
ATOM     18  C   UNL     1       4.455   3.164   5.352  0.00  0.00    +0.007 A 
ATOM     19  C   UNL     1       4.192   2.835   4.036  0.00  0.00    +0.046 A 
ATOM     20  C   UNL     1       3.139   3.443   3.367  0.00  0.00    +0.121 A 
ATOM     21  C   UNL     1       2.356   4.384   4.021  0.00  0.00    +0.046 A 
ATOM     22  C   UNL     1       2.620   4.705   5.338  0.00  0.00    +0.007 A 
ENDBRANCH  15  20
ENDBRANCH  14  15
ENDBRANCH  13  14
ENDBRANCH   1  13
BRANCH   9  23
ATOM     23  O   UNL     1       1.042  -2.727  -0.024  0.00  0.00    -0.359 OA
BRANCH  23  24
ATOM     24  C   UNL     1       1.711  -3.990  -0.038  0.00  0.00    +0.360 C 
ATOM     25  C   UNL     1       0.838  -5.022  -0.756  0.00  0.00    +0.175 C 
ATOM     26  C   UNL     1      -0.472  -5.198   0.018  0.00  0.00    +0.172 C 
ATOM     27  C   UNL     1      -0.151  -5.610   1.458  0.00  0.00    +0.176 C 
ATOM     28  C   UNL     1       0.760  -4.555   2.090  0.00  0.00    +0.179 C 
ATOM     29  O   UNL     1       1.946  -4.419   1.305  0.00  0.00    -0.330 OA
BRANCH  25  30
ATOM     30  N   UNL     1       0.545  -4.556  -2.114  0.00  0.00    -0.304 N 
ATOM     31  C   UNL     1       1.420  -4.794  -3.111  0.00  0.00    +0.210 C 
ATOM     32  O   UNL     1       2.450  -5.394  -2.884  0.00  0.00    -0.276 OA
ATOM     33  C   UNL     1       1.120  -4.314  -4.508  0.00  0.00    +0.109 C 
ATOM     34  H   UNL     1      -0.278  -4.076  -2.295  0.00  0.00    +0.149 HD
ENDBRANCH  25  30
BRANCH  27  35
ATOM     35  O   UNL     1       0.513  -6.876   1.455  0.00  0.00    -0.387 OA
ATOM     36  H   UNL     1       0.752  -7.196   2.336  0.00  0.00    +0.210 HD
ENDBRANCH  27  35
BRANCH  26  37
ATOM     37  O   UNL     1      -1.264  -6.213  -0.604  0.00  0.00    -0.387 OA
ATOM     38  H   UNL     1      -2.107  -6.380  -0.161  0.00  0.00    +0.210 HD
ENDBRANCH  26  37
BRANCH  28  39
ATOM     39  C   UNL     1       1.135  -4.990   3.509  0.00  0.00    +0.190 C 
BRANCH  39  40
ATOM     40  O   UNL     1       1.890  -3.953   4.140  0.00  0.00    -0.392 OA
ATOM     41  H   UNL     1       2.162  -4.161   5.045  0.00  0.00    +0.210 HD
ENDBRANCH  39  40
ENDBRANCH  28  39
ENDBRANCH  23  24
ENDBRANCH   9  23
TORSDOF 11
