REMARK  Name = ZINC63426648
REMARK  10 active torsions:
REMARK  status: ('A' for Active; 'I' for Inactive)
REMARK    1  A    between atoms: C_1  and  C_2
REMARK    2  A    between atoms: C_6  and  N_9
REMARK    3  A    between atoms: C_7  and  C_8
REMARK    4  A    between atoms: N_12  and  C_15
REMARK    5  A    between atoms: C_15  and  C_17
REMARK    6  A    between atoms: C_15  and  C_18
REMARK    7  A    between atoms: N_20  and  C_21
REMARK    8  A    between atoms: C_29  and  C_31
REMARK    9  A    between atoms: C_31  and  O_33
REMARK   10  A    between atoms: O_33  and  C_34
REMARK                            x       y       z     vdW  Elec       q    Type
REMARK                         _______ _______ _______ _____ _____    ______ ____
ROOT
ATOM      1  C   UNL     1       1.341  -3.085   8.007  0.00  0.00    +0.234 C 
ATOM      2  O   UNL     1       1.719  -3.820   7.120  0.00  0.00    -0.274 OA
ATOM      3  N   UNL     1       1.900  -3.165   9.231  0.00  0.00    -0.285 N 
ATOM      4  H   UNL     1       1.549  -2.629   9.960  0.00  0.00    +0.155 HD
ENDROOT
BRANCH   3   5
ATOM      5  C   UNL     1       2.957  -3.998   9.445  0.00  0.00    +0.053 C 
ATOM      6  C   UNL     1       3.568  -4.277  10.655  0.00  0.00    +0.019 A 
ATOM      7  C   UNL     1       3.324  -3.829  11.975  0.00  0.00    +0.031 A 
ATOM      8  C   UNL     1       4.100  -4.280  12.992  0.00  0.00    +0.042 A 
ATOM      9  C   UNL     1       5.144  -5.183  12.773  0.00  0.00    +0.022 A 
ATOM     10  C   UNL     1       5.436  -5.654  11.536  0.00  0.00    +0.027 A 
ATOM     11  C   UNL     1       4.668  -5.229  10.420  0.00  0.00    +0.045 A 
ATOM     12  N   UNL     1       4.748  -5.534   9.140  0.00  0.00    -0.367 N 
ATOM     13  C   UNL     1       3.700  -4.813   8.410  0.00  0.00    +0.234 C 
ATOM     14 CL   UNL     1       3.788  -3.721  14.606  0.00  0.00    -0.084 Cl
ATOM     15  H   UNL     1       5.394  -6.140   8.745  0.00  0.00    +0.161 HD
BRANCH  13  16
ATOM     16  C   UNL     1       4.321  -3.903   7.381  0.00  0.00    +0.335 C 
ATOM     17  O   UNL     1       5.393  -3.389   7.598  0.00  0.00    -0.248 OA
BRANCH  16  18
ATOM     18  O   UNL     1       3.683  -3.664   6.225  0.00  0.00    -0.466 OA
ATOM     19  C   UNL     1       4.330  -2.792   5.295  0.00  0.00    +0.280 C 
ENDBRANCH  16  18
ENDBRANCH  13  16
ENDBRANCH   3   5
BRANCH   1  20
ATOM     20  C   UNL     1       0.247  -2.083   7.742  0.00  0.00    +0.140 C 
ATOM     21  C   UNL     1      -1.077  -2.616   8.294  0.00  0.00    +0.034 C 
BRANCH  20  25
ATOM     22  N   UNL     1      -1.050  -1.547   3.787  0.00  0.00    -0.327 N 
ATOM     23  C   UNL     1      -0.438  -2.842   4.119  0.00  0.00    +0.120 C 
ATOM     24  C   UNL     1      -0.490  -3.030   5.639  0.00  0.00    +0.104 C 
ATOM     25  N   UNL     1       0.122  -1.867   6.295  0.00  0.00    -0.289 NA
ATOM     26  C   UNL     1      -0.630  -0.637   6.010  0.00  0.00    +0.104 C 
ATOM     27  C   UNL     1      -0.579  -0.350   4.500  0.00  0.00    +0.120 C 
BRANCH  22  33
ATOM     28  C   UNL     1      -5.820  -1.630   2.605  0.00  0.00    +0.044 C 
ATOM     29  C   UNL     1      -4.371  -1.491   2.214  0.00  0.00    -0.046 A 
ATOM     30  C   UNL     1      -4.030  -1.272   0.892  0.00  0.00    +0.004 A 
ATOM     31  C   UNL     1      -2.702  -1.144   0.529  0.00  0.00    +0.002 A 
ATOM     32  C   UNL     1      -1.711  -1.235   1.487  0.00  0.00    +0.023 A 
ATOM     33  C   UNL     1      -2.050  -1.454   2.816  0.00  0.00    +0.033 A 
ATOM     34  C   UNL     1      -3.386  -1.577   3.178  0.00  0.00    -0.027 A 
ATOM     35  C   UNL     1      -3.759  -1.810   4.619  0.00  0.00    +0.046 C 
ENDBRANCH  22  33
ENDBRANCH  20  25
ENDBRANCH   1  20
TORSDOF 6
