REMARK  Name = ZINC37120235
REMARK  6 active torsions:
REMARK  status: ('A' for Active; 'I' for Inactive)
REMARK    1  A    between atoms: C_1  and  C_2
REMARK    2  A    between atoms: C_3  and  N_12
REMARK    3  A    between atoms: C_5  and  C_9
REMARK    4  A    between atoms: N_12  and  C_13
REMARK    5  A    between atoms: C_13  and  C_15
REMARK    6  A    between atoms: C_13  and  C_16
REMARK                            x       y       z     vdW  Elec       q    Type
REMARK                         _______ _______ _______ _____ _____    ______ ____
ROOT
ATOM      1  C   UNL     1       0.768   1.200   0.097  0.00  0.00    +0.048 C 
ATOM      2  C   UNL     1       0.676  -0.299  -0.017  0.00  0.00    +0.006 A 
ATOM      3  C   UNL     1       0.425  -0.887  -1.251  0.00  0.00    +0.034 A 
ATOM      4  C   UNL     1       0.339  -2.267  -1.358  0.00  0.00    +0.036 A 
ATOM      5  C   UNL     1       0.506  -3.062  -0.224  0.00  0.00    +0.041 A 
ATOM      6  C   UNL     1       0.757  -2.465   1.012  0.00  0.00    +0.051 A 
ATOM      7  C   UNL     1       0.847  -1.088   1.108  0.00  0.00    +0.129 A 
ATOM      8  F   UNL     1       1.096  -0.511   2.304  0.00  0.00    -0.205 F 
ENDROOT
BRANCH   5   9
ATOM      9  C   UNL     1       0.415  -4.534  -0.331  0.00  0.00    +0.242 C 
ATOM     10  O   UNL     1       0.196  -5.053  -1.409  0.00  0.00    -0.270 OA
ATOM     11  N   UNL     1       0.577  -5.301   0.765  0.00  0.00    -0.325 N 
ATOM     12  H   UNL     1       0.752  -4.887   1.625  0.00  0.00    +0.145 HD
ATOM     13  H   UNL     1       0.517  -6.266   0.695  0.00  0.00    +0.145 HD
ENDBRANCH   5   9
BRANCH   3  14
ATOM     14  N   UNL     1       0.258  -0.087  -2.384  0.00  0.00    -0.337 N 
ATOM     15  H   UNL     1       0.318   0.878  -2.309  0.00  0.00    +0.147 HD
BRANCH  14  16
ATOM     16  C   UNL     1      -0.006  -0.706  -3.685  0.00  0.00    +0.099 C 
ATOM     17  C   UNL     1      -1.508  -0.957  -3.835  0.00  0.00    +0.033 C 
BRANCH  16  18
ATOM     18  C   UNL     1       0.462   0.214  -4.784  0.00  0.00    -0.014 A 
ATOM     19  C   UNL     1       0.507   1.579  -4.569  0.00  0.00    +0.006 A 
ATOM     20  C   UNL     1       0.937   2.422  -5.577  0.00  0.00    +0.000 A 
ATOM     21  C   UNL     1       1.321   1.902  -6.798  0.00  0.00    +0.001 A 
ATOM     22  C   UNL     1       1.276   0.537  -7.013  0.00  0.00    +0.015 A 
ATOM     23  C   UNL     1       0.851  -0.308  -6.004  0.00  0.00    +0.023 A 
ATOM     24 BR   UNL     1       0.795  -2.176  -6.295  0.00  0.00    -0.050 Br
ENDBRANCH  16  18
ENDBRANCH  14  16
ENDBRANCH   3  14
TORSDOF 4
