REMARK  Name = ZINC61639244
REMARK  4 active torsions:
REMARK  status: ('A' for Active; 'I' for Inactive)
REMARK    1  A    between atoms: C_3  and  N_18
REMARK    2  A    between atoms: C_5  and  C_8
REMARK    3  A    between atoms: C_8  and  N_9
REMARK    4  A    between atoms: N_18  and  N_19
REMARK                            x       y       z     vdW  Elec       q    Type
REMARK                         _______ _______ _______ _____ _____    ______ ____
ROOT
ATOM      1  C   UNL     1       2.075   1.505  -0.193  0.00  0.00    +0.025 A 
ATOM      2  C   UNL     1       0.819   2.040   0.033  0.00  0.00    +0.046 A 
ATOM      3  C   UNL     1      -0.256   1.181   0.234  0.00  0.00    +0.132 A 
ATOM      4  N   UNL     1      -0.084  -0.131   0.210  0.00  0.00    -0.233 NA
ATOM      5  C   UNL     1       1.101  -0.670  -0.004  0.00  0.00    +0.079 A 
ATOM      6  C   UNL     1       2.213   0.123  -0.211  0.00  0.00    +0.064 A 
ATOM      7 CL   UNL     1       3.766  -0.600  -0.491  0.00  0.00    -0.082 Cl
ENDROOT
BRANCH   3   8
ATOM      8  N   UNL     1      -1.524   1.706   0.463  0.00  0.00    -0.268 N 
ATOM      9  H   UNL     1      -1.655   2.667   0.482  0.00  0.00    +0.167 HD
BRANCH   8  10
ATOM     10  N   UNL     1      -2.584   0.868   0.661  0.00  0.00    -0.255 NA
ATOM     11  H   UNL     1      -2.407   0.235   1.426  0.00  0.00    +0.140 HD
ATOM     12  H   UNL     1      -3.434   1.390   0.814  0.00  0.00    +0.140 HD
ENDBRANCH   8  10
ENDBRANCH   3   8
BRANCH   5  13
ATOM     13  C   UNL     1       1.244  -2.171  -0.021  0.00  0.00    +0.164 C 
BRANCH  13  14
ATOM     14  N   UNL     1       1.386  -2.664   1.351  0.00  0.00    -0.296 N 
ATOM     15  C   UNL     1       2.764  -2.706   1.769  0.00  0.00    +0.108 C 
ATOM     16  C   UNL     1       2.937  -3.208   3.209  0.00  0.00    +0.019 C 
ATOM     17  C   UNL     1       2.843  -4.731   3.229  0.00  0.00    +0.002 C 
ATOM     18  C   UNL     1       1.816  -5.268   2.249  0.00  0.00    +0.001 C 
ATOM     19  C   UNL     1       0.463  -5.176   2.945  0.00  0.00    +0.009 C 
ATOM     20  C   UNL     1       0.130  -3.699   3.215  0.00  0.00    +0.096 C 
ATOM     21  C   UNL     1       0.214  -2.955   1.899  0.00  0.00    +0.216 C 
ATOM     22  O   UNL     1      -0.807  -2.625   1.333  0.00  0.00    -0.276 OA
ENDBRANCH  13  14
ENDBRANCH   5  13
TORSDOF 4
