REMARK  Name = ZINC13123589
REMARK  5 active torsions:
REMARK  status: ('A' for Active; 'I' for Inactive)
REMARK    1  A    between atoms: C_4  and  O_25
REMARK    2  A    between atoms: C_5  and  C_7
REMARK    3  A    between atoms: C_9  and  C_12
REMARK    4  A    between atoms: N_14  and  C_15
REMARK    5  A    between atoms: C_20  and  C_21
REMARK                            x       y       z     vdW  Elec       q    Type
REMARK                         _______ _______ _______ _____ _____    ______ ____
ROOT
ATOM      1  C   UNL     1       0.334  -5.528   1.136  0.00  0.00    +0.270 C 
ATOM      2  O   UNL     1      -0.445  -5.423   2.063  0.00  0.00    -0.268 OA
ATOM      3  N   UNL     1       0.705  -6.749   0.703  0.00  0.00    -0.280 N 
ATOM      4  H   UNL     1       1.262  -6.835  -0.086  0.00  0.00    +0.155 HD
ENDROOT
BRANCH   3   5
ATOM      5  C   UNL     1       0.286  -7.892   1.390  0.00  0.00    +0.045 A 
ATOM      6  C   UNL     1      -0.045  -7.812   2.737  0.00  0.00    +0.024 A 
ATOM      7  C   UNL     1      -0.459  -8.943   3.413  0.00  0.00    +0.002 A 
ATOM      8  C   UNL     1      -0.544 -10.154   2.751  0.00  0.00    +0.001 A 
ATOM      9  C   UNL     1      -0.215 -10.237   1.410  0.00  0.00    +0.014 A 
ATOM     10  C   UNL     1       0.194  -9.109   0.727  0.00  0.00    +0.076 A 
BRANCH  10  11
ATOM     11  C   UNL     1       0.546  -9.199  -0.736  0.00  0.00    +0.419 C 
ATOM     12  F   UNL     1       0.377 -10.516  -1.176  0.00  0.00    -0.166 F 
ATOM     13  F   UNL     1      -0.290  -8.350  -1.470  0.00  0.00    -0.166 F 
ATOM     14  F   UNL     1       1.879  -8.814  -0.919  0.00  0.00    -0.166 F 
ENDBRANCH  10  11
ENDBRANCH   3   5
BRANCH   1  17
ATOM     15  C   UNL     1       1.272  -2.160  -0.003  0.00  0.00    +0.171 A 
ATOM     16  C   UNL     1       0.576  -2.978   0.831  0.00  0.00    +0.086 A 
ATOM     17  C   UNL     1       0.876  -4.312   0.482  0.00  0.00    +0.168 A 
ATOM     18  N   UNL     1       1.720  -4.288  -0.522  0.00  0.00    -0.073 NA
ATOM     19  O   UNL     1       1.979  -2.935  -0.847  0.00  0.00    -0.354 OA
BRANCH  15  24
ATOM     20  C   UNL     1       0.022   1.380   0.033  0.00  0.00    +0.001 A 
ATOM     21  C   UNL     1       1.212   2.089   0.035  0.00  0.00    +0.004 A 
ATOM     22  C   UNL     1       2.422   1.423   0.024  0.00  0.00    +0.046 A 
ATOM     23  C   UNL     1       2.452   0.037   0.012  0.00  0.00    +0.128 A 
ATOM     24  C   UNL     1       1.252  -0.683   0.010  0.00  0.00    +0.061 A 
ATOM     25  C   UNL     1       0.035   0.001   0.021  0.00  0.00    +0.015 A 
BRANCH  23  26
ATOM     26  O   UNL     1       3.641  -0.619   0.001  0.00  0.00    -0.506 OA
ATOM     27  H   UNL     1       3.989  -0.816   0.881  0.00  0.00    +0.292 HD
ENDBRANCH  23  26
ENDBRANCH  15  24
ENDBRANCH   1  17
TORSDOF 5
