REMARK  Name = ZINC02652415
REMARK  9 active torsions:
REMARK  status: ('A' for Active; 'I' for Inactive)
REMARK    1  A    between atoms: C_1  and  C_2
REMARK    2  A    between atoms: C_2  and  O_3
REMARK    3  A    between atoms: O_3  and  C_4
REMARK    4  A    between atoms: C_4  and  C_6
REMARK    5  A    between atoms: C_7  and  C_29
REMARK    6  A    between atoms: C_10  and  N_11
REMARK    7  A    between atoms: C_12  and  C_14
REMARK    8  A    between atoms: C_14  and  N_15
REMARK    9  A    between atoms: C_23  and  C_25
REMARK                            x       y       z     vdW  Elec       q    Type
REMARK                         _______ _______ _______ _____ _____    ______ ____
ROOT
ATOM      1  N   UNL     1       3.745  -2.429   1.400  0.00  0.00    -0.278 N 
ATOM      2  C   UNL     1       5.047  -2.740   1.552  0.00  0.00    +0.236 C 
ATOM      3  O   UNL     1       5.442  -3.197   2.604  0.00  0.00    -0.274 OA
ATOM      4  H   UNL     1       3.429  -2.063   0.559  0.00  0.00    +0.155 HD
ENDROOT
BRANCH   1   9
ATOM      5  C   UNL     1       1.496  -2.370   2.466  0.00  0.00    +0.095 A 
ATOM      6  C   UNL     1       0.794  -2.684   3.698  0.00  0.00    +0.005 A 
ATOM      7  C   UNL     1       1.563  -3.194   4.694  0.00  0.00    +0.056 A 
ATOM      8  S   UNL     1       3.188  -3.244   3.971  0.00  0.00    -0.080 S 
ATOM      9  C   UNL     1       2.857  -2.631   2.445  0.00  0.00    +0.086 A 
BRANCH   6  10
ATOM     10  C   UNL     1      -0.663  -2.461   3.857  0.00  0.00    -0.016 A 
ATOM     11  C   UNL     1      -1.225  -1.233   3.513  0.00  0.00    +0.011 A 
ATOM     12  C   UNL     1      -2.581  -1.030   3.664  0.00  0.00    +0.039 A 
ATOM     13  C   UNL     1      -3.385  -2.046   4.157  0.00  0.00    +0.123 A 
ATOM     14  C   UNL     1      -2.832  -3.268   4.500  0.00  0.00    +0.039 A 
ATOM     15  C   UNL     1      -1.477  -3.482   4.347  0.00  0.00    +0.011 A 
ATOM     16  F   UNL     1      -4.713  -1.842   4.303  0.00  0.00    -0.205 F 
ENDBRANCH   6  10
BRANCH   5  17
ATOM     17  C   UNL     1       0.801  -1.814   1.305  0.00  0.00    +0.342 C 
ATOM     18  O   UNL     1       0.321  -2.557   0.470  0.00  0.00    -0.245 OA
BRANCH  17  19
ATOM     19  O   UNL     1       0.693  -0.477   1.160  0.00  0.00    -0.461 OA
BRANCH  19  21
ATOM     20  C   UNL     1      -0.019   1.526   0.010  0.00  0.00    +0.048 C 
ATOM     21  C   UNL     1       0.002  -0.004   0.002  0.00  0.00    +0.229 C 
ENDBRANCH  19  21
ENDBRANCH  17  19
ENDBRANCH   5  17
ENDBRANCH   1   9
BRANCH   2  22
ATOM     22  C   UNL     1       6.012  -2.520   0.416  0.00  0.00    +0.214 C 
BRANCH  22  23
ATOM     23  N   UNL     1       7.356  -2.933   0.830  0.00  0.00    -0.215 N 
ATOM     24  C   UNL     1       8.252  -2.117   1.421  0.00  0.00    +0.247 C 
ATOM     25  O   UNL     1       8.106  -0.946   1.701  0.00  0.00    -0.273 OA
ATOM     26  C   UNL     1       9.477  -2.969   1.661  0.00  0.00    +0.115 C 
ATOM     27  C   UNL     1      10.673  -2.407   0.901  0.00  0.00    +0.035 C 
ATOM     28  C   UNL     1      11.894  -3.301   1.133  0.00  0.00    +0.003 C 
ATOM     29  C   UNL     1      12.203  -3.361   2.631  0.00  0.00    +0.000 C 
ATOM     30  C   UNL     1      11.003  -3.948   3.377  0.00  0.00    +0.006 C 
ATOM     31  C   UNL     1       9.779  -3.057   3.153  0.00  0.00    +0.018 C 
ATOM     32  C   UNL     1       8.574  -3.655   3.883  0.00  0.00    +0.010 C 
ATOM     33  N   UNL     1       9.104  -4.287   1.133  0.00  0.00    -0.285 N 
ATOM     34  C   UNL     1       7.843  -4.170   0.672  0.00  0.00    +0.310 C 
ATOM     35  O   UNL     1       7.221  -5.083   0.168  0.00  0.00    -0.252 OA
ATOM     36  H   UNL     1       9.655  -5.085   1.121  0.00  0.00    +0.151 HD
ENDBRANCH  22  23
ENDBRANCH   2  22
TORSDOF 7
