REMARK  Name = ZINC41005941
REMARK  8 active torsions:
REMARK  status: ('A' for Active; 'I' for Inactive)
REMARK    1  A    between atoms: C_1  and  C_2
REMARK    2  A    between atoms: C_5  and  C_8
REMARK    3  A    between atoms: C_17  and  C_19
REMARK    4  A    between atoms: C_19  and  C_21
REMARK    5  A    between atoms: C_19  and  O_22
REMARK    6  A    between atoms: O_22  and  C_23
REMARK    7  A    between atoms: C_25  and  C_31
REMARK    8  A    between atoms: C_27  and  C_29
REMARK                            x       y       z     vdW  Elec       q    Type
REMARK                         _______ _______ _______ _____ _____    ______ ____
ROOT
ATOM      1  C   UNL     1      -0.444  -4.794  -0.204  0.00  0.00    +0.186 A 
ATOM      2  N   UNL     1      -0.526  -5.622  -1.221  0.00  0.00    -0.126 NA
ATOM      3  N   UNL     1      -0.213  -6.812  -0.842  0.00  0.00    -0.120 NA
ATOM      4  C   UNL     1       0.082  -6.802   0.425  0.00  0.00    +0.220 A 
ATOM      5  N   UNL     1      -0.040  -5.523   0.904  0.00  0.00    -0.184 N 
ATOM      6  N   UNL     1       0.247  -5.334   2.250  0.00  0.00    -0.140 NA
ATOM      7  C   UNL     1       0.616  -6.330   3.010  0.00  0.00    +0.188 A 
ATOM      8  S   UNL     1       0.590  -7.703   1.868  0.00  0.00    -0.011 S 
ATOM      9  N   UNL     1       0.940  -6.324   4.361  0.00  0.00    -0.260 N 
ATOM     10  C   UNL     1       1.302  -7.469   4.973  0.00  0.00    +0.259 C 
ATOM     11  O   UNL     1       1.345  -8.505   4.343  0.00  0.00    -0.271 OA
ATOM     12  H   UNL     1       0.905  -5.495   4.864  0.00  0.00    +0.157 HD
ENDROOT
BRANCH   1  17
ATOM     13  C   UNL     1      -1.541   0.853  -0.334  0.00  0.00    +0.044 C 
ATOM     14  C   UNL     1      -1.253  -0.626  -0.300  0.00  0.00    -0.050 A 
ATOM     15  C   UNL     1      -1.081  -1.321  -1.484  0.00  0.00    +0.004 A 
ATOM     16  C   UNL     1      -0.818  -2.675  -1.460  0.00  0.00    +0.012 A 
ATOM     17  C   UNL     1      -0.725  -3.344  -0.238  0.00  0.00    +0.021 A 
ATOM     18  C   UNL     1      -0.900  -2.636   0.953  0.00  0.00    +0.012 A 
ATOM     19  C   UNL     1      -1.157  -1.281   0.915  0.00  0.00    +0.004 A 
ENDBRANCH   1  17
BRANCH  10  20
ATOM     20  C   UNL     1       1.653  -7.462   6.438  0.00  0.00    +0.256 C 
ATOM     21  C   UNL     1       2.915  -6.625   6.656  0.00  0.00    +0.062 C 
BRANCH  20  22
ATOM     22  O   UNL     1       1.887  -8.801   6.878  0.00  0.00    -0.480 OA
BRANCH  22  23
ATOM     23  C   UNL     1       1.704  -9.057   8.200  0.00  0.00    +0.122 A 
ATOM     24  C   UNL     1       1.413  -8.021   9.075  0.00  0.00    +0.050 A 
ATOM     25  C   UNL     1       1.228  -8.283  10.418  0.00  0.00    -0.028 A 
ATOM     26  C   UNL     1       1.333  -9.579  10.892  0.00  0.00    +0.047 A 
ATOM     27  C   UNL     1       1.624 -10.614  10.021  0.00  0.00    -0.028 A 
ATOM     28  C   UNL     1       1.804 -10.357   8.676  0.00  0.00    +0.050 A 
ATOM     29  C   UNL     1       1.738 -12.024  10.540  0.00  0.00    +0.045 C 
ATOM     30 CL   UNL     1       1.100  -9.906  12.581  0.00  0.00    -0.083 Cl
ATOM     31  C   UNL     1       0.911  -7.157  11.369  0.00  0.00    +0.045 C 
ENDBRANCH  22  23
ENDBRANCH  20  22
ENDBRANCH  10  20
TORSDOF 4
