REMARK  Name = ZINC05198517
REMARK  9 active torsions:
REMARK  status: ('A' for Active; 'I' for Inactive)
REMARK    1  A    between atoms: C_1  and  C_2
REMARK    2  A    between atoms: C_2  and  O_3
REMARK    3  A    between atoms: O_3  and  C_4
REMARK    4  A    between atoms: C_4  and  C_6
REMARK    5  A    between atoms: C_7  and  C_26
REMARK    6  A    between atoms: C_15  and  C_16
REMARK    7  A    between atoms: C_16  and  S_17
REMARK    8  A    between atoms: S_17  and  C_18
REMARK    9  A    between atoms: C_22  and  N_24
REMARK                            x       y       z     vdW  Elec       q    Type
REMARK                         _______ _______ _______ _____ _____    ______ ____
ROOT
ATOM      1  C   UNL     1       2.082   4.270  -1.222  0.00  0.00    +0.085 A 
ATOM      2  C   UNL     1       2.287   5.646  -1.222  0.00  0.00    -0.026 A 
ATOM      3  C   UNL     1       2.399   6.295   0.019  0.00  0.00    +0.004 A 
ATOM      4  C   UNL     1       2.613   7.682   0.099  0.00  0.00    +0.010 A 
ATOM      5  C   UNL     1       2.717   8.278   1.319  0.00  0.00    +0.001 A 
ATOM      6  C   UNL     1       2.615   7.529   2.490  0.00  0.00    +0.002 A 
ATOM      7  C   UNL     1       2.408   6.185   2.449  0.00  0.00    +0.028 A 
ATOM      8  C   UNL     1       2.295   5.532   1.210  0.00  0.00    +0.072 A 
ATOM      9  N   UNL     1       2.091   4.211   1.146  0.00  0.00    -0.250 NA
ATOM     10  C   UNL     1       1.984   3.586   0.002  0.00  0.00    +0.066 A 
ATOM     11  C   UNL     1       2.392   6.416  -2.513  0.00  0.00    +0.045 C 
ENDROOT
BRANCH   1  12
ATOM     12  C   UNL     1       1.962   3.536  -2.497  0.00  0.00    +0.341 C 
ATOM     13  O   UNL     1       0.873   3.393  -3.016  0.00  0.00    -0.245 OA
BRANCH  12  14
ATOM     14  O   UNL     1       3.061   3.024  -3.085  0.00  0.00    -0.461 OA
BRANCH  14  16
ATOM     15  C   UNL     1       4.218   1.809  -4.850  0.00  0.00    +0.048 C 
ATOM     16  C   UNL     1       2.868   2.314  -4.337  0.00  0.00    +0.229 C 
ENDBRANCH  14  16
ENDBRANCH  12  14
ENDBRANCH   1  12
BRANCH  10  17
ATOM     17  C   UNL     1       1.756   2.096  -0.004  0.00  0.00    +0.133 C 
BRANCH  17  18
ATOM     18  S   UNL     1      -0.022   1.758   0.012  0.00  0.00    -0.080 S 
BRANCH  18  19
ATOM     19  C   UNL     1       0.002  -0.004   0.002  0.00  0.00    +0.192 A 
ATOM     20  N   UNL     1       1.168  -0.633  -0.018  0.00  0.00    -0.207 NA
ATOM     21  C   UNL     1       1.224  -1.963  -0.020  0.00  0.00    +0.122 A 
ATOM     22  C   UNL     1       0.038  -2.692  -0.013  0.00  0.00    +0.086 A 
ATOM     23  C   UNL     1      -1.167  -1.996   0.003  0.00  0.00    +0.122 A 
ATOM     24  N   UNL     1      -1.146  -0.665   0.009  0.00  0.00    -0.207 NA
ATOM     25  N   UNL     1       2.448  -2.614  -0.035  0.00  0.00    -0.343 N 
ATOM     26  H   UNL     1       2.482  -3.583  -0.040  0.00  0.00    +0.144 HD
ATOM     27  H   UNL     1       3.271  -2.100  -0.040  0.00  0.00    +0.144 HD
BRANCH  23  28
ATOM     28  N   UNL     1      -2.373  -2.680   0.011  0.00  0.00    -0.343 N 
ATOM     29  H   UNL     1      -3.209  -2.188   0.022  0.00  0.00    +0.144 HD
ATOM     30  H   UNL     1      -2.380  -3.650   0.006  0.00  0.00    +0.144 HD
ENDBRANCH  23  28
ENDBRANCH  18  19
ENDBRANCH  17  18
ENDBRANCH  10  17
TORSDOF 7
