REMARK  Name = ZINC00888343
REMARK  11 active torsions:
REMARK  status: ('A' for Active; 'I' for Inactive)
REMARK    1  A    between atoms: C_1  and  O_2
REMARK    2  A    between atoms: O_2  and  C_3
REMARK    3  A    between atoms: C_6  and  C_9
REMARK    4  A    between atoms: N_12  and  C_14
REMARK    5  A    between atoms: C_14  and  C_15
REMARK    6  A    between atoms: N_17  and  C_18
REMARK    7  A    between atoms: N_17  and  C_24
REMARK    8  A    between atoms: C_18  and  C_19
REMARK    9  A    between atoms: C_24  and  C_26
REMARK   10  A    between atoms: C_24  and  C_31
REMARK   11  A    between atoms: N_33  and  C_34
REMARK                            x       y       z     vdW  Elec       q    Type
REMARK                         _______ _______ _______ _____ _____    ______ ____
ROOT
ATOM      1  C   UNL     1      -1.515  -1.189   0.974  0.00  0.00    +0.240 C 
ATOM      2  O   UNL     1      -0.648  -1.477   1.772  0.00  0.00    -0.273 OA
ATOM      3  N   UNL     1      -1.213  -0.449  -0.111  0.00  0.00    -0.277 N 
ENDROOT
BRANCH   1   4
ATOM      4  C   UNL     1      -2.929  -1.661   1.195  0.00  0.00    +0.264 C 
BRANCH   4   8
ATOM      5  C   UNL     1      -2.958  -4.053   3.789  0.00  0.00    +0.205 A 
ATOM      6  N   UNL     1      -3.222  -2.924   4.462  0.00  0.00    -0.108 NA
ATOM      7  N   UNL     1      -3.237  -1.961   3.603  0.00  0.00    -0.045 NA
ATOM      8  N   UNL     1      -2.996  -2.441   2.433  0.00  0.00    -0.154 N 
ATOM      9  N   UNL     1      -2.827  -3.715   2.521  0.00  0.00    -0.130 NA
BRANCH   5  13
ATOM     10  C   UNL     1      -2.622  -7.966   5.424  0.00  0.00    +0.120 A 
ATOM     11  C   UNL     1      -2.901  -6.889   6.255  0.00  0.00    +0.046 A 
ATOM     12  C   UNL     1      -3.011  -5.620   5.728  0.00  0.00    +0.015 A 
ATOM     13  C   UNL     1      -2.841  -5.418   4.359  0.00  0.00    +0.023 A 
ATOM     14  C   UNL     1      -2.566  -6.501   3.527  0.00  0.00    +0.015 A 
ATOM     15  C   UNL     1      -2.453  -7.768   4.061  0.00  0.00    +0.046 A 
BRANCH  10  17
ATOM     16  C   UNL     1      -2.226 -10.277   5.035  0.00  0.00    +0.277 C 
ATOM     17  O   UNL     1      -2.515  -9.215   5.947  0.00  0.00    -0.495 OA
ENDBRANCH  10  17
ENDBRANCH   5  13
ENDBRANCH   4   8
ENDBRANCH   1   4
BRANCH   3  18
ATOM     18  C   UNL     1      -2.260  -0.102  -1.075  0.00  0.00    +0.151 C 
BRANCH  18  19
ATOM     19  C   UNL     1      -2.250  -1.095  -2.208  0.00  0.00    +0.007 A 
ATOM     20  C   UNL     1      -2.954  -2.245  -2.341  0.00  0.00    +0.013 A 
ATOM     21  C   UNL     1      -2.783  -3.009  -3.481  0.00  0.00    +0.008 A 
ATOM     22  C   UNL     1      -1.915  -2.584  -4.432  0.00  0.00    +0.045 A 
ATOM     23  S   UNL     1      -1.312  -1.059  -3.727  0.00  0.00    -0.100 S 
ENDBRANCH  18  19
ENDBRANCH   3  18
BRANCH   3  24
ATOM     24  C   UNL     1       0.162   0.009  -0.326  0.00  0.00    +0.228 C 
BRANCH  24  25
ATOM     25  C   UNL     1       0.564   0.934   0.794  0.00  0.00    +0.134 A 
ATOM     26  C   UNL     1       1.203   2.110   0.652  0.00  0.00    +0.047 A 
ATOM     27  C   UNL     1       1.379   2.639   1.951  0.00  0.00    +0.041 A 
ATOM     28  C   UNL     1       0.838   1.755   2.809  0.00  0.00    +0.195 A 
ATOM     29  O   UNL     1       0.341   0.727   2.102  0.00  0.00    -0.465 OA
ENDBRANCH  24  25
BRANCH  24  30
ATOM     30  C   UNL     1       1.088  -1.179  -0.354  0.00  0.00    +0.241 C 
ATOM     31  O   UNL     1       0.645  -2.297  -0.204  0.00  0.00    -0.273 OA
ATOM     32  N   UNL     1       2.411  -0.997  -0.541  0.00  0.00    -0.311 N 
ATOM     33  H   UNL     1       2.766  -0.102  -0.657  0.00  0.00    +0.149 HD
BRANCH  32  34
ATOM     34  C   UNL     1       3.312  -2.152  -0.568  0.00  0.00    +0.073 C 
ATOM     35  C   UNL     1       3.713  -2.520   0.862  0.00  0.00    +0.022 C 
ATOM     36  C   UNL     1       4.654  -3.726   0.833  0.00  0.00    +0.002 C 
ATOM     37  C   UNL     1       5.906  -3.377   0.026  0.00  0.00    +0.000 C 
ATOM     38  C   UNL     1       5.505  -3.010  -1.404  0.00  0.00    +0.002 C 
ATOM     39  C   UNL     1       4.564  -1.804  -1.375  0.00  0.00    +0.022 C 
ENDBRANCH  32  34
ENDBRANCH  24  30
ENDBRANCH   3  24
TORSDOF 10
