REMARK  Name = ZINC09135581
REMARK  8 active torsions:
REMARK  status: ('A' for Active; 'I' for Inactive)
REMARK    1  A    between atoms: C_1  and  N_2
REMARK    2  A    between atoms: C_10  and  C_12
REMARK    3  A    between atoms: C_12  and  C_14
REMARK    4  A    between atoms: C_12  and  N_62
REMARK    5  A    between atoms: C_14  and  N_15
REMARK    6  A    between atoms: C_16  and  C_18
REMARK    7  A    between atoms: N_20  and  C_21
REMARK    8  A    between atoms: C_25  and  N_27
REMARK                            x       y       z     vdW  Elec       q    Type
REMARK                         _______ _______ _______ _____ _____    ______ ____
ROOT
ATOM      1  C   UNL     1       3.111  -2.093   5.487  0.00  0.00    +0.094 C 
ENDROOT
BRANCH   1   2
ATOM      2  N   UNL     1       2.889  -0.659   5.695  0.00  0.00    -0.309 N 
ATOM      3  C   UNL     1       2.233  -0.231   6.791  0.00  0.00    +0.299 C 
ATOM      4  O   UNL     1       1.827  -1.032   7.607  0.00  0.00    -0.265 OA
ATOM      5  H   UNL     1       3.215  -0.019   5.043  0.00  0.00    +0.149 HD
BRANCH   3   6
ATOM      6  C   UNL     1       2.007   1.230   7.003  0.00  0.00    +0.303 C 
ATOM      7  O   UNL     1       2.414   2.032   6.187  0.00  0.00    -0.265 OA
ATOM      8  N   UNL     1       1.352   1.659   8.099  0.00  0.00    -0.278 N 
ATOM      9  H   UNL     1       1.091   1.026   8.787  0.00  0.00    +0.155 HD
BRANCH   8  10
ATOM     10  C   UNL     1       1.047   3.016   8.246  0.00  0.00    +0.036 A 
ATOM     11  C   UNL     1       1.027   3.592   9.510  0.00  0.00    +0.026 A 
ATOM     12  C   UNL     1       0.731   4.933   9.652  0.00  0.00    +0.042 A 
ATOM     13  C   UNL     1       0.443   5.701   8.536  0.00  0.00    +0.154 A 
ATOM     14  C   UNL     1       0.457   5.128   7.276  0.00  0.00    +0.163 A 
ATOM     15  C   UNL     1       0.758   3.788   7.129  0.00  0.00    +0.059 A 
ATOM     16  F   UNL     1       0.148   7.012   8.678  0.00  0.00    -0.203 F 
BRANCH  14  17
ATOM     17  N   UNL     1       0.149   5.952   6.085  0.00  0.00    +0.059 N 
ATOM     18  O   UNL     1       0.162   5.449   4.976  0.00  0.00    -0.126 OA
ATOM     19  O   UNL     1      -0.116   7.134   6.215  0.00  0.00    -0.126 OA
ENDBRANCH  14  17
ENDBRANCH   8  10
ENDBRANCH   3   6
ENDBRANCH   1   2
BRANCH   1  20
ATOM     20  C   UNL     1       3.756  -2.316   4.118  0.00  0.00    -0.020 C 
BRANCH  20  30
ATOM     21  C   UNL     1      -1.210  -1.360   0.332  0.00  0.00    +0.129 C 
ATOM     22  N   UNL     1       0.116  -0.800   0.036  0.00  0.00    -0.333 N 
ATOM     23  C   UNL     1       0.033   0.638  -0.223  0.00  0.00    +0.105 C 
ATOM     24  C   UNL     1       1.444   1.171  -0.497  0.00  0.00    +0.024 C 
ATOM     25  C   UNL     1       2.243   1.084   0.805  0.00  0.00    +0.038 C 
ATOM     26  C   UNL     1       2.051  -0.277   1.427  0.00  0.00    -0.026 A 
ATOM     27  C   UNL     1       1.030  -1.125   1.037  0.00  0.00    +0.033 A 
ATOM     28  C   UNL     1       0.894  -2.366   1.661  0.00  0.00    +0.023 A 
ATOM     29  C   UNL     1       1.771  -2.748   2.654  0.00  0.00    +0.004 A 
ATOM     30  C   UNL     1       2.793  -1.899   3.036  0.00  0.00    -0.059 A 
ATOM     31  C   UNL     1       2.931  -0.669   2.424  0.00  0.00    +0.007 A 
ENDBRANCH  20  30
BRANCH  20  36
ATOM     32  C   UNL     1       4.716  -3.994   2.638  0.00  0.00    -0.078 C 
ATOM     33  C   UNL     1       5.448  -5.343   2.849  0.00  0.00    -0.020 C 
ATOM     34  C   UNL     1       5.973  -5.228   4.299  0.00  0.00    -0.020 C 
ATOM     35  C   UNL     1       5.077  -4.169   4.968  0.00  0.00    -0.078 C 
ATOM     36  N   UNL     1       4.103  -3.760   3.955  0.00  0.00    +0.385 N 
ATOM     37  H   UNL     1       3.250  -4.324   4.046  0.00  0.00    -0.081 HD
ENDBRANCH  20  36
ENDBRANCH   1  20
TORSDOF 7
