REMARK  Name = ZINC10355814
REMARK  10 active torsions:
REMARK  status: ('A' for Active; 'I' for Inactive)
REMARK    1  A    between atoms: C_1  and  C_2
REMARK    2  A    between atoms: C_3  and  C_28
REMARK    3  A    between atoms: C_4  and  C_17
REMARK    4  A    between atoms: N_9  and  C_10
REMARK    5  A    between atoms: C_20  and  N_23
REMARK    6  A    between atoms: C_28  and  O_30
REMARK    7  A    between atoms: O_30  and  C_31
REMARK    8  A    between atoms: C_31  and  C_32
REMARK    9  A    between atoms: C_32  and  O_33
REMARK   10  A    between atoms: O_33  and  C_34
REMARK                            x       y       z     vdW  Elec       q    Type
REMARK                         _______ _______ _______ _____ _____    ______ ____
ROOT
ATOM      1  C   UNL     1       0.111   4.142   0.240  0.00  0.00    +0.062 C 
ATOM      2  C   UNL     1      -1.214   3.431   0.131  0.00  0.00    +0.027 C 
ATOM      3  C   UNL     1      -2.359   4.138   0.248  0.00  0.00    +0.078 C 
ATOM      4  C   UNL     1      -3.668   3.383   0.132  0.00  0.00    +0.141 C 
ATOM      5  N   UNL     1      -3.583   1.931  -0.099  0.00  0.00    -0.315 N 
ATOM      6  C   UNL     1      -2.364   1.367  -0.199  0.00  0.00    +0.142 C 
ATOM      7  S   UNL     1      -2.251  -0.318  -0.474  0.00  0.00    -0.018 S 
ATOM      8  N   UNL     1      -1.237   2.082  -0.083  0.00  0.00    -0.255 N 
ATOM      9  H   UNL     1      -4.387   1.394  -0.181  0.00  0.00    +0.149 HD
ENDROOT
BRANCH   8  10
ATOM     10  C   UNL     1      -0.013   1.409  -0.195  0.00  0.00    +0.040 A 
ATOM     11  C   UNL     1       0.594   1.270  -1.436  0.00  0.00    +0.025 A 
ATOM     12  C   UNL     1       1.797   0.601  -1.544  0.00  0.00    +0.022 A 
ATOM     13  C   UNL     1       2.398   0.070  -0.416  0.00  0.00    +0.041 A 
ATOM     14  C   UNL     1       1.796   0.207   0.822  0.00  0.00    +0.022 A 
ATOM     15  C   UNL     1       0.592   0.875   0.935  0.00  0.00    +0.025 A 
ATOM     16 CL   UNL     1       3.912  -0.769  -0.555  0.00  0.00    -0.084 Cl
ENDBRANCH   8  10
BRANCH   4  17
ATOM     17  C   UNL     1      -4.446   3.606   1.404  0.00  0.00    -0.022 A 
ATOM     18  C   UNL     1      -4.145   2.869   2.535  0.00  0.00    +0.008 A 
ATOM     19  C   UNL     1      -4.854   3.074   3.703  0.00  0.00    +0.026 A 
ATOM     20  C   UNL     1      -5.875   4.013   3.737  0.00  0.00    +0.047 A 
ATOM     21  C   UNL     1      -6.179   4.747   2.599  0.00  0.00    +0.026 A 
ATOM     22  C   UNL     1      -5.464   4.541   1.435  0.00  0.00    +0.008 A 
BRANCH  20  23
ATOM     23  N   UNL     1      -6.599   4.220   4.920  0.00  0.00    -0.306 N 
ATOM     24  C   UNL     1      -6.412   3.573   6.114  0.00  0.00    +0.112 A 
ATOM     25  C   UNL     1      -7.316   4.076   6.976  0.00  0.00    +0.130 A 
ATOM     26  N   UNL     1      -8.038   5.005   6.332  0.00  0.00    -0.244 NA
ATOM     27  C   UNL     1      -7.615   5.104   5.101  0.00  0.00    +0.204 A 
ENDBRANCH  20  23
ENDBRANCH   4  17
BRANCH   3  28
ATOM     28  C   UNL     1      -2.337   5.534   0.470  0.00  0.00    +0.339 C 
ATOM     29  O   UNL     1      -1.274   6.119   0.559  0.00  0.00    -0.245 OA
BRANCH  28  30
ATOM     30  O   UNL     1      -3.495   6.218   0.583  0.00  0.00    -0.459 OA
BRANCH  30  31
ATOM     31  C   UNL     1      -3.398   7.626   0.806  0.00  0.00    +0.260 C 
BRANCH  31  32
ATOM     32  C   UNL     1      -4.803   8.224   0.906  0.00  0.00    +0.200 C 
BRANCH  32  33
ATOM     33  O   UNL     1      -5.462   7.703   2.062  0.00  0.00    -0.380 OA
ATOM     34  C   UNL     1      -6.788   8.200   2.250  0.00  0.00    +0.194 C 
ENDBRANCH  32  33
ENDBRANCH  31  32
ENDBRANCH  30  31
ENDBRANCH  28  30
ENDBRANCH   3  28
TORSDOF 8
