REMARK  Name = ZINC54642432
REMARK  13 active torsions:
REMARK  status: ('A' for Active; 'I' for Inactive)
REMARK    1  A    between atoms: C_1  and  C_2
REMARK    2  A    between atoms: C_2  and  C_3
REMARK    3  A    between atoms: C_3  and  C_4
REMARK    4  A    between atoms: C_4  and  C_5
REMARK    5  A    between atoms: C_5  and  C_6
REMARK    6  A    between atoms: C_6  and  O_7
REMARK    7  A    between atoms: O_7  and  C_8
REMARK    8  A    between atoms: C_11  and  C_14
REMARK    9  A    between atoms: C_19  and  C_23
REMARK   10  A    between atoms: C_19  and  C_24
REMARK   11  A    between atoms: C_29  and  S_31
REMARK   12  A    between atoms: S_31  and  C_32
REMARK   13  A    between atoms: C_32  and  C_33
REMARK                            x       y       z     vdW  Elec       q    Type
REMARK                         _______ _______ _______ _____ _____    ______ ____
ROOT
ATOM      1  C   UNL     1       2.666 -10.133   4.226  0.00  0.00    +0.175 C 
ATOM      2  C   UNL     1       4.129 -10.517   4.263  0.00  0.00    +0.041 C 
ATOM      3  C   UNL     1       4.746 -10.884   5.407  0.00  0.00    +0.020 C 
ATOM      4  C   UNL     1       6.212 -11.245   5.416  0.00  0.00    +0.058 C 
ATOM      5  C   UNL     1       6.596 -11.869   4.073  0.00  0.00    -0.023 C 
ATOM      6  C   UNL     1       6.283 -10.858   2.964  0.00  0.00    +0.086 C 
ATOM      7  C   UNL     1       4.831 -10.479   3.045  0.00  0.00    +0.164 C 
ATOM      8  O   UNL     1       4.251 -10.132   2.036  0.00  0.00    -0.292 OA
ATOM      9  C   UNL     1       5.787 -13.148   3.848  0.00  0.00    +0.011 C 
ATOM     10  C   UNL     1       8.091 -12.197   4.065  0.00  0.00    +0.011 C 
ATOM     11  N   UNL     1       4.073 -10.950   6.604  0.00  0.00    -0.287 N 
ATOM     12  C   UNL     1       2.689 -10.917   6.576  0.00  0.00    +0.219 A 
ATOM     13  N   UNL     1       2.014 -10.539   5.465  0.00  0.00    -0.220 N 
ATOM     14  N   UNL     1       0.658 -10.627   5.777  0.00  0.00    -0.141 NA
ATOM     15  C   UNL     1       0.582 -11.035   7.025  0.00  0.00    +0.211 A 
ATOM     16  N   UNL     1       1.817 -11.209   7.503  0.00  0.00    -0.187 NA
ATOM     17  H   UNL     1       4.554 -11.016   7.444  0.00  0.00    +0.155 HD
ENDROOT
BRANCH   1  21
ATOM     18  C   UNL     1       2.324  -5.897   3.768  0.00  0.00    +0.121 A 
ATOM     19  C   UNL     1       1.781  -6.746   2.813  0.00  0.00    +0.046 A 
ATOM     20  C   UNL     1       1.893  -8.114   2.964  0.00  0.00    +0.009 A 
ATOM     21  C   UNL     1       2.545  -8.639   4.065  0.00  0.00    -0.018 A 
ATOM     22  C   UNL     1       3.086  -7.796   5.018  0.00  0.00    +0.009 A 
ATOM     23  C   UNL     1       2.982  -6.426   4.869  0.00  0.00    +0.046 A 
BRANCH  18  24
ATOM     24  O   UNL     1       2.215  -4.551   3.622  0.00  0.00    -0.492 OA
BRANCH  24  25
ATOM     25  C   UNL     1       1.524  -4.077   2.464  0.00  0.00    +0.229 C 
BRANCH  25  26
ATOM     26  C   UNL     1       1.503  -2.548   2.473  0.00  0.00    +0.041 C 
BRANCH  26  27
ATOM     27  C   UNL     1       0.763  -2.041   1.233  0.00  0.00    +0.003 C 
BRANCH  27  28
ATOM     28  C   UNL     1       0.742  -0.511   1.242  0.00  0.00    -0.000 C 
BRANCH  28  30
ATOM     29  C   UNL     1      -0.019   1.526   0.010  0.00  0.00    +0.004 C 
ATOM     30  C   UNL     1       0.002  -0.004   0.002  0.00  0.00    -0.003 C 
ENDBRANCH  28  30
ENDBRANCH  27  28
ENDBRANCH  26  27
ENDBRANCH  25  26
ENDBRANCH  24  25
ENDBRANCH  18  24
ENDBRANCH   1  21
BRANCH  15  31
ATOM     31  S   UNL     1      -0.909 -11.311   7.923  0.00  0.00    -0.080 S 
BRANCH  31  32
ATOM     32  C   UNL     1      -0.342 -11.854   9.558  0.00  0.00    +0.112 C 
BRANCH  32  33
ATOM     33  C   UNL     1      -1.535 -12.128  10.438  0.00  0.00    -0.037 A 
ATOM     34  C   UNL     1      -2.071 -11.114  11.210  0.00  0.00    +0.004 A 
ATOM     35  C   UNL     1      -3.166 -11.365  12.017  0.00  0.00    +0.000 A 
ATOM     36  C   UNL     1      -3.724 -12.629  12.051  0.00  0.00    +0.000 A 
ATOM     37  C   UNL     1      -3.188 -13.642  11.278  0.00  0.00    +0.000 A 
ATOM     38  C   UNL     1      -2.097 -13.391  10.468  0.00  0.00    +0.004 A 
ENDBRANCH  32  33
ENDBRANCH  31  32
ENDBRANCH  15  31
TORSDOF 10
