REMARK  Name = ZINC38744001
REMARK  8 active torsions:
REMARK  status: ('A' for Active; 'I' for Inactive)
REMARK    1  A    between atoms: C_1  and  C_2
REMARK    2  A    between atoms: C_4  and  C_12
REMARK    3  A    between atoms: C_12  and  C_14
REMARK    4  A    between atoms: C_14  and  C_16
REMARK    5  A    between atoms: C_14  and  S_17
REMARK    6  A    between atoms: S_17  and  C_18
REMARK    7  A    between atoms: C_22  and  C_30
REMARK    8  A    between atoms: N_23  and  C_24
REMARK                            x       y       z     vdW  Elec       q    Type
REMARK                         _______ _______ _______ _____ _____    ______ ____
ROOT
ATOM      1  S   UNL     1      -4.714   0.000  -1.535  0.00  0.00    -0.107 S 
ENDROOT
BRANCH   1   2
ATOM      2  C   UNL     1      -6.272  -0.912  -1.712  0.00  0.00    +0.241 C 
ATOM      3  N   UNL     1      -6.956  -1.025  -0.412  0.00  0.00    -0.237 N 
ATOM      4  N   UNL     1      -7.045  -2.395  -0.137  0.00  0.00    -0.173 NA
ATOM      5  C   UNL     1      -6.520  -3.099  -1.072  0.00  0.00    +0.125 C 
ATOM      6  N   UNL     1      -6.011  -2.310  -2.097  0.00  0.00    -0.258 N 
ATOM      7  H   UNL     1      -7.280  -0.297   0.142  0.00  0.00    +0.171 HD
BRANCH   6   8
ATOM      8  C   UNL     1      -5.379  -2.752  -3.261  0.00  0.00    +0.037 A 
ATOM      9  C   UNL     1      -4.272  -3.588  -3.178  0.00  0.00    +0.023 A 
ATOM     10  C   UNL     1      -3.650  -4.023  -4.332  0.00  0.00    +0.002 A 
ATOM     11  C   UNL     1      -4.127  -3.628  -5.568  0.00  0.00    +0.000 A 
ATOM     12  C   UNL     1      -5.229  -2.797  -5.654  0.00  0.00    +0.002 A 
ATOM     13  C   UNL     1      -5.859  -2.362  -4.505  0.00  0.00    +0.023 A 
ENDBRANCH   6   8
BRANCH   5  14
ATOM     14  C   UNL     1      -6.462  -4.605  -1.061  0.00  0.00    +0.055 C 
ATOM     15  C   UNL     1      -7.705  -5.357  -0.579  0.00  0.00    +0.012 C 
ATOM     16  C   UNL     1      -6.454  -5.303   0.301  0.00  0.00    +0.012 C 
ENDBRANCH   5  14
ENDBRANCH   1   2
BRANCH   1  17
ATOM     17  C   UNL     1      -3.921  -0.760  -0.091  0.00  0.00    +0.117 C 
ATOM     18  C   UNL     1      -3.390  -2.144  -0.471  0.00  0.00    +0.027 C 
BRANCH  17  19
ATOM     19  C   UNL     1      -2.779   0.108   0.370  0.00  0.00    +0.174 C 
ATOM     20  O   UNL     1      -2.218   0.842  -0.418  0.00  0.00    -0.291 OA
BRANCH  19  23
ATOM     21  C   UNL     1      -1.774   2.417   2.315  0.00  0.00    +0.035 C 
ATOM     22  C   UNL     1      -1.331   0.954   2.383  0.00  0.00    +0.111 C 
ATOM     23  C   UNL     1      -2.361   0.067   1.717  0.00  0.00    +0.027 C 
ATOM     24  C   UNL     1      -2.805  -0.793   2.705  0.00  0.00    +0.006 A 
ATOM     25  C   UNL     1      -3.754  -1.842   2.712  0.00  0.00    +0.010 A 
ATOM     26  C   UNL     1      -3.998  -2.533   3.849  0.00  0.00    +0.001 A 
ATOM     27  C   UNL     1      -3.337  -2.255   5.056  0.00  0.00    +0.002 A 
ATOM     28  C   UNL     1      -2.414  -1.275   5.156  0.00  0.00    +0.026 A 
ATOM     29  C   UNL     1      -2.089  -0.473   3.964  0.00  0.00    +0.043 A 
ATOM     30  N   UNL     1      -1.257   0.513   3.780  0.00  0.00    -0.377 N 
ATOM     31  H   UNL     1      -0.679   0.896   4.458  0.00  0.00    +0.160 HD
ENDBRANCH  19  23
ENDBRANCH  17  19
ENDBRANCH   1  17
TORSDOF 6
