REMARK  Name = ZINC11694077
REMARK  5 active torsions:
REMARK  status: ('A' for Active; 'I' for Inactive)
REMARK    1  A    between atoms: C_1  and  C_2
REMARK    2  A    between atoms: C_2  and  C_3
REMARK    3  A    between atoms: C_2  and  C_4
REMARK    4  A    between atoms: N_14  and  C_18
REMARK    5  A    between atoms: C_18  and  C_19
REMARK                            x       y       z     vdW  Elec       q    Type
REMARK                         _______ _______ _______ _____ _____    ______ ____
ROOT
ATOM      1  C   UNL     1       1.588  -4.428  -0.071  0.00  0.00    +0.218 C 
ATOM      2  O   UNL     1       1.406  -4.985   0.991  0.00  0.00    -0.275 OA
ATOM      3  N   UNL     1       1.713  -3.087  -0.116  0.00  0.00    -0.301 N 
ATOM      4  C   UNL     1       1.538  -2.279   1.098  0.00  0.00    +0.110 C 
ATOM      5  C   UNL     1       2.780  -1.401   1.287  0.00  0.00    +0.054 C 
ATOM      6  C   UNL     1       3.033  -0.600   0.015  0.00  0.00    +0.115 C 
ATOM      7  C   UNL     1       3.264  -1.528  -1.173  0.00  0.00    +0.054 C 
ATOM      8  C   UNL     1       2.026  -2.407  -1.381  0.00  0.00    +0.110 C 
ATOM      9  C   UNL     1       4.216   0.323   0.199  0.00  0.00    +0.247 C 
ATOM     10  O   UNL     1       5.362   0.009   0.441  0.00  0.00    -0.273 OA
ATOM     11  N   UNL     1       3.728   1.571   0.039  0.00  0.00    -0.220 N 
ATOM     12  C   UNL     1       2.414   1.557  -0.218  0.00  0.00    +0.310 C 
ATOM     13  O   UNL     1       1.752   2.558  -0.405  0.00  0.00    -0.252 OA
ATOM     14  N   UNL     1       1.911   0.308  -0.253  0.00  0.00    -0.285 N 
ATOM     15  H   UNL     1       0.989   0.058  -0.422  0.00  0.00    +0.151 HD
ENDROOT
BRANCH   1  17
ATOM     16  C   UNL     1       2.003  -6.691  -0.998  0.00  0.00    +0.017 C 
ATOM     17  C   UNL     1       1.675  -5.236  -1.341  0.00  0.00    +0.069 C 
ATOM     18  C   UNL     1       0.335  -5.175  -2.077  0.00  0.00    +0.017 C 
ENDBRANCH   1  17
BRANCH  11  19
ATOM     19  C   UNL     1       4.535   2.789   0.135  0.00  0.00    +0.153 C 
BRANCH  19  20
ATOM     20  C   UNL     1       4.539   3.278   1.560  0.00  0.00    -0.029 A 
ATOM     21  C   UNL     1       3.572   4.169   1.988  0.00  0.00    +0.006 A 
ATOM     22  C   UNL     1       3.572   4.614   3.296  0.00  0.00    +0.020 A 
ATOM     23  C   UNL     1       4.546   4.176   4.176  0.00  0.00    +0.041 A 
ATOM     24  C   UNL     1       5.517   3.289   3.746  0.00  0.00    +0.020 A 
ATOM     25  C   UNL     1       5.513   2.841   2.439  0.00  0.00    +0.006 A 
ATOM     26 CL   UNL     1       4.550   4.739   5.818  0.00  0.00    -0.084 Cl
ENDBRANCH  19  20
ENDBRANCH  11  19
TORSDOF 3
