REMARK  Name = ZINC54917414
REMARK  8 active torsions:
REMARK  status: ('A' for Active; 'I' for Inactive)
REMARK    1  A    between atoms: C_1  and  C_2
REMARK    2  A    between atoms: C_4  and  C_8
REMARK    3  A    between atoms: C_5  and  C_7
REMARK    4  A    between atoms: N_10  and  C_11
REMARK    5  A    between atoms: C_11  and  C_12
REMARK    6  A    between atoms: N_14  and  C_15
REMARK    7  A    between atoms: C_15  and  C_16
REMARK    8  A    between atoms: C_16  and  N_22
REMARK                            x       y       z     vdW  Elec       q    Type
REMARK                         _______ _______ _______ _____ _____    ______ ____
ROOT
ATOM      1  C   UNL     1      -7.235  -2.933   1.520  0.00  0.00    +0.230 C 
ATOM      2  O   UNL     1      -6.427  -2.450   0.754  0.00  0.00    -0.274 OA
ATOM      3  N   UNL     1      -7.775  -4.139   1.257  0.00  0.00    -0.315 N 
ATOM      4  H   UNL     1      -8.421  -4.525   1.869  0.00  0.00    +0.149 HD
ENDROOT
BRANCH   1   5
ATOM      5  C   UNL     1      -7.636  -2.182   2.764  0.00  0.00    +0.200 C 
BRANCH   5   8
ATOM      6  C   UNL     1      -7.115  -0.065   3.851  0.00  0.00    +0.248 C 
ATOM      7  O   UNL     1      -7.895  -0.361   4.736  0.00  0.00    -0.270 OA
ATOM      8  N   UNL     1      -6.915  -0.908   2.819  0.00  0.00    -0.303 N 
ATOM      9  H   UNL     1      -6.293  -0.672   2.113  0.00  0.00    +0.150 HD
BRANCH   6  13
ATOM     10  C   UNL     1      -4.029   3.840   2.729  0.00  0.00    +0.086 C 
ATOM     11  C   UNL     1      -5.026   2.927   3.396  0.00  0.00    +0.103 A 
ATOM     12  C   UNL     1      -5.420   1.732   2.929  0.00  0.00    +0.057 A 
ATOM     13  C   UNL     1      -6.391   1.217   3.906  0.00  0.00    +0.077 A 
ATOM     14  C   UNL     1      -6.480   2.174   4.875  0.00  0.00    +0.114 A 
ATOM     15  O   UNL     1      -5.657   3.177   4.553  0.00  0.00    -0.464 OA
ATOM     16  C   UNL     1      -7.353   2.108   6.101  0.00  0.00    +0.087 C 
ENDBRANCH   6  13
ENDBRANCH   5   8
ENDBRANCH   1   5
BRANCH   3  17
ATOM     17  C   UNL     1      -7.386  -4.869   0.048  0.00  0.00    +0.092 C 
BRANCH  17  18
ATOM     18  C   UNL     1      -8.038  -6.253   0.055  0.00  0.00    -0.050 C 
ATOM     19  C   UNL     1      -7.527  -7.063  -1.139  0.00  0.00    -0.010 C 
ATOM     20  C   UNL     1      -7.885  -6.338  -2.438  0.00  0.00    -0.001 C 
ATOM     21  C   UNL     1      -9.404  -6.186  -2.536  0.00  0.00    -0.000 C 
ATOM     22  C   UNL     1      -9.914  -5.376  -1.343  0.00  0.00    -0.001 C 
ATOM     23  C   UNL     1      -9.557  -6.101  -0.044  0.00  0.00    -0.010 C 
BRANCH  18  24
ATOM     24  N   UNL     1      -7.695  -6.949   1.302  0.00  0.00    +0.384 N 
ATOM     25  C   UNL     1      -6.235  -7.056   1.416  0.00  0.00    -0.078 C 
ATOM     26  C   UNL     1      -5.870  -7.708   2.751  0.00  0.00    -0.019 C 
ATOM     27  C   UNL     1      -6.492  -9.106   2.817  0.00  0.00    -0.004 C 
ATOM     28  C   UNL     1      -8.007  -8.990   2.623  0.00  0.00    -0.019 C 
ATOM     29  C   UNL     1      -8.293  -8.290   1.292  0.00  0.00    -0.078 C 
ATOM     30  H   UNL     1      -8.054  -6.428   2.087  0.00  0.00    -0.081 HD
ENDBRANCH  18  24
ENDBRANCH  17  18
ENDBRANCH   3  17
TORSDOF 6
