REMARK  Name = ZINC01172070
REMARK  10 active torsions:
REMARK  status: ('A' for Active; 'I' for Inactive)
REMARK    1  A    between atoms: C_1  and  C_2
REMARK    2  A    between atoms: C_2  and  C_3
REMARK    3  A    between atoms: C_3  and  C_4
REMARK    4  A    between atoms: C_7  and  O_10
REMARK    5  A    between atoms: O_10  and  C_11
REMARK    6  A    between atoms: C_12  and  C_21
REMARK    7  A    between atoms: C_16  and  C_17
REMARK    8  A    between atoms: C_24  and  O_29
REMARK    9  A    between atoms: C_25  and  C_28
REMARK   10  A    between atoms: C_26  and  O_27
REMARK                            x       y       z     vdW  Elec       q    Type
REMARK                         _______ _______ _______ _____ _____    ______ ____
ROOT
ATOM      1  C   UNL     1       1.865  -6.764   0.600  0.00  0.00    +0.185 A 
ATOM      2  C   UNL     1       1.931  -7.141  -0.758  0.00  0.00    +0.139 A 
ATOM      3  N   UNL     1       3.098  -7.713  -0.967  0.00  0.00    -0.169 NA
ATOM      4  N   UNL     1       3.806  -7.719   0.242  0.00  0.00    -0.270 N 
ATOM      5  H   UNL     1       4.696  -8.079   0.379  0.00  0.00    +0.189 HD
ATOM      6  C   UNL     1       3.030  -7.126   1.187  0.00  0.00    +0.182 A 
ENDROOT
BRANCH   2   7
ATOM      7  C   UNL     1       0.870  -6.930  -1.774  0.00  0.00    +0.048 A 
ATOM      8  C   UNL     1      -0.322  -6.303  -1.419  0.00  0.00    +0.017 A 
ATOM      9  C   UNL     1      -1.306  -6.108  -2.365  0.00  0.00    +0.046 A 
ATOM     10  C   UNL     1      -1.113  -6.534  -3.672  0.00  0.00    +0.123 A 
ATOM     11  C   UNL     1       0.071  -7.159  -4.034  0.00  0.00    +0.033 A 
ATOM     12  C   UNL     1       1.067  -7.355  -3.091  0.00  0.00    +0.133 A 
ATOM     13  C   UNL     1       0.276  -7.620  -5.454  0.00  0.00    +0.051 C 
BRANCH  12  14
ATOM     14  O   UNL     1       2.229  -7.962  -3.445  0.00  0.00    -0.506 OA
ATOM     15  H   UNL     1       2.217  -8.924  -3.347  0.00  0.00    +0.292 HD
ENDBRANCH  12  14
BRANCH  10  16
ATOM     16  O   UNL     1      -2.087  -6.339  -4.599  0.00  0.00    -0.506 OA
ATOM     17  H   UNL     1      -2.017  -5.498  -5.072  0.00  0.00    +0.292 HD
ENDBRANCH  10  16
ENDBRANCH   2   7
BRANCH   6  18
ATOM     18  C   UNL     1       3.400  -6.912   2.632  0.00  0.00    +0.437 C 
ATOM     19  F   UNL     1       4.683  -7.418   2.866  0.00  0.00    -0.164 F 
ATOM     20  F   UNL     1       3.378  -5.543   2.921  0.00  0.00    -0.164 F 
ATOM     21  F   UNL     1       2.480  -7.576   3.452  0.00  0.00    -0.164 F 
ENDBRANCH   6  18
BRANCH   1  22
ATOM     22  O   UNL     1       0.818  -6.143   1.210  0.00  0.00    -0.452 OA
BRANCH  22  26
ATOM     23  C   UNL     1       0.762  -2.018   1.233  0.00  0.00    -0.047 A 
ATOM     24  C   UNL     1      -0.263  -2.725   1.833  0.00  0.00    +0.007 A 
ATOM     25  C   UNL     1      -0.247  -4.106   1.827  0.00  0.00    +0.046 A 
ATOM     26  C   UNL     1       0.799  -4.784   1.217  0.00  0.00    +0.129 A 
ATOM     27  C   UNL     1       1.827  -4.072   0.616  0.00  0.00    +0.046 A 
ATOM     28  C   UNL     1       1.804  -2.690   0.621  0.00  0.00    +0.007 A 
BRANCH  23  29
ATOM     29  C   UNL     1       0.742  -0.511   1.242  0.00  0.00    +0.035 C 
BRANCH  29  31
ATOM     30  C   UNL     1      -0.019   1.526   0.010  0.00  0.00    +0.004 C 
ATOM     31  C   UNL     1       0.002  -0.004   0.002  0.00  0.00    +0.001 C 
ENDBRANCH  29  31
ENDBRANCH  23  29
ENDBRANCH  22  26
ENDBRANCH   1  22
TORSDOF 8
