REMARK  Name = ZINC12468075
REMARK  9 active torsions:
REMARK  status: ('A' for Active; 'I' for Inactive)
REMARK    1  A    between atoms: C_1  and  C_2
REMARK    2  A    between atoms: C_5  and  C_8
REMARK    3  A    between atoms: C_11  and  C_32
REMARK    4  A    between atoms: C_16  and  C_18
REMARK    5  A    between atoms: N_20  and  C_21
REMARK    6  A    between atoms: C_21  and  C_22
REMARK    7  A    between atoms: C_23  and  C_29
REMARK    8  A    between atoms: N_25  and  C_28
REMARK    9  A    between atoms: C_26  and  C_27
REMARK                            x       y       z     vdW  Elec       q    Type
REMARK                         _______ _______ _______ _____ _____    ______ ____
ROOT
ATOM      1  C   UNL     1       0.059  -4.275  -0.021  0.00  0.00    +0.104 C 
ATOM      2  C   UNL     1       1.487  -4.773   0.228  0.00  0.00    +0.063 C 
ATOM      3  C   UNL     1       1.528  -6.303   0.152  0.00  0.00    +0.215 C 
ATOM      4  N   UNL     1       0.463  -6.849   0.999  0.00  0.00    -0.237 N 
ATOM      5  C   UNL     1      -0.620  -6.127   1.413  0.00  0.00    +0.137 A 
ATOM      6  C   UNL     1      -1.393  -6.928   2.175  0.00  0.00    +0.112 A 
ATOM      7  C   UNL     1      -0.766  -8.194   2.233  0.00  0.00    +0.167 A 
ATOM      8  N   UNL     1       0.347  -8.136   1.523  0.00  0.00    -0.163 NA
ATOM      9 CL   UNL     1      -2.885  -6.485   2.943  0.00  0.00    -0.078 Cl
ATOM     10  N   UNL     1      -0.815  -4.788   1.052  0.00  0.00    -0.321 N 
ATOM     11  H   UNL     1      -1.481  -4.230   1.482  0.00  0.00    +0.148 HD
ENDROOT
BRANCH   1  16
ATOM     12  C   UNL     1      -0.018   1.503   0.010  0.00  0.00    +0.044 C 
ATOM     13  C   UNL     1       0.002  -0.004   0.002  0.00  0.00    -0.050 A 
ATOM     14  C   UNL     1       0.006  -0.689  -1.199  0.00  0.00    +0.004 A 
ATOM     15  C   UNL     1       0.025  -2.071  -1.206  0.00  0.00    +0.006 A 
ATOM     16  C   UNL     1       0.040  -2.768  -0.013  0.00  0.00    -0.027 A 
ATOM     17  C   UNL     1       0.037  -2.084   1.188  0.00  0.00    +0.006 A 
ATOM     18  C   UNL     1       0.023  -0.702   1.195  0.00  0.00    +0.004 A 
ENDBRANCH   1  16
BRANCH   7  19
ATOM     19  C   UNL     1      -1.269  -9.376   2.962  0.00  0.00    +0.266 C 
ATOM     20  O   UNL     1      -2.311  -9.309   3.584  0.00  0.00    -0.268 OA
ATOM     21  N   UNL     1      -0.572 -10.530   2.936  0.00  0.00    -0.306 N 
ATOM     22  H   UNL     1       0.260 -10.583   2.440  0.00  0.00    +0.149 HD
BRANCH  21  23
ATOM     23  C   UNL     1      -1.070 -11.703   3.659  0.00  0.00    +0.143 C 
BRANCH  23  24
ATOM     24  C   UNL     1      -0.114 -12.852   3.471  0.00  0.00    +0.013 A 
ATOM     25  C   UNL     1      -0.159 -13.801   2.445  0.00  0.00    +0.065 A 
ATOM     26  N   UNL     1       0.833 -14.637   2.617  0.00  0.00    -0.176 NA
ATOM     27  N   UNL     1       1.542 -14.245   3.761  0.00  0.00    -0.271 N 
ATOM     28  C   UNL     1       0.944 -13.145   4.263  0.00  0.00    +0.041 A 
ATOM     29  C   UNL     1       1.374 -12.381   5.489  0.00  0.00    +0.065 C 
ATOM     30  C   UNL     1       2.726 -14.910   4.311  0.00  0.00    +0.172 C 
ATOM     31  C   UNL     1      -1.174 -13.852   1.332  0.00  0.00    +0.068 C 
ENDBRANCH  23  24
ENDBRANCH  21  23
ENDBRANCH   7  19
BRANCH   3  32
ATOM     32  C   UNL     1       2.886  -6.805   0.645  0.00  0.00    +0.412 C 
ATOM     33  F   UNL     1       3.080  -6.400   1.970  0.00  0.00    -0.168 F 
ATOM     34  F   UNL     1       2.921  -8.202   0.575  0.00  0.00    -0.168 F 
ATOM     35  F   UNL     1       3.900  -6.273  -0.158  0.00  0.00    -0.168 F 
ENDBRANCH   3  32
TORSDOF 5
