REMARK  Name = ZINC01867836
REMARK  14 active torsions:
REMARK  status: ('A' for Active; 'I' for Inactive)
REMARK    1  A    between atoms: C_1  and  O_2
REMARK    2  A    between atoms: O_2  and  C_3
REMARK    3  A    between atoms: C_6  and  C_11
REMARK    4  A    between atoms: C_8  and  O_9
REMARK    5  A    between atoms: O_9  and  C_10
REMARK    6  A    between atoms: C_11  and  C_12
REMARK    7  A    between atoms: C_12  and  N_13
REMARK    8  A    between atoms: C_14  and  C_15
REMARK    9  A    between atoms: C_16  and  C_32
REMARK   10  A    between atoms: C_24  and  C_26
REMARK   11  A    between atoms: C_35  and  O_40
REMARK   12  A    between atoms: C_36  and  O_38
REMARK   13  A    between atoms: O_38  and  C_39
REMARK   14  A    between atoms: O_40  and  C_41
REMARK                            x       y       z     vdW  Elec       q    Type
REMARK                         _______ _______ _______ _____ _____    ______ ____
ROOT
ATOM      1  C   UNL     1      -9.204  -3.464  -2.047  0.00  0.00    +0.023 C 
ATOM      2  C   UNL     1      -9.416  -4.639  -1.409  0.00  0.00    +0.141 C 
ATOM      3  O   UNL     1     -10.644  -5.179  -1.300  0.00  0.00    -0.455 OA
ATOM      4  C   UNL     1     -11.741  -4.401  -1.471  0.00  0.00    +0.133 A 
ATOM      5  C   UNL     1     -12.967  -4.834  -0.979  0.00  0.00    +0.046 A 
ATOM      6  C   UNL     1     -14.093  -4.053  -1.144  0.00  0.00    +0.004 A 
ATOM      7  C   UNL     1     -14.004  -2.839  -1.800  0.00  0.00    +0.001 A 
ATOM      8  C   UNL     1     -12.787  -2.406  -2.291  0.00  0.00    +0.008 A 
ATOM      9  C   UNL     1     -11.655  -3.184  -2.128  0.00  0.00    +0.007 A 
ATOM     10  C   UNL     1     -10.338  -2.695  -2.665  0.00  0.00    +0.087 C 
ENDROOT
BRANCH  10  11
ATOM     11  C   UNL     1     -10.312  -2.884  -4.160  0.00  0.00    -0.035 A 
ATOM     12  C   UNL     1     -10.439  -4.151  -4.698  0.00  0.00    +0.004 A 
ATOM     13  C   UNL     1     -10.416  -4.325  -6.070  0.00  0.00    +0.000 A 
ATOM     14  C   UNL     1     -10.267  -3.231  -6.902  0.00  0.00    +0.000 A 
ATOM     15  C   UNL     1     -10.141  -1.964  -6.364  0.00  0.00    +0.000 A 
ATOM     16  C   UNL     1     -10.168  -1.790  -4.992  0.00  0.00    +0.004 A 
ENDBRANCH  10  11
BRANCH   2  17
ATOM     17  C   UNL     1      -8.267  -5.348  -0.816  0.00  0.00    +0.021 A 
ATOM     18  C   UNL     1      -7.426  -4.689   0.085  0.00  0.00    +0.015 A 
ATOM     19  C   UNL     1      -6.353  -5.354   0.638  0.00  0.00    +0.050 A 
ATOM     20  C   UNL     1      -6.104  -6.678   0.303  0.00  0.00    +0.162 A 
ATOM     21  C   UNL     1      -6.939  -7.341  -0.594  0.00  0.00    +0.162 A 
ATOM     22  C   UNL     1      -8.021  -6.683  -1.148  0.00  0.00    +0.061 A 
BRANCH  21  23
ATOM     23  O   UNL     1      -6.693  -8.639  -0.920  0.00  0.00    -0.491 OA
ATOM     24  C   UNL     1      -7.589  -9.256  -1.847  0.00  0.00    +0.277 C 
ENDBRANCH  21  23
BRANCH  20  25
ATOM     25  O   UNL     1      -5.045  -7.328   0.851  0.00  0.00    -0.491 OA
ATOM     26  C   UNL     1      -4.230  -6.588   1.762  0.00  0.00    +0.277 C 
ENDBRANCH  20  25
ENDBRANCH   2  17
BRANCH   1  28
ATOM     27  N   UNL     1      -7.688  -1.769  -2.642  0.00  0.00    -0.390 N 
ATOM     28  C   UNL     1      -7.893  -2.949  -2.128  0.00  0.00    +0.086 C 
ATOM     29  H   UNL     1      -8.442  -1.212  -2.894  0.00  0.00    +0.159 HD
BRANCH  27  30
ATOM     30  C   UNL     1      -6.320  -1.284  -2.839  0.00  0.00    +0.117 C 
BRANCH  30  31
ATOM     31  C   UNL     1      -6.043  -1.136  -4.337  0.00  0.00    +0.056 C 
BRANCH  31  35
ATOM     32  C   UNL     1      -2.169   0.585  -4.905  0.00  0.00    +0.161 A 
ATOM     33  C   UNL     1      -2.315  -0.791  -4.831  0.00  0.00    +0.049 A 
ATOM     34  C   UNL     1      -3.569  -1.344  -4.647  0.00  0.00    +0.007 A 
ATOM     35  C   UNL     1      -4.679  -0.527  -4.537  0.00  0.00    -0.042 A 
ATOM     36  C   UNL     1      -4.540   0.846  -4.610  0.00  0.00    +0.053 A 
ATOM     37  C   UNL     1      -3.286   1.407  -4.788  0.00  0.00    +0.162 A 
BRANCH  32  39
ATOM     38  C   UNL     1       0.164   0.226  -5.197  0.00  0.00    +0.277 C 
ATOM     39  O   UNL     1      -0.937   1.131  -5.086  0.00  0.00    -0.491 OA
ENDBRANCH  32  39
BRANCH  37  40
ATOM     40  O   UNL     1      -3.147   2.759  -4.855  0.00  0.00    -0.491 OA
ATOM     41  C   UNL     1      -4.336   3.540  -4.727  0.00  0.00    +0.277 C 
ENDBRANCH  37  40
ENDBRANCH  31  35
ENDBRANCH  30  31
ENDBRANCH  27  30
ENDBRANCH   1  28
TORSDOF 10
