REMARK  Name = ZINC39696324
REMARK  9 active torsions:
REMARK  status: ('A' for Active; 'I' for Inactive)
REMARK    1  A    between atoms: C_1  and  C_2
REMARK    2  A    between atoms: C_2  and  C_3
REMARK    3  A    between atoms: C_6  and  C_9
REMARK    4  A    between atoms: C_9  and  C_11
REMARK    5  A    between atoms: C_9  and  N_12
REMARK    6  A    between atoms: C_13  and  C_15
REMARK    7  A    between atoms: C_26  and  C_28
REMARK    8  A    between atoms: C_30  and  C_34
REMARK    9  A    between atoms: N_31  and  C_33
REMARK                            x       y       z     vdW  Elec       q    Type
REMARK                         _______ _______ _______ _____ _____    ______ ____
ROOT
ATOM      1  C   UNL     1       5.157  -4.806  -4.894  0.00  0.00    +0.100 C 
ATOM      2  C   UNL     1       4.687  -5.619  -3.667  0.00  0.00    +0.121 C 
ATOM      3  N   UNL     1       4.064  -6.836  -4.240  0.00  0.00    -0.295 N 
ATOM      4  C   UNL     1       4.940  -7.196  -5.380  0.00  0.00    +0.115 C 
ATOM      5  C   UNL     1       5.325  -5.845  -6.016  0.00  0.00    -0.004 C 
ATOM      6  C   UNL     1       6.774  -5.879  -6.492  0.00  0.00    -0.010 C 
ATOM      7  C   UNL     1       6.904  -6.877  -7.646  0.00  0.00    -0.082 C 
ATOM      8  N   UNL     1       6.016  -6.477  -8.744  0.00  0.00    +0.379 N 
ATOM      9  C   UNL     1       4.617  -6.537  -8.304  0.00  0.00    -0.082 C 
ATOM     10  C   UNL     1       4.390  -5.524  -7.178  0.00  0.00    -0.010 C 
ATOM     11  C   UNL     1       2.953  -7.471  -3.818  0.00  0.00    +0.267 C 
ATOM     12  O   UNL     1       2.565  -8.466  -4.398  0.00  0.00    -0.268 OA
ATOM     13  H   UNL     1       6.238  -5.534  -9.027  0.00  0.00    -0.086 HD
ATOM     14  H   UNL     1       6.148  -7.100  -9.526  0.00  0.00    -0.086 HD
ENDROOT
BRANCH  11  15
ATOM     15  C   UNL     1       2.206  -6.957  -2.652  0.00  0.00    +0.147 A 
ATOM     16  C   UNL     1       1.032  -7.515  -2.091  0.00  0.00    +0.057 A 
ATOM     17  C   UNL     1       0.713  -6.713  -1.049  0.00  0.00    +0.037 A 
ATOM     18  N   UNL     1       1.644  -5.736  -0.996  0.00  0.00    -0.271 N 
ATOM     19  N   UNL     1       2.509  -5.896  -1.932  0.00  0.00    -0.167 NA
ATOM     20  C   UNL     1       1.667  -4.654  -0.009  0.00  0.00    +0.172 C 
ATOM     21  C   UNL     1      -0.464  -6.878  -0.121  0.00  0.00    +0.065 C 
ENDBRANCH  11  15
BRANCH   1  23
ATOM     22  N   UNL     1       4.487  -2.640  -5.882  0.00  0.00    -0.308 N 
ATOM     23  C   UNL     1       4.116  -3.785  -5.277  0.00  0.00    +0.219 C 
ATOM     24  O   UNL     1       2.945  -3.995  -5.039  0.00  0.00    -0.275 OA
ATOM     25  H   UNL     1       5.423  -2.473  -6.072  0.00  0.00    +0.149 HD
BRANCH  22  26
ATOM     26  C   UNL     1       3.475  -1.648  -6.254  0.00  0.00    +0.100 C 
ATOM     27  C   UNL     1       2.885  -2.007  -7.619  0.00  0.00    +0.033 C 
BRANCH  26  31
ATOM     28  C   UNL     1       5.281   2.219  -6.453  0.00  0.00    -0.048 A 
ATOM     29  C   UNL     1       4.018   2.073  -5.910  0.00  0.00    +0.004 A 
ATOM     30  C   UNL     1       3.434   0.822  -5.845  0.00  0.00    +0.006 A 
ATOM     31  C   UNL     1       4.112  -0.283  -6.325  0.00  0.00    -0.027 A 
ATOM     32  C   UNL     1       5.374  -0.138  -6.869  0.00  0.00    +0.006 A 
ATOM     33  C   UNL     1       5.957   1.114  -6.938  0.00  0.00    +0.004 A 
BRANCH  28  35
ATOM     34  C   UNL     1       5.543   4.253  -7.847  0.00  0.00    +0.009 C 
ATOM     35  C   UNL     1       5.918   3.582  -6.524  0.00  0.00    +0.032 C 
ENDBRANCH  28  35
ENDBRANCH  26  31
ENDBRANCH  22  26
ENDBRANCH   1  23
TORSDOF 5
