REMARK  Name = ZINC04861047
REMARK  6 active torsions:
REMARK  status: ('A' for Active; 'I' for Inactive)
REMARK    1  A    between atoms: C_1  and  C_2
REMARK    2  A    between atoms: C_5  and  S_9
REMARK    3  A    between atoms: S_9  and  N_12
REMARK    4  A    between atoms: C_16  and  C_19
REMARK    5  A    between atoms: N_21  and  C_22
REMARK    6  A    between atoms: C_28  and  C_30
REMARK                            x       y       z     vdW  Elec       q    Type
REMARK                         _______ _______ _______ _____ _____    ______ ____
ROOT
ATOM      1  N   UNL     1       0.002  -0.004   0.002  0.00  0.00    -0.176 NA
ATOM      2  C   UNL     1       1.176  -0.740   0.493  0.00  0.00    +0.109 C 
ATOM      3  C   UNL     1       1.636  -1.719  -0.586  0.00  0.00    +0.018 C 
ATOM      4  C   UNL     1       0.462  -2.610  -0.997  0.00  0.00    +0.015 C 
ATOM      5  C   UNL     1      -0.660  -1.744  -1.575  0.00  0.00    +0.091 C 
ATOM      6  C   UNL     1      -1.149  -0.766  -0.502  0.00  0.00    +0.122 C 
ENDROOT
BRANCH   5   7
ATOM      7  C   UNL     1      -1.803  -2.626  -2.009  0.00  0.00    +0.218 C 
ATOM      8  O   UNL     1      -2.900  -2.486  -1.511  0.00  0.00    -0.275 OA
ATOM      9  N   UNL     1      -1.606  -3.570  -2.951  0.00  0.00    -0.312 N 
ATOM     10  H   UNL     1      -0.728  -3.681  -3.349  0.00  0.00    +0.149 HD
BRANCH   9  11
ATOM     11  C   UNL     1      -2.716  -4.426  -3.373  0.00  0.00    +0.076 C 
ATOM     12  C   UNL     1      -2.836  -5.615  -2.417  0.00  0.00    +0.022 C 
ATOM     13  C   UNL     1      -1.534  -6.419  -2.438  0.00  0.00    +0.002 C 
ATOM     14  C   UNL     1      -1.274  -6.930  -3.856  0.00  0.00    +0.000 C 
ATOM     15  C   UNL     1      -1.154  -5.742  -4.813  0.00  0.00    +0.005 C 
ATOM     16  C   UNL     1      -2.456  -4.938  -4.792  0.00  0.00    +0.006 C 
ATOM     17  C   UNL     1      -2.336  -3.749  -5.748  0.00  0.00    +0.009 C 
ENDBRANCH   9  11
ENDBRANCH   5   7
BRANCH   1  18
ATOM     18  S   UNL     1      -0.020   1.652   0.011  0.00  0.00    +0.061 S 
ATOM     19  O   UNL     1       1.336   2.076   0.001  0.00  0.00    -0.153 OA
ATOM     20  O   UNL     1      -0.952   2.051  -0.985  0.00  0.00    -0.153 OA
BRANCH  18  25
ATOM     21  C   UNL     1      -2.323   3.376   5.316  0.00  0.00    +0.045 C 
ATOM     22  C   UNL     1      -1.748   2.945   3.991  0.00  0.00    -0.032 A 
ATOM     23  C   UNL     1      -0.385   2.760   3.856  0.00  0.00    +0.007 A 
ATOM     24  C   UNL     1       0.142   2.365   2.641  0.00  0.00    +0.029 A 
ATOM     25  C   UNL     1      -0.694   2.155   1.560  0.00  0.00    +0.107 A 
ATOM     26  C   UNL     1      -2.056   2.346   1.692  0.00  0.00    +0.048 A 
ATOM     27  C   UNL     1      -2.585   2.736   2.909  0.00  0.00    +0.046 A 
ATOM     28 CL   UNL     1      -4.297   2.968   3.078  0.00  0.00    -0.083 Cl
ENDBRANCH  18  25
ENDBRANCH   1  18
TORSDOF 4
