REMARK  Name = ZINC27576282
REMARK  12 active torsions:
REMARK  status: ('A' for Active; 'I' for Inactive)
REMARK    1  A    between atoms: C_1  and  O_2
REMARK    2  A    between atoms: O_2  and  C_3
REMARK    3  A    between atoms: C_3  and  C_5
REMARK    4  A    between atoms: C_6  and  N_10
REMARK    5  A    between atoms: C_11  and  C_13
REMARK    6  A    between atoms: C_13  and  N_14
REMARK    7  A    between atoms: N_14  and  C_15
REMARK    8  A    between atoms: N_14  and  C_28
REMARK    9  A    between atoms: C_15  and  C_16
REMARK   10  A    between atoms: C_19  and  C_22
REMARK   11  A    between atoms: N_24  and  C_25
REMARK   12  A    between atoms: C_28  and  C_29
REMARK                            x       y       z     vdW  Elec       q    Type
REMARK                         _______ _______ _______ _____ _____    ______ ____
ROOT
ATOM      1  N   UNL     1       1.227  -2.650  -1.597  0.00  0.00    +0.393 N 
ATOM      2  H   UNL     1       2.118  -2.172  -2.031  0.00  0.00    -0.080 HD
ENDROOT
BRANCH   1   3
ATOM      3  C   UNL     1       1.370  -4.103  -1.760  0.00  0.00    +0.020 C 
BRANCH   3   5
ATOM      4  N   UNL     1       1.849  -5.699  -3.588  0.00  0.00    -0.286 N 
ATOM      5  C   UNL     1       1.676  -4.419  -3.201  0.00  0.00    +0.201 C 
ATOM      6  O   UNL     1       1.765  -3.523  -4.013  0.00  0.00    -0.278 OA
ATOM      7  H   UNL     1       1.861  -6.503  -2.838  0.00  0.00    +0.155 HD
BRANCH   4   9
ATOM      8  C   UNL     1       2.675  -7.157  -5.355  0.00  0.00    +0.117 A 
ATOM      9  C   UNL     1       2.013  -6.002  -4.940  0.00  0.00    +0.055 A 
ATOM     10  C   UNL     1       1.533  -5.172  -5.931  0.00  0.00    +0.032 A 
ATOM     11  C   UNL     1       1.720  -5.514  -7.230  0.00  0.00    +0.048 A 
ATOM     12  S   UNL     1       2.578  -7.017  -7.131  0.00  0.00    -0.088 S 
BRANCH   8  13
ATOM     13  C   UNL     1       3.268  -8.176  -4.572  0.00  0.00    +0.347 C 
ATOM     14  O   UNL     1       3.236  -8.105  -3.358  0.00  0.00    -0.244 OA
BRANCH  13  16
ATOM     15  C   UNL     1       4.445 -10.217  -4.320  0.00  0.00    +0.280 C 
ATOM     16  O   UNL     1       3.868  -9.226  -5.172  0.00  0.00    -0.464 OA
ENDBRANCH  13  16
ENDBRANCH   8  13
ENDBRANCH   4   9
ENDBRANCH   3   5
ENDBRANCH   1   3
BRANCH   1  17
ATOM     17  C   UNL     1       1.166  -2.283  -0.176  0.00  0.00    -0.042 C 
BRANCH  17  18
ATOM     18  C   UNL     1       2.543  -2.376   0.427  0.00  0.00    -0.064 A 
ATOM     19  C   UNL     1       3.415  -1.307   0.322  0.00  0.00    +0.002 A 
ATOM     20  C   UNL     1       4.678  -1.385   0.872  0.00  0.00    +0.013 A 
ATOM     21  C   UNL     1       5.075  -2.547   1.537  0.00  0.00    +0.037 A 
ATOM     22  C   UNL     1       4.191  -3.622   1.640  0.00  0.00    +0.013 A 
ATOM     23  C   UNL     1       2.931  -3.530   1.085  0.00  0.00    +0.002 A 
BRANCH  21  24
ATOM     24  C   UNL     1       6.427  -2.638   2.129  0.00  0.00    +0.244 C 
ATOM     25  O   UNL     1       7.195  -1.700   2.038  0.00  0.00    -0.270 OA
ATOM     26  N   UNL     1       6.808  -3.760   2.770  0.00  0.00    -0.308 N 
ATOM     27  H   UNL     1       6.113  -4.609   2.852  0.00  0.00    +0.149 HD
BRANCH  26  28
ATOM     28  C   UNL     1       8.147  -3.850   3.357  0.00  0.00    +0.073 C 
ATOM     29  C   UNL     1       8.924  -5.152   3.147  0.00  0.00    +0.024 C 
ATOM     30  C   UNL     1       8.343  -4.821   4.523  0.00  0.00    +0.024 C 
ENDBRANCH  26  28
ENDBRANCH  21  24
ENDBRANCH  17  18
ENDBRANCH   1  17
BRANCH   1  31
ATOM     31  C   UNL     1       0.050  -2.153  -2.321  0.00  0.00    -0.002 C 
BRANCH  31  32
ATOM     32  C   UNL     1       0.183  -0.667  -2.536  0.00  0.00    +0.089 A 
ATOM     33  C   UNL     1       0.674  -0.073  -3.638  0.00  0.00    +0.042 A 
ATOM     34  C   UNL     1       0.615   1.322  -3.412  0.00  0.00    +0.041 A 
ATOM     35  C   UNL     1       0.092   1.496  -2.185  0.00  0.00    +0.195 A 
ATOM     36  O   UNL     1      -0.173   0.288  -1.662  0.00  0.00    -0.470 OA
ENDBRANCH  31  32
ENDBRANCH   1  31
TORSDOF 11
