REMARK  Name = ZINC39779638
REMARK  6 active torsions:
REMARK  status: ('A' for Active; 'I' for Inactive)
REMARK    1  A    between atoms: C_1  and  C_2
REMARK    2  A    between atoms: C_2  and  C_4
REMARK    3  A    between atoms: C_2  and  S_18
REMARK    4  A    between atoms: C_9  and  C_12
REMARK    5  A    between atoms: S_18  and  C_19
REMARK    6  A    between atoms: C_23  and  C_25
REMARK                            x       y       z     vdW  Elec       q    Type
REMARK                         _______ _______ _______ _____ _____    ______ ____
ROOT
ATOM      1  C   UNL     1      -0.019   1.526   0.010  0.00  0.00    +0.029 C 
ATOM      2  C   UNL     1       0.002  -0.004   0.002  0.00  0.00    +0.134 C 
ENDROOT
BRANCH   2   3
ATOM      3  C   UNL     1       0.707  -0.490  -1.238  0.00  0.00    +0.231 C 
ATOM      4  O   UNL     1       0.066  -0.782  -2.225  0.00  0.00    -0.274 OA
ATOM      5  N   UNL     1       2.051  -0.601  -1.250  0.00  0.00    -0.264 N 
ATOM      6  C   UNL     1       2.701  -1.049  -2.393  0.00  0.00    +0.165 A 
ATOM      7  N   UNL     1       3.991  -1.230  -2.603  0.00  0.00    -0.225 NA
ATOM      8  C   UNL     1       4.444  -1.669  -3.768  0.00  0.00    +0.080 A 
ATOM      9  C   UNL     1       3.557  -1.941  -4.772  0.00  0.00    +0.076 A 
ATOM     10  S   UNL     1       2.012  -1.541  -3.967  0.00  0.00    -0.060 S 
ATOM     11  H   UNL     1       2.563  -0.367  -0.460  0.00  0.00    +0.157 HD
BRANCH   8  12
ATOM     12  C   UNL     1       5.899  -1.864  -3.980  0.00  0.00    +0.001 A 
ATOM     13  C   UNL     1       6.371  -2.321  -5.210  0.00  0.00    +0.010 A 
ATOM     14  C   UNL     1       7.726  -2.501  -5.402  0.00  0.00    +0.001 A 
ATOM     15  C   UNL     1       8.614  -2.229  -4.377  0.00  0.00    +0.000 A 
ATOM     16  C   UNL     1       8.151  -1.776  -3.155  0.00  0.00    +0.001 A 
ATOM     17  C   UNL     1       6.799  -1.586  -2.953  0.00  0.00    +0.010 A 
ENDBRANCH   8  12
ENDBRANCH   2   3
BRANCH   2  18
ATOM     18  S   UNL     1      -1.700  -0.632   0.015  0.00  0.00    -0.084 S 
BRANCH  18  19
ATOM     19  C   UNL     1      -2.354  -0.095   1.619  0.00  0.00    +0.340 C 
ATOM     20  N   UNL     1      -2.276   1.371   1.741  0.00  0.00    -0.219 N 
ATOM     21  N   UNL     1      -1.437   1.613   2.839  0.00  0.00    -0.145 NA
ATOM     22  C   UNL     1      -1.032   0.482   3.353  0.00  0.00    +0.238 C 
ATOM     23  O   UNL     1      -1.533  -0.590   2.686  0.00  0.00    -0.443 OA
ATOM     24  H   UNL     1      -2.713   2.031   1.180  0.00  0.00    +0.173 HD
BRANCH  22  25
ATOM     25  C   UNL     1      -0.180   0.386   4.462  0.00  0.00    +0.043 C 
ATOM     26  C   UNL     1       0.366   1.437   5.200  0.00  0.00    +0.008 A 
ATOM     27  C   UNL     1       0.256   2.839   5.087  0.00  0.00    +0.010 A 
ATOM     28  C   UNL     1       0.913   3.640   5.965  0.00  0.00    +0.001 A 
ATOM     29  C   UNL     1       1.704   3.110   6.987  0.00  0.00    +0.002 A 
ATOM     30  C   UNL     1       1.855   1.773   7.154  0.00  0.00    +0.026 A 
ATOM     31  C   UNL     1       1.198   0.873   6.275  0.00  0.00    +0.043 A 
ATOM     32  N   UNL     1       1.184  -0.445   6.226  0.00  0.00    -0.380 N 
ATOM     33  C   UNL     1       0.333  -0.879   5.114  0.00  0.00    +0.154 C 
ATOM     34  H   UNL     1       1.659  -1.034   6.833  0.00  0.00    +0.160 HD
ENDBRANCH  22  25
ENDBRANCH  18  19
ENDBRANCH   2  18
TORSDOF 5
