REMARK  Name = ZINC37427075
REMARK  15 active torsions:
REMARK  status: ('A' for Active; 'I' for Inactive)
REMARK    1  A    between atoms: C_1  and  C_2
REMARK    2  A    between atoms: C_2  and  O_3
REMARK    3  A    between atoms: O_3  and  C_4
REMARK    4  A    between atoms: C_4  and  C_6
REMARK    5  A    between atoms: C_6  and  C_8
REMARK    6  A    between atoms: C_6  and  C_18
REMARK    7  A    between atoms: C_11  and  O_16
REMARK    8  A    between atoms: C_12  and  O_14
REMARK    9  A    between atoms: O_14  and  C_15
REMARK   10  A    between atoms: O_16  and  C_17
REMARK   11  A    between atoms: C_21  and  N_25
REMARK   12  A    between atoms: C_26  and  C_28
REMARK   13  A    between atoms: C_31  and  O_38
REMARK   14  A    between atoms: C_32  and  C_34
REMARK   15  A    between atoms: O_38  and  C_39
REMARK                            x       y       z     vdW  Elec       q    Type
REMARK                         _______ _______ _______ _____ _____    ______ ____
ROOT
ATOM      1  C   UNL     1       2.875  -1.761  -2.646  0.00  0.00    +0.032 C 
ATOM      2  C   UNL     1       2.808  -0.216  -2.681  0.00  0.00    +0.035 C 
ATOM      3  C   UNL     1       2.818   0.055  -4.204  0.00  0.00    +0.097 C 
ATOM      4  C   UNL     1       3.490  -1.157  -4.806  0.00  0.00    -0.009 C 
ATOM      5  C   UNL     1       3.522  -2.150  -3.955  0.00  0.00    -0.025 C 
ENDROOT
BRANCH   3   6
ATOM      6  N   UNL     1       1.449   0.186  -4.708  0.00  0.00    -0.305 N 
ATOM      7  C   UNL     1       1.209   0.895  -5.829  0.00  0.00    +0.245 C 
ATOM      8  O   UNL     1       2.128   1.425  -6.422  0.00  0.00    -0.270 OA
ATOM      9  H   UNL     1       0.716  -0.237  -4.235  0.00  0.00    +0.150 HD
BRANCH   7  10
ATOM     10  C   UNL     1      -0.171   1.026  -6.337  0.00  0.00    +0.037 A 
ATOM     11  C   UNL     1      -1.230   0.422  -5.654  0.00  0.00    +0.016 A 
ATOM     12  C   UNL     1      -2.515   0.547  -6.131  0.00  0.00    +0.047 A 
ATOM     13  C   UNL     1      -2.760   1.274  -7.290  0.00  0.00    +0.132 A 
ATOM     14  C   UNL     1      -1.710   1.877  -7.973  0.00  0.00    +0.097 A 
ATOM     15  C   UNL     1      -0.422   1.760  -7.499  0.00  0.00    +0.029 A 
BRANCH  14  16
ATOM     16  C   UNL     1      -1.982   2.663  -9.229  0.00  0.00    +0.421 C 
ATOM     17  F   UNL     1      -0.778   3.170  -9.731  0.00  0.00    -0.166 F 
ATOM     18  F   UNL     1      -2.570   1.828 -10.184  0.00  0.00    -0.166 F 
ATOM     19  F   UNL     1      -2.848   3.722  -8.938  0.00  0.00    -0.166 F 
ENDBRANCH  14  16
BRANCH  13  20
ATOM     20  O   UNL     1      -4.029   1.395  -7.758  0.00  0.00    -0.495 OA
ATOM     21  C   UNL     1      -5.061   0.751  -7.008  0.00  0.00    +0.277 C 
ENDBRANCH  13  20
ENDBRANCH   7  10
ENDBRANCH   3   6
BRANCH   1  22
ATOM     22  C   UNL     1       1.468  -2.353  -2.550  0.00  0.00    +0.135 C 
BRANCH  22  23
ATOM     23  C   UNL     1       1.547  -3.855  -2.650  0.00  0.00    -0.029 A 
ATOM     24  C   UNL     1       2.272  -4.571  -1.715  0.00  0.00    +0.008 A 
ATOM     25  C   UNL     1       2.348  -5.949  -1.802  0.00  0.00    +0.050 A 
ATOM     26  C   UNL     1       1.696  -6.615  -2.828  0.00  0.00    +0.162 A 
ATOM     27  C   UNL     1       0.967  -5.894  -3.769  0.00  0.00    +0.162 A 
ATOM     28  C   UNL     1       0.891  -4.514  -3.673  0.00  0.00    +0.053 A 
BRANCH  27  29
ATOM     29  O   UNL     1       0.326  -6.543  -4.778  0.00  0.00    -0.491 OA
ATOM     30  C   UNL     1      -0.403  -5.739  -5.707  0.00  0.00    +0.277 C 
ENDBRANCH  27  29
BRANCH  26  31
ATOM     31  O   UNL     1       1.770  -7.970  -2.916  0.00  0.00    -0.491 OA
ATOM     32  C   UNL     1       2.537  -8.644  -1.916  0.00  0.00    +0.277 C 
ENDBRANCH  26  31
ENDBRANCH  22  23
BRANCH  22  33
ATOM     33  C   UNL     1       0.850  -1.970  -1.230  0.00  0.00    +0.315 C 
ATOM     34  O   UNL     1       1.543  -1.867  -0.245  0.00  0.00    -0.250 OA
BRANCH  33  35
ATOM     35  O   UNL     1      -0.470  -1.742  -1.148  0.00  0.00    -0.464 OA
BRANCH  35  37
ATOM     36  C   UNL     1      -2.499  -1.164   0.032  0.00  0.00    +0.048 C 
ATOM     37  C   UNL     1      -0.988  -1.382   0.135  0.00  0.00    +0.229 C 
ENDBRANCH  35  37
ENDBRANCH  33  35
ENDBRANCH  22  33
ENDBRANCH   1  22
TORSDOF 11
