REMARK  Name = ZINC21741023
REMARK  9 active torsions:
REMARK  status: ('A' for Active; 'I' for Inactive)
REMARK    1  A    between atoms: C_1  and  C_2
REMARK    2  A    between atoms: C_2  and  C_3
REMARK    3  A    between atoms: C_3  and  N_4
REMARK    4  A    between atoms: C_8  and  S_10
REMARK    5  A    between atoms: S_10  and  C_11
REMARK    6  A    between atoms: C_11  and  C_12
REMARK    7  A    between atoms: N_17  and  C_18
REMARK    8  A    between atoms: C_21  and  C_25
REMARK    9  A    between atoms: C_22  and  C_24
REMARK                            x       y       z     vdW  Elec       q    Type
REMARK                         _______ _______ _______ _____ _____    ______ ____
ROOT
ATOM      1  C   UNL     1       3.364   2.085  -0.265  0.00  0.00    +0.231 C 
ATOM      2  O   UNL     1       3.196   3.261  -0.507  0.00  0.00    -0.274 OA
ATOM      3  N   UNL     1       2.301   1.276  -0.085  0.00  0.00    -0.239 N 
ATOM      4  C   UNL     1       1.052   1.775  -0.173  0.00  0.00    +0.310 C 
ATOM      5  O   UNL     1       0.884   2.954  -0.416  0.00  0.00    -0.252 OA
ATOM      6  N   UNL     1      -0.011   0.966   0.007  0.00  0.00    -0.269 N 
ATOM      7  H   UNL     1       2.453   0.209   0.135  0.00  0.00    +0.159 HD
ATOM      8  H   UNL     1       0.138  -0.116   0.144  0.00  0.00    +0.156 HD
ENDROOT
BRANCH   6   9
ATOM      9  C   UNL     1      -1.304   1.502   0.022  0.00  0.00    +0.035 A 
ATOM     10  C   UNL     1      -1.524   2.773   0.536  0.00  0.00    +0.023 A 
ATOM     11  C   UNL     1      -2.800   3.301   0.543  0.00  0.00    +0.005 A 
ATOM     12  C   UNL     1      -3.860   2.561   0.050  0.00  0.00    -0.047 A 
ATOM     13  C   UNL     1      -3.644   1.293  -0.457  0.00  0.00    -0.046 A 
ATOM     14  C   UNL     1      -2.369   0.761  -0.473  0.00  0.00    +0.027 A 
ATOM     15  C   UNL     1      -4.801   0.490  -0.993  0.00  0.00    +0.044 C 
ATOM     16  C   UNL     1      -5.252   3.138   0.066  0.00  0.00    +0.044 C 
ENDBRANCH   6   9
BRANCH   1  17
ATOM     17  C   UNL     1       4.760   1.527  -0.166  0.00  0.00    +0.172 C 
BRANCH  17  18
ATOM     18  S   UNL     1       5.963   2.854  -0.456  0.00  0.00    -0.088 S 
BRANCH  18  23
ATOM     19  N   UNL     1      11.455   1.025  -0.143  0.00  0.00    -0.322 N 
ATOM     20  C   UNL     1      10.081   1.231  -0.169  0.00  0.00    +0.182 A 
ATOM     21  N   UNL     1       9.103   0.368   0.022  0.00  0.00    -0.125 NA
ATOM     22  N   UNL     1       7.795   0.788  -0.049  0.00  0.00    -0.133 NA
ATOM     23  C   UNL     1       7.525   2.053  -0.308  0.00  0.00    +0.160 A 
ATOM     24  S   UNL     1       9.168   2.735  -0.477  0.00  0.00    -0.025 S 
ATOM     25  H   UNL     1      12.141   1.866  -0.325  0.00  0.00    +0.148 HD
BRANCH  19  26
ATOM     26  C   UNL     1      11.991  -0.312   0.128  0.00  0.00    +0.103 C 
BRANCH  26  28
ATOM     27  C   UNL     1      14.079  -1.660   0.381  0.00  0.00    +0.005 C 
ATOM     28  C   UNL     1      13.520  -0.264   0.099  0.00  0.00    +0.015 C 
ENDBRANCH  26  28
ENDBRANCH  19  26
ENDBRANCH  18  23
ENDBRANCH  17  18
ENDBRANCH   1  17
TORSDOF 6
