REMARK  Name = ZINC40120266
REMARK  9 active torsions:
REMARK  status: ('A' for Active; 'I' for Inactive)
REMARK    1  A    between atoms: C_1  and  C_2
REMARK    2  A    between atoms: C_3  and  C_25
REMARK    3  A    between atoms: C_7  and  N_8
REMARK    4  A    between atoms: N_11  and  C_12
REMARK    5  A    between atoms: C_15  and  C_24
REMARK    6  A    between atoms: C_19  and  C_21
REMARK    7  A    between atoms: C_21  and  C_22
REMARK    8  A    between atoms: C_21  and  C_23
REMARK    9  A    between atoms: N_27  and  C_28
REMARK                            x       y       z     vdW  Elec       q    Type
REMARK                         _______ _______ _______ _____ _____    ______ ____
ROOT
ATOM      1  N   UNL     1      -0.044  -0.220   2.742  0.00  0.00    -0.269 N 
ATOM      2  C   UNL     1       0.209  -0.766   3.948  0.00  0.00    +0.304 C 
ATOM      3  O   UNL     1       0.261  -1.975   4.069  0.00  0.00    -0.253 OA
ATOM      4  N   UNL     1       0.405   0.027   5.019  0.00  0.00    -0.296 N 
ATOM      5  H   UNL     1      -0.157   0.740   2.659  0.00  0.00    +0.156 HD
ATOM      6  H   UNL     1       0.364   0.992   4.923  0.00  0.00    +0.151 HD
ENDROOT
BRANCH   1  13
ATOM      7  C   UNL     1      -1.513   0.753   0.511  0.00  0.00    +0.046 C 
ATOM      8  C   UNL     1      -0.852  -0.601   0.501  0.00  0.00    -0.017 A 
ATOM      9  C   UNL     1      -0.944  -1.417  -0.627  0.00  0.00    +0.041 A 
ATOM     10  C   UNL     1      -0.328  -2.670  -0.628  0.00  0.00    +0.013 A 
ATOM     11  C   UNL     1       0.368  -3.097   0.484  0.00  0.00    +0.003 A 
ATOM     12  C   UNL     1       0.460  -2.289   1.601  0.00  0.00    +0.023 A 
ATOM     13  C   UNL     1      -0.145  -1.037   1.610  0.00  0.00    +0.038 A 
BRANCH   9  14
ATOM     14  C   UNL     1      -1.691  -0.956  -1.817  0.00  0.00    +0.244 C 
ATOM     15  O   UNL     1      -2.136   0.174  -1.855  0.00  0.00    -0.270 OA
ATOM     16  N   UNL     1      -1.880  -1.790  -2.858  0.00  0.00    -0.314 N 
ATOM     17  C   UNL     1      -2.620  -1.334  -4.037  0.00  0.00    +0.128 C 
ATOM     18  H   UNL     1      -1.525  -2.692  -2.828  0.00  0.00    +0.149 HD
ENDBRANCH   9  14
ENDBRANCH   1  13
BRANCH   4  19
ATOM     19  C   UNL     1       0.680  -0.567   6.330  0.00  0.00    +0.078 C 
ATOM     20  C   UNL     1       2.187  -0.783   6.486  0.00  0.00    +0.026 C 
ATOM     21  C   UNL     1       2.474  -1.403   7.855  0.00  0.00    -0.012 C 
ATOM     22  C   UNL     1       1.977  -0.464   8.955  0.00  0.00    +0.004 C 
ATOM     23  C   UNL     1       0.471  -0.247   8.799  0.00  0.00    +0.006 C 
ATOM     24  C   UNL     1       0.183   0.373   7.430  0.00  0.00    +0.012 C 
ATOM     25  C   UNL     1       3.981  -1.620   8.010  0.00  0.00    +0.007 C 
BRANCH  24  26
ATOM     26  C   UNL     1      -1.323   0.589   7.275  0.00  0.00    -0.012 C 
ATOM     27  C   UNL     1      -2.052  -0.742   7.470  0.00  0.00    +0.007 C 
ATOM     28  C   UNL     1      -1.806   1.593   8.323  0.00  0.00    +0.007 C 
ENDBRANCH  24  26
ENDBRANCH   4  19
TORSDOF 4
