REMARK  Name = ZINC39357999
REMARK  9 active torsions:
REMARK  status: ('A' for Active; 'I' for Inactive)
REMARK    1  A    between atoms: C_1  and  C_2
REMARK    2  A    between atoms: C_4  and  C_8
REMARK    3  A    between atoms: C_8  and  N_9
REMARK    4  A    between atoms: N_9  and  C_10
REMARK    5  A    between atoms: N_9  and  C_11
REMARK    6  A    between atoms: C_11  and  C_12
REMARK    7  A    between atoms: C_17  and  C_18
REMARK    8  A    between atoms: C_21  and  C_27
REMARK    9  A    between atoms: C_22  and  C_26
REMARK                            x       y       z     vdW  Elec       q    Type
REMARK                         _______ _______ _______ _____ _____    ______ ____
ROOT
ATOM      1  C   UNL     1      -0.076  -6.465  -2.353  0.00  0.00    -0.057 A 
ATOM      2  C   UNL     1       1.168  -6.694  -2.911  0.00  0.00    +0.002 A 
ATOM      3  C   UNL     1       1.801  -7.906  -2.713  0.00  0.00    +0.000 A 
ATOM      4  C   UNL     1       1.191  -8.890  -1.958  0.00  0.00    +0.000 A 
ATOM      5  C   UNL     1      -0.052  -8.661  -1.400  0.00  0.00    +0.007 A 
ATOM      6  C   UNL     1      -0.684  -7.447  -1.593  0.00  0.00    -0.008 A 
ENDROOT
BRANCH   6   7
ATOM      7  C   UNL     1      -2.038  -7.195  -0.980  0.00  0.00    +0.190 C 
ATOM      8  N   UNL     1      -1.873  -6.537   0.321  0.00  0.00    -0.318 N 
ATOM      9  C   UNL     1      -1.490  -7.294   1.399  0.00  0.00    +0.117 C 
ATOM     10  C   UNL     1      -1.849  -8.596   1.439  0.00  0.00    +0.037 C 
ATOM     11  C   UNL     1      -2.576  -9.157   0.364  0.00  0.00    +0.243 C 
ATOM     12  O   UNL     1      -3.064 -10.267   0.477  0.00  0.00    -0.270 OA
ATOM     13  N   UNL     1      -2.734  -8.472  -0.787  0.00  0.00    -0.289 N 
ATOM     14  C   UNL     1      -1.476  -9.448   2.625  0.00  0.00    +0.051 C 
ATOM     15  H   UNL     1      -2.030  -5.584   0.417  0.00  0.00    +0.148 HD
ATOM     16  H   UNL     1      -3.307  -8.821  -1.487  0.00  0.00    +0.151 HD
BRANCH   9  17
ATOM     17  C   UNL     1      -0.685  -6.686   2.518  0.00  0.00    +0.430 C 
ATOM     18  F   UNL     1       0.579  -7.283   2.561  0.00  0.00    -0.165 F 
ATOM     19  F   UNL     1      -0.544  -5.311   2.298  0.00  0.00    -0.165 F 
ATOM     20  F   UNL     1      -1.343  -6.898   3.735  0.00  0.00    -0.165 F 
ENDBRANCH   9  17
ENDBRANCH   6   7
BRANCH   1  21
ATOM     21  C   UNL     1      -0.767  -5.143  -2.568  0.00  0.00    -0.043 C 
BRANCH  21  22
ATOM     22  N   UNL     1      -0.559  -4.285  -1.394  0.00  0.00    +0.382 N 
ATOM     23  C   UNL     1       0.873  -3.987  -1.254  0.00  0.00    -0.096 C 
ATOM     24  H   UNL     1      -0.885  -4.761  -0.567  0.00  0.00    -0.082 HD
BRANCH  22  25
ATOM     25  C   UNL     1      -1.306  -3.032  -1.565  0.00  0.00    -0.046 C 
BRANCH  25  29
ATOM     26  C   UNL     1      -5.280  -0.965  -0.085  0.00  0.00    +0.067 C 
ATOM     27  C   UNL     1      -4.315  -2.047  -0.497  0.00  0.00    +0.058 C 
ATOM     28  C   UNL     1      -3.609  -2.041  -1.630  0.00  0.00    +0.024 C 
ATOM     29  C   UNL     1      -2.807  -3.329  -1.566  0.00  0.00    +0.136 C 
ATOM     30  N   UNL     1      -3.226  -3.917  -0.283  0.00  0.00    -0.182 NA
ATOM     31  N   UNL     1      -4.043  -3.151   0.233  0.00  0.00    -0.159 NA
ENDBRANCH  25  29
ENDBRANCH  22  25
ENDBRANCH  21  22
ENDBRANCH   1  21
TORSDOF 6
