REMARK  Name = ZINC40010992
REMARK  13 active torsions:
REMARK  status: ('A' for Active; 'I' for Inactive)
REMARK    1  A    between atoms: C_1  and  O_2
REMARK    2  A    between atoms: O_2  and  C_3
REMARK    3  A    between atoms: C_3  and  C_4
REMARK    4  A    between atoms: C_4  and  N_5
REMARK    5  A    between atoms: N_5  and  C_6
REMARK    6  A    between atoms: C_6  and  N_8
REMARK    7  A    between atoms: C_13  and  O_35
REMARK    8  A    between atoms: C_14  and  O_33
REMARK    9  A    between atoms: C_17  and  C_19
REMARK   10  A    between atoms: C_24  and  O_31
REMARK   11  A    between atoms: O_31  and  C_32
REMARK   12  A    between atoms: O_33  and  C_34
REMARK   13  A    between atoms: O_35  and  C_36
REMARK                            x       y       z     vdW  Elec       q    Type
REMARK                         _______ _______ _______ _____ _____    ______ ____
ROOT
ATOM      1  N   UNL     1      -2.322  -4.299  -1.227  0.00  0.00    -0.304 N 
ATOM      2  C   UNL     1      -3.418  -3.352  -1.493  0.00  0.00    +0.112 C 
ATOM      3  C   UNL     1      -3.962  -3.646  -2.890  0.00  0.00    +0.054 C 
ATOM      4  C   UNL     1      -4.198  -5.122  -3.076  0.00  0.00    -0.037 A 
ATOM      5  C   UNL     1      -5.067  -5.511  -4.088  0.00  0.00    +0.053 A 
ATOM      6  C   UNL     1      -5.323  -6.849  -4.321  0.00  0.00    +0.162 A 
ATOM      7  C   UNL     1      -4.703  -7.816  -3.534  0.00  0.00    +0.162 A 
ATOM      8  C   UNL     1      -3.842  -7.425  -2.525  0.00  0.00    +0.055 A 
ATOM      9  C   UNL     1      -3.593  -6.079  -2.292  0.00  0.00    -0.019 A 
ATOM     10  C   UNL     1      -2.663  -5.724  -1.164  0.00  0.00    +0.121 C 
ENDROOT
BRANCH  10  11
ATOM     11  C   UNL     1      -3.350  -6.024   0.170  0.00  0.00    +0.123 C 
ATOM     12  C   UNL     1      -2.352  -5.755   1.279  0.00  0.00    -0.002 C 
ATOM     13  C   UNL     1      -2.701  -4.839   2.226  0.00  0.00    -0.003 A 
ATOM     14  C   UNL     1      -1.796  -4.520   3.330  0.00  0.00    +0.055 A 
ATOM     15  C   UNL     1      -2.187  -3.599   4.254  0.00  0.00    +0.121 A 
ATOM     16  C   UNL     1      -3.429  -2.959   4.162  0.00  0.00    +0.047 A 
ATOM     17  C   UNL     1      -4.310  -3.213   3.161  0.00  0.00    +0.027 A 
ATOM     18  C   UNL     1      -4.001  -4.149   2.156  0.00  0.00    +0.041 A 
ATOM     19  N   UNL     1      -4.876  -4.388   1.179  0.00  0.00    -0.284 N 
ATOM     20  C   UNL     1      -4.651  -5.253   0.205  0.00  0.00    +0.226 C 
ATOM     21  O   UNL     1      -5.488  -5.429  -0.660  0.00  0.00    -0.275 OA
ATOM     22  H   UNL     1      -5.716  -3.904   1.182  0.00  0.00    +0.155 HD
BRANCH  15  23
ATOM     23  O   UNL     1      -1.355  -3.294   5.285  0.00  0.00    -0.495 OA
ATOM     24  C   UNL     1      -1.815  -2.321   6.224  0.00  0.00    +0.277 C 
ENDBRANCH  15  23
ENDBRANCH  10  11
BRANCH   1  25
ATOM     25  C   UNL     1      -1.055  -3.873  -1.054  0.00  0.00    +0.133 C 
ATOM     26  S   UNL     1      -0.714  -2.196  -1.008  0.00  0.00    -0.019 S 
BRANCH  25  27
ATOM     27  N   UNL     1      -0.056  -4.768  -0.918  0.00  0.00    -0.324 N 
ATOM     28  H   UNL     1      -0.257  -5.715  -0.870  0.00  0.00    +0.148 HD
BRANCH  27  29
ATOM     29  C   UNL     1       1.333  -4.308  -0.842  0.00  0.00    +0.131 C 
BRANCH  29  30
ATOM     30  C   UNL     1       2.261  -5.515  -0.691  0.00  0.00    +0.178 C 
BRANCH  30  32
ATOM     31  C   UNL     1       3.027  -7.479  -1.831  0.00  0.00    +0.194 C 
ATOM     32  O   UNL     1       2.193  -6.320  -1.869  0.00  0.00    -0.381 OA
ENDBRANCH  30  32
ENDBRANCH  29  30
ENDBRANCH  27  29
ENDBRANCH  25  27
ENDBRANCH   1  25
BRANCH   7  33
ATOM     33  O   UNL     1      -4.943  -9.136  -3.756  0.00  0.00    -0.491 OA
ATOM     34  C   UNL     1      -4.270 -10.069  -2.907  0.00  0.00    +0.277 C 
ENDBRANCH   7  33
BRANCH   6  35
ATOM     35  O   UNL     1      -6.176  -7.220  -5.313  0.00  0.00    -0.491 OA
ATOM     36  C   UNL     1      -6.775  -6.173  -6.079  0.00  0.00    +0.277 C 
ENDBRANCH   6  35
TORSDOF 9
