REMARK  Name = ZINC64656845
REMARK  6 active torsions:
REMARK  status: ('A' for Active; 'I' for Inactive)
REMARK    1  A    between atoms: C_1  and  C_2
REMARK    2  A    between atoms: C_2  and  O_3
REMARK    3  A    between atoms: O_3  and  C_4
REMARK    4  A    between atoms: C_9  and  C_10
REMARK    5  A    between atoms: C_20  and  S_21
REMARK    6  A    between atoms: S_21  and  C_24
REMARK                            x       y       z     vdW  Elec       q    Type
REMARK                         _______ _______ _______ _____ _____    ______ ____
ROOT
ATOM      1  C   UNL     1      -4.072  -0.793  -0.645  0.00  0.00    +0.070 C 
ATOM      2  C   UNL     1      -4.719  -1.078   0.717  0.00  0.00    +0.109 C 
ATOM      3  C   UNL     1      -5.352  -2.440   0.727  0.00  0.00    +0.218 C 
ATOM      4  O   UNL     1      -5.280  -3.103   1.740  0.00  0.00    -0.275 OA
ATOM      5  N   UNL     1      -5.996  -2.959  -0.333  0.00  0.00    -0.283 N 
ATOM      6  C   UNL     1      -5.907  -2.288  -1.587  0.00  0.00    +0.070 A 
ATOM      7  C   UNL     1      -5.000  -1.270  -1.712  0.00  0.00    +0.021 A 
ATOM      8  S   UNL     1      -5.215  -0.714  -3.377  0.00  0.00    -0.097 S 
ATOM      9  C   UNL     1      -6.484  -1.878  -3.858  0.00  0.00    +0.074 A 
ATOM     10  C   UNL     1      -6.659  -2.594  -2.718  0.00  0.00    +0.122 A 
ATOM     11  H   UNL     1      -6.511  -3.776  -0.246  0.00  0.00    +0.155 HD
ENDROOT
BRANCH   1  17
ATOM     12  C   UNL     1      -1.584  -0.819  -0.955  0.00  0.00    +0.124 A 
ATOM     13  C   UNL     1      -0.376  -1.497  -1.044  0.00  0.00    +0.046 A 
ATOM     14  C   UNL     1      -0.348  -2.873  -0.932  0.00  0.00    +0.004 A 
ATOM     15  C   UNL     1      -1.522  -3.576  -0.732  0.00  0.00    +0.001 A 
ATOM     16  C   UNL     1      -2.727  -2.903  -0.643  0.00  0.00    +0.008 A 
ATOM     17  C   UNL     1      -2.759  -1.526  -0.748  0.00  0.00    +0.003 A 
BRANCH  12  18
ATOM     18  O   UNL     1      -1.614   0.535  -1.064  0.00  0.00    -0.492 OA
BRANCH  18  20
ATOM     19  C   UNL     1      -0.598   2.706  -1.372  0.00  0.00    +0.048 C 
ATOM     20  C   UNL     1      -0.365   1.197  -1.276  0.00  0.00    +0.225 C 
ENDBRANCH  18  20
ENDBRANCH  12  18
ENDBRANCH   1  17
BRANCH  10  21
ATOM     21  S   UNL     1      -7.833  -3.907  -2.670  0.00  0.00    +0.027 S 
ATOM     22  O   UNL     1      -8.440  -3.957  -3.954  0.00  0.00    -0.164 OA
ATOM     23  O   UNL     1      -7.168  -5.026  -2.098  0.00  0.00    -0.164 OA
BRANCH  21  24
ATOM     24  C   UNL     1      -9.095  -3.436  -1.534  0.00  0.00    +0.094 A 
ATOM     25  C   UNL     1      -9.045  -3.877  -0.224  0.00  0.00    +0.029 A 
ATOM     26  C   UNL     1     -10.035  -3.508   0.667  0.00  0.00    +0.022 A 
ATOM     27  C   UNL     1     -11.075  -2.697   0.249  0.00  0.00    +0.041 A 
ATOM     28  C   UNL     1     -11.124  -2.256  -1.061  0.00  0.00    +0.022 A 
ATOM     29  C   UNL     1     -10.131  -2.621  -1.950  0.00  0.00    +0.029 A 
ATOM     30 CL   UNL     1     -12.318  -2.234   1.369  0.00  0.00    -0.084 Cl
ENDBRANCH  21  24
ENDBRANCH  10  21
TORSDOF 5
