REMARK  Name = ZINC67203546
REMARK  8 active torsions:
REMARK  status: ('A' for Active; 'I' for Inactive)
REMARK    1  A    between atoms: C_1  and  C_2
REMARK    2  A    between atoms: C_2  and  C_4
REMARK    3  A    between atoms: C_2  and  N_18
REMARK    4  A    between atoms: C_19  and  O_21
REMARK    5  A    between atoms: O_21  and  C_22
REMARK    6  A    between atoms: C_22  and  C_23
REMARK    7  A    between atoms: C_22  and  C_24
REMARK    8  A    between atoms: C_22  and  C_25
REMARK                            x       y       z     vdW  Elec       q    Type
REMARK                         _______ _______ _______ _____ _____    ______ ____
ROOT
ATOM      1  C   UNL     1      -1.420  -0.486   0.130  0.00  0.00    +0.236 C 
ATOM      2  O   UNL     1      -1.880  -1.244  -0.698  0.00  0.00    -0.274 OA
ATOM      3  N   UNL     1      -2.181  -0.075   1.163  0.00  0.00    -0.292 N 
ATOM      4  C   UNL     1      -1.690   0.933   2.117  0.00  0.00    +0.136 C 
ATOM      5  C   UNL     1      -1.885   0.397   3.539  0.00  0.00    +0.179 C 
ATOM      6  O   UNL     1      -3.240  -0.033   3.704  0.00  0.00    -0.373 OA
ATOM      7  C   UNL     1      -3.619  -1.097   2.831  0.00  0.00    +0.139 C 
ATOM      8  C   UNL     1      -3.538  -0.613   1.375  0.00  0.00    +0.105 C 
ATOM      9  C   UNL     1      -4.544   0.517   1.149  0.00  0.00    +0.025 C 
ATOM     10  C   UNL     1      -5.958   0.020   1.452  0.00  0.00    +0.002 C 
ATOM     11  C   UNL     1      -6.034  -0.425   2.915  0.00  0.00    +0.003 C 
ATOM     12  C   UNL     1      -5.038  -1.562   3.144  0.00  0.00    +0.033 C 
ENDROOT
BRANCH   1  14
ATOM     13  C   UNL     1       0.018   1.369  -0.669  0.00  0.00    +0.038 C 
ATOM     14  C   UNL     1       0.003  -0.005   0.003  0.00  0.00    +0.159 C 
BRANCH  14  15
ATOM     15  N   UNL     1       0.768  -0.954  -0.809  0.00  0.00    -0.270 N 
ATOM     16  C   UNL     1       2.105  -1.040  -0.663  0.00  0.00    +0.401 C 
ATOM     17  O   UNL     1       2.675  -0.332   0.142  0.00  0.00    -0.226 OA
ATOM     18  H   UNL     1       0.313  -1.520  -1.452  0.00  0.00    +0.153 HD
BRANCH  16  19
ATOM     19  O   UNL     1       2.809  -1.912  -1.410  0.00  0.00    -0.445 OA
BRANCH  19  20
ATOM     20  C   UNL     1       4.222  -1.951  -1.202  0.00  0.00    +0.107 C 
ATOM     21  C   UNL     1       4.514  -2.325   0.252  0.00  0.00    +0.055 C 
ATOM     22  C   UNL     1       4.846  -2.993  -2.132  0.00  0.00    +0.055 C 
ATOM     23  C   UNL     1       4.820  -0.575  -1.505  0.00  0.00    +0.055 C 
ENDBRANCH  19  20
ENDBRANCH  16  19
ENDBRANCH  14  15
ENDBRANCH   1  14
TORSDOF 4
