REMARK  Name = ZINC63588829
REMARK  9 active torsions:
REMARK  status: ('A' for Active; 'I' for Inactive)
REMARK    1  A    between atoms: C_1  and  C_2
REMARK    2  A    between atoms: C_7  and  N_8
REMARK    3  A    between atoms: N_10  and  C_11
REMARK    4  A    between atoms: C_11  and  C_12
REMARK    5  A    between atoms: C_12  and  C_13
REMARK    6  A    between atoms: N_22  and  C_23
REMARK    7  A    between atoms: C_23  and  C_25
REMARK    8  A    between atoms: C_28  and  N_31
REMARK    9  A    between atoms: C_32  and  C_34
REMARK                            x       y       z     vdW  Elec       q    Type
REMARK                         _______ _______ _______ _____ _____    ______ ____
ROOT
ATOM      1  N   UNL     1      -1.586  -1.167   3.821  0.00  0.00    -0.328 N 
ATOM      2  C   UNL     1      -0.790  -1.495   4.880  0.00  0.00    +0.194 C 
ATOM      3  N   UNL     1      -0.500  -0.560   5.831  0.00  0.00    -0.357 N 
ATOM      4  N   UNL     1      -0.298  -2.720   4.985  0.00  0.00    -0.143 NA
ATOM      5  H   UNL     1       0.108  -0.777   6.555  0.00  0.00    +0.162 HD
ATOM      6  H   UNL     1      -2.485  -1.524   3.761  0.00  0.00    +0.169 HD
ENDROOT
BRANCH   1  13
ATOM      7  C   UNL     1      -3.421  -0.216   1.865  0.00  0.00    +0.046 C 
ATOM      8  C   UNL     1      -1.965   0.172   1.847  0.00  0.00    -0.026 A 
ATOM      9  C   UNL     1      -1.488   1.018   0.864  0.00  0.00    +0.025 A 
ATOM     10  C   UNL     1      -0.151   1.375   0.847  0.00  0.00    +0.041 A 
ATOM     11  C   UNL     1       0.711   0.886   1.813  0.00  0.00    +0.022 A 
ATOM     12  C   UNL     1       0.239   0.041   2.797  0.00  0.00    +0.027 A 
ATOM     13  C   UNL     1      -1.103  -0.315   2.821  0.00  0.00    +0.045 A 
ATOM     14 CL   UNL     1       0.446   2.437  -0.390  0.00  0.00    -0.084 Cl
ENDBRANCH   1  13
BRANCH   4  15
ATOM     15  C   UNL     1      -0.411  -3.577   3.961  0.00  0.00    +0.270 C 
ATOM     16  O   UNL     1      -0.862  -3.196   2.895  0.00  0.00    -0.268 OA
BRANCH  15  17
ATOM     17  C   UNL     1       0.012  -4.984   4.125  0.00  0.00    +0.039 A 
ATOM     18  C   UNL     1       0.417  -5.452   5.377  0.00  0.00    +0.015 A 
ATOM     19  C   UNL     1       0.810  -6.763   5.526  0.00  0.00    +0.024 A 
ATOM     20  C   UNL     1       0.804  -7.622   4.432  0.00  0.00    +0.033 A 
ATOM     21  C   UNL     1       0.402  -7.159   3.183  0.00  0.00    +0.024 A 
ATOM     22  C   UNL     1       0.002  -5.850   3.029  0.00  0.00    +0.015 A 
BRANCH  20  23
ATOM     23  N   UNL     1       1.204  -8.949   4.586  0.00  0.00    -0.286 N 
ATOM     24  C   UNL     1       0.994  -9.584   5.756  0.00  0.00    +0.214 C 
ATOM     25  O   UNL     1       0.366  -9.038   6.639  0.00  0.00    -0.276 OA
ATOM     26  C   UNL     1       1.539 -10.973   5.968  0.00  0.00    +0.109 C 
ATOM     27  H   UNL     1       1.632  -9.416   3.851  0.00  0.00    +0.155 HD
ENDBRANCH  20  23
ENDBRANCH  15  17
ENDBRANCH   4  15
BRANCH   3  28
ATOM     28  C   UNL     1      -1.109   0.771   5.759  0.00  0.00    +0.120 C 
BRANCH  28  29
ATOM     29  C   UNL     1      -0.581   1.636   6.905  0.00  0.00    +0.054 C 
BRANCH  29  30
ATOM     30  C   UNL     1      -1.293   2.963   6.902  0.00  0.00    -0.040 C 
ATOM     31  C   UNL     1      -2.488   3.247   7.470  0.00  0.00    -0.001 A 
ATOM     32  C   UNL     1      -3.445   2.434   8.231  0.00  0.00    +0.010 A 
ATOM     33  C   UNL     1      -4.583   3.010   8.681  0.00  0.00    +0.001 A 
ATOM     34  C   UNL     1      -4.870   4.361   8.439  0.00  0.00    +0.002 A 
ATOM     35  C   UNL     1      -4.040   5.171   7.749  0.00  0.00    +0.026 A 
ATOM     36  C   UNL     1      -2.815   4.670   7.229  0.00  0.00    +0.043 A 
ATOM     37  N   UNL     1      -1.859   5.245   6.539  0.00  0.00    -0.380 N 
ATOM     38  C   UNL     1      -0.815   4.251   6.270  0.00  0.00    +0.144 C 
ATOM     39  H   UNL     1      -1.844   6.173   6.258  0.00  0.00    +0.160 HD
ENDBRANCH  29  30
ENDBRANCH  28  29
ENDBRANCH   3  28
TORSDOF 7
