REMARK  Name = ZINC41095363
REMARK  6 active torsions:
REMARK  status: ('A' for Active; 'I' for Inactive)
REMARK    1  A    between atoms: C_1  and  C_2
REMARK    2  A    between atoms: C_5  and  C_8
REMARK    3  A    between atoms: C_8  and  C_25
REMARK    4  A    between atoms: N_11  and  C_15
REMARK    5  A    between atoms: C_15  and  C_16
REMARK    6  A    between atoms: C_21  and  N_22
REMARK                            x       y       z     vdW  Elec       q    Type
REMARK                         _______ _______ _______ _____ _____    ______ ____
ROOT
ATOM      1  C   UNL     1       0.144  -4.352  -0.259  0.00  0.00    +0.135 C 
ATOM      2  C   UNL     1       0.904  -4.831   0.962  0.00  0.00    +0.251 C 
ATOM      3  O   UNL     1       0.632  -4.618   2.124  0.00  0.00    -0.272 OA
ATOM      4  N   UNL     1       1.944  -5.545   0.487  0.00  0.00    -0.219 N 
ATOM      5  C   UNL     1       1.946  -5.582  -0.851  0.00  0.00    +0.310 C 
ATOM      6  O   UNL     1       2.785  -6.166  -1.508  0.00  0.00    -0.252 OA
ATOM      7  N   UNL     1       0.916  -4.902  -1.386  0.00  0.00    -0.281 N 
ATOM      8  C   UNL     1      -1.282  -4.906  -0.261  0.00  0.00    +0.047 C 
ATOM      9  H   UNL     1       0.720  -4.796  -2.330  0.00  0.00    +0.152 HD
ENDROOT
BRANCH   1  14
ATOM     10  C   UNL     1       0.070   1.423  -0.471  0.00  0.00    +0.044 C 
ATOM     11  C   UNL     1       0.089  -0.083  -0.416  0.00  0.00    -0.050 A 
ATOM     12  C   UNL     1       0.147  -0.817  -1.586  0.00  0.00    +0.004 A 
ATOM     13  C   UNL     1       0.165  -2.199  -1.535  0.00  0.00    +0.006 A 
ATOM     14  C   UNL     1       0.125  -2.846  -0.314  0.00  0.00    -0.015 A 
ATOM     15  C   UNL     1       0.068  -2.112   0.856  0.00  0.00    +0.006 A 
ATOM     16  C   UNL     1       0.055  -0.731   0.805  0.00  0.00    +0.004 A 
ENDBRANCH   1  14
BRANCH   4  17
ATOM     17  C   UNL     1       2.947  -6.198   1.331  0.00  0.00    +0.155 C 
BRANCH  17  18
ATOM     18  C   UNL     1       2.453  -7.563   1.734  0.00  0.00    +0.001 A 
ATOM     19  C   UNL     1       1.235  -8.023   1.269  0.00  0.00    +0.007 A 
ATOM     20  C   UNL     1       0.782  -9.275   1.639  0.00  0.00    +0.000 A 
ATOM     21  C   UNL     1       1.547 -10.068   2.474  0.00  0.00    +0.002 A 
ATOM     22  C   UNL     1       2.764  -9.608   2.939  0.00  0.00    +0.033 A 
ATOM     23  C   UNL     1       3.220  -8.358   2.565  0.00  0.00    +0.131 A 
BRANCH  23  24
ATOM     24  N   UNL     1       4.527  -7.868   3.059  0.00  0.00    +0.057 N 
ATOM     25  O   UNL     1       5.245  -8.601   3.698  0.00  0.00    -0.126 OA
ATOM     26  O   UNL     1       4.876  -6.735   2.823  0.00  0.00    -0.126 OA
ENDBRANCH  23  24
ENDBRANCH  17  18
ENDBRANCH   4  17
TORSDOF 4
