REMARK  Name = ZINC66825025
REMARK  7 active torsions:
REMARK  status: ('A' for Active; 'I' for Inactive)
REMARK    1  A    between atoms: C_5  and  C_7
REMARK    2  A    between atoms: N_12  and  C_14
REMARK    3  A    between atoms: C_14  and  C_15
REMARK    4  A    between atoms: C_15  and  C_16
REMARK    5  A    between atoms: C_16  and  O_17
REMARK    6  A    between atoms: O_17  and  C_18
REMARK    7  A    between atoms: C_21  and  N_24
REMARK                            x       y       z     vdW  Elec       q    Type
REMARK                         _______ _______ _______ _____ _____    ______ ____
ROOT
ATOM      1  C   UNL     1       1.246  -2.165  -0.022  0.00  0.00    +0.094 A 
ATOM      2  C   UNL     1       0.032  -2.892  -0.019  0.00  0.00    +0.035 A 
ATOM      3  C   UNL     1       0.095  -4.254  -0.028  0.00  0.00    +0.074 A 
ATOM      4  C   UNL     1       1.372  -4.856  -0.039  0.00  0.00    +0.267 A 
ATOM      5  O   UNL     1       1.478  -6.072  -0.047  0.00  0.00    -0.266 OA
ATOM      6  N   UNL     1       2.472  -4.080  -0.040  0.00  0.00    -0.229 N 
ATOM      7  N   UNL     1       2.395  -2.799  -0.037  0.00  0.00    -0.168 NA
ENDROOT
BRANCH   1  12
ATOM      8  C   UNL     1      -0.017   1.376   0.010  0.00  0.00    +0.001 A 
ATOM      9  C   UNL     1       1.170   2.087   0.002  0.00  0.00    +0.003 A 
ATOM     10  C   UNL     1       2.382   1.422  -0.013  0.00  0.00    +0.039 A 
ATOM     11  C   UNL     1       2.414   0.040  -0.021  0.00  0.00    +0.133 A 
ATOM     12  C   UNL     1       1.219  -0.682  -0.013  0.00  0.00    +0.037 A 
ATOM     13  C   UNL     1       0.002  -0.004   0.002  0.00  0.00    +0.013 A 
ATOM     14  F   UNL     1       3.598  -0.610  -0.037  0.00  0.00    -0.205 F 
ENDBRANCH   1  12
BRANCH   6  15
ATOM     15  C   UNL     1       3.792  -4.715  -0.051  0.00  0.00    +0.151 C 
BRANCH  15  16
ATOM     16  C   UNL     1       4.244  -4.927  -1.498  0.00  0.00    +0.064 C 
BRANCH  16  17
ATOM     17  C   UNL     1       5.623  -5.590  -1.509  0.00  0.00    +0.231 C 
BRANCH  17  18
ATOM     18  O   UNL     1       6.045  -5.788  -2.860  0.00  0.00    -0.492 OA
BRANCH  18  19
ATOM     19  C   UNL     1       7.258  -6.371  -3.048  0.00  0.00    +0.121 A 
ATOM     20  C   UNL     1       8.024  -6.749  -1.955  0.00  0.00    +0.048 A 
ATOM     21  C   UNL     1       9.257  -7.342  -2.149  0.00  0.00    +0.036 A 
ATOM     22  C   UNL     1       9.727  -7.558  -3.432  0.00  0.00    +0.126 A 
ATOM     23  C   UNL     1       8.966  -7.181  -4.522  0.00  0.00    +0.036 A 
ATOM     24  C   UNL     1       7.730  -6.593  -4.334  0.00  0.00    +0.048 A 
BRANCH  22  25
ATOM     25  N   UNL     1      11.048  -8.193  -3.637  0.00  0.00    +0.056 N 
ATOM     26  O   UNL     1      11.715  -8.522  -2.683  0.00  0.00    -0.126 OA
ATOM     27  O   UNL     1      11.461  -8.382  -4.757  0.00  0.00    -0.126 OA
ENDBRANCH  22  25
ENDBRANCH  18  19
ENDBRANCH  17  18
ENDBRANCH  16  17
ENDBRANCH  15  16
ENDBRANCH   6  15
TORSDOF 7
