REMARK  Name = ZINC28579281
REMARK  3 active torsions:
REMARK  status: ('A' for Active; 'I' for Inactive)
REMARK    1  A    between atoms: C_5  and  N_7
REMARK    2  A    between atoms: N_10  and  C_11
REMARK    3  A    between atoms: C_12  and  C_22
REMARK                            x       y       z     vdW  Elec       q    Type
REMARK                         _______ _______ _______ _____ _____    ______ ____
ROOT
ATOM      1  N   UNL     1      -1.411   1.705  -7.172  0.00  0.00    -0.268 N 
ATOM      2  C   UNL     1      -1.719   1.642  -5.862  0.00  0.00    +0.309 C 
ATOM      3  O   UNL     1      -2.879   1.530  -5.514  0.00  0.00    -0.252 OA
ATOM      4  N   UNL     1      -0.742   1.703  -4.936  0.00  0.00    -0.263 N 
ATOM      5  H   UNL     1      -0.371   1.881  -7.485  0.00  0.00    +0.156 HD
ATOM      6  H   UNL     1       0.308   1.805  -5.250  0.00  0.00    +0.157 HD
ENDROOT
BRANCH   4   7
ATOM      7  C   UNL     1      -1.057   1.639  -3.594  0.00  0.00    +0.083 C 
ATOM      8  C   UNL     1      -0.186   1.687  -2.528  0.00  0.00    +0.061 C 
ATOM      9  C   UNL     1      -0.781   1.641  -1.188  0.00  0.00    +0.045 C 
ATOM     10  C   UNL     1      -0.017   1.136   0.013  0.00  0.00    +0.010 C 
ATOM     11  C   UNL     1      -0.777   1.653   1.252  0.00  0.00    +0.001 C 
ATOM     12  C   UNL     1      -2.240   1.218   1.236  0.00  0.00    +0.001 C 
ATOM     13  C   UNL     1      -2.953   1.601  -0.072  0.00  0.00    +0.015 C 
ATOM     14  C   UNL     1      -2.170   0.940  -1.200  0.00  0.00    +0.061 C 
ATOM     15  S   UNL     1      -2.687   1.475  -2.869  0.00  0.00    -0.105 S 
BRANCH   8  16
ATOM     16  C   UNL     1       1.231   1.776  -2.720  0.00  0.00    +0.097 C 
ATOM     17  N   UNL     1       2.354   1.848  -2.871  0.00  0.00    -0.191 NA
ENDBRANCH   8  16
ENDBRANCH   4   7
BRANCH   1  22
ATOM     18  C   UNL     1      -4.681   1.875  -8.846  0.00  0.00    +0.002 A 
ATOM     19  C   UNL     1      -4.399   1.236 -10.040  0.00  0.00    +0.002 A 
ATOM     20  C   UNL     1      -3.127   0.753 -10.285  0.00  0.00    +0.022 A 
ATOM     21  C   UNL     1      -2.133   0.907  -9.336  0.00  0.00    +0.062 A 
ATOM     22  C   UNL     1      -2.415   1.548  -8.135  0.00  0.00    +0.053 A 
ATOM     23  C   UNL     1      -3.695   2.026  -7.891  0.00  0.00    +0.025 A 
ATOM     24 CL   UNL     1      -0.536   0.300  -9.643  0.00  0.00    -0.082 Cl
ENDBRANCH   1  22
TORSDOF 3
