REMARK  Name = ZINC13023041
REMARK  7 active torsions:
REMARK  status: ('A' for Active; 'I' for Inactive)
REMARK    1  A    between atoms: C_1  and  C_2
REMARK    2  A    between atoms: C_4  and  C_29
REMARK    3  A    between atoms: C_6  and  S_10
REMARK    4  A    between atoms: C_7  and  C_8
REMARK    5  A    between atoms: S_10  and  C_11
REMARK    6  A    between atoms: C_11  and  C_12
REMARK    7  A    between atoms: N_14  and  C_15
REMARK                            x       y       z     vdW  Elec       q    Type
REMARK                         _______ _______ _______ _____ _____    ______ ____
ROOT
ATOM      1  C   UNL     1      -3.601   1.691   0.130  0.00  0.00    +0.227 C 
ATOM      2  O   UNL     1      -3.621   2.903   0.137  0.00  0.00    -0.275 OA
ATOM      3  N   UNL     1      -2.428   1.037   0.019  0.00  0.00    -0.285 N 
ATOM      4  H   UNL     1      -2.417   0.070  -0.064  0.00  0.00    +0.155 HD
ENDROOT
BRANCH   3   5
ATOM      5  C   UNL     1      -1.224   1.753   0.023  0.00  0.00    +0.037 A 
ATOM      6  C   UNL     1      -0.148   1.307  -0.733  0.00  0.00    +0.027 A 
ATOM      7  C   UNL     1       1.042   2.009  -0.725  0.00  0.00    +0.051 A 
ATOM      8  C   UNL     1       1.164   3.163   0.033  0.00  0.00    +0.167 A 
ATOM      9  C   UNL     1       0.085   3.615   0.788  0.00  0.00    +0.169 A 
ATOM     10  C   UNL     1      -1.107   2.911   0.779  0.00  0.00    +0.072 A 
ATOM     11  O   UNL     1       0.455   4.759   1.438  0.00  0.00    -0.447 OA
ATOM     12  C   UNL     1       1.639   5.213   0.767  0.00  0.00    +0.254 C 
ATOM     13  O   UNL     1       2.212   4.022   0.209  0.00  0.00    -0.448 OA
ATOM     14  C   UNL     1       2.602   5.848   1.765  0.00  0.00    +0.093 C 
ATOM     15  C   UNL     1       1.958   7.098   2.372  0.00  0.00    +0.008 C 
ATOM     16  C   UNL     1       1.625   8.091   1.258  0.00  0.00    +0.000 C 
ATOM     17  C   UNL     1       0.642   7.448   0.276  0.00  0.00    +0.008 C 
ATOM     18  C   UNL     1       1.280   6.199  -0.338  0.00  0.00    +0.093 C 
ENDBRANCH   3   5
BRANCH   1  19
ATOM     19  C   UNL     1      -4.888   0.915   0.245  0.00  0.00    +0.171 C 
BRANCH  19  20
ATOM     20  S   UNL     1      -6.277   2.067   0.378  0.00  0.00    -0.096 S 
BRANCH  20  26
ATOM     21  C   UNL     1     -11.405   0.927   0.845  0.00  0.00    +0.045 C 
ATOM     22  C   UNL     1      -9.976   0.470   0.712  0.00  0.00    -0.032 A 
ATOM     23  C   UNL     1      -9.662  -0.877   0.677  0.00  0.00    +0.027 A 
ATOM     24  C   UNL     1      -8.340  -1.267   0.554  0.00  0.00    +0.040 A 
ATOM     25  N   UNL     1      -7.371  -0.378   0.463  0.00  0.00    -0.245 NA
ATOM     26  C   UNL     1      -7.613   0.924   0.496  0.00  0.00    +0.112 A 
ATOM     27  C   UNL     1      -8.931   1.398   0.620  0.00  0.00    +0.098 A 
ATOM     28  C   UNL     1      -8.003  -2.735   0.516  0.00  0.00    +0.065 C 
BRANCH  27  29
ATOM     29  C   UNL     1      -9.209   2.844   0.652  0.00  0.00    +0.389 C 
ATOM     30  O   UNL     1      -9.419   3.446  -0.383  0.00  0.00    -0.240 OA
ATOM     31  O   UNL     1      -9.228   3.501   1.829  0.00  0.00    -0.240 OA
ENDBRANCH  27  29
ENDBRANCH  20  26
ENDBRANCH  19  20
ENDBRANCH   1  19
TORSDOF 5
