REMARK  Name = ZINC40568163
REMARK  15 active torsions:
REMARK  status: ('A' for Active; 'I' for Inactive)
REMARK    1  A    between atoms: C_1  and  C_2
REMARK    2  A    between atoms: N_8  and  C_9
REMARK    3  A    between atoms: C_9  and  C_10
REMARK    4  A    between atoms: C_10  and  N_11
REMARK    5  A    between atoms: N_11  and  C_12
REMARK    6  A    between atoms: N_11  and  C_13
REMARK    7  A    between atoms: C_14  and  C_24
REMARK    8  A    between atoms: C_16  and  C_20
REMARK    9  A    between atoms: C_17  and  N_19
REMARK   10  A    between atoms: C_20  and  O_22
REMARK   11  A    between atoms: O_22  and  C_23
REMARK   12  A    between atoms: C_26  and  O_32
REMARK   13  A    between atoms: C_29  and  O_30
REMARK   14  A    between atoms: O_30  and  C_31
REMARK   15  A    between atoms: O_32  and  C_33
REMARK                            x       y       z     vdW  Elec       q    Type
REMARK                         _______ _______ _______ _____ _____    ______ ____
ROOT
ATOM      1  C   UNL     1      -0.026   1.501   0.017  0.00  0.00    +0.064 C 
ATOM      2  C   UNL     1       0.005  -0.005   0.006  0.00  0.00    +0.022 A 
ATOM      3  C   UNL     1      -0.016  -0.664  -1.172  0.00  0.00    +0.068 A 
ATOM      4  C   UNL     1       0.014  -2.074  -1.188  0.00  0.00    +0.141 A 
ATOM      5  C   UNL     1       0.063  -2.754   0.010  0.00  0.00    +0.071 A 
ATOM      6  C   UNL     1       0.084  -2.028   1.209  0.00  0.00    +0.259 A 
ATOM      7  O   UNL     1       0.128  -2.617   2.277  0.00  0.00    -0.267 OA
ATOM      8  N   UNL     1       0.060  -0.683   1.183  0.00  0.00    -0.314 N 
ATOM      9  C   UNL     1       0.094  -4.257   0.041  0.00  0.00    +0.103 C 
ATOM     10  C   UNL     1       0.463  -4.795  -1.314  0.00  0.00    +0.105 C 
ATOM     11  C   UNL     1       0.393  -4.015  -2.423  0.00  0.00    +0.195 C 
ATOM     12  O   UNL     1      -0.007  -2.734  -2.365  0.00  0.00    -0.441 OA
ENDROOT
BRANCH   9  13
ATOM     13  C   UNL     1      -1.266  -4.777   0.429  0.00  0.00    +0.010 A 
ATOM     14  C   UNL     1      -2.366  -4.485  -0.354  0.00  0.00    +0.053 A 
ATOM     15  C   UNL     1      -3.618  -4.964   0.003  0.00  0.00    +0.121 A 
ATOM     16  C   UNL     1      -3.765  -5.736   1.145  0.00  0.00    +0.049 A 
ATOM     17  C   UNL     1      -2.666  -6.028   1.928  0.00  0.00    +0.049 A 
ATOM     18  C   UNL     1      -1.413  -5.554   1.568  0.00  0.00    +0.124 A 
BRANCH  18  19
ATOM     19  O   UNL     1      -0.329  -5.846   2.336  0.00  0.00    -0.495 OA
ATOM     20  C   UNL     1      -0.553  -6.651   3.495  0.00  0.00    +0.277 C 
ENDBRANCH  18  19
BRANCH  15  21
ATOM     21  O   UNL     1      -4.701  -4.676  -0.768  0.00  0.00    -0.495 OA
ATOM     22  C   UNL     1      -5.959  -5.202  -0.341  0.00  0.00    +0.277 C 
ENDBRANCH  15  21
ENDBRANCH   9  13
BRANCH  11  23
ATOM     23  N   UNL     1       0.739  -4.550  -3.634  0.00  0.00    -0.329 N 
ATOM     24  H   UNL     1       0.956  -5.493  -3.704  0.00  0.00    +0.145 HD
ATOM     25  H   UNL     1       0.768  -3.986  -4.423  0.00  0.00    +0.145 HD
ENDBRANCH  11  23
BRANCH  10  26
ATOM     26  C   UNL     1       0.887  -6.127  -1.434  0.00  0.00    +0.341 C 
ATOM     27  O   UNL     1       2.028  -6.432  -1.135  0.00  0.00    -0.245 OA
BRANCH  26  28
ATOM     28  O   UNL     1       0.030  -7.071  -1.881  0.00  0.00    -0.465 OA
ATOM     29  C   UNL     1       0.530  -8.406  -1.979  0.00  0.00    +0.280 C 
ENDBRANCH  26  28
ENDBRANCH  10  26
BRANCH   8  30
ATOM     30  C   UNL     1       0.088   0.063   2.444  0.00  0.00    +0.106 C 
BRANCH  30  31
ATOM     31  C   UNL     1      -1.344   0.292   2.932  0.00  0.00    -0.058 C 
BRANCH  31  32
ATOM     32  N   UNL     1      -1.316   1.040   4.196  0.00  0.00    +0.377 N 
ATOM     33  C   UNL     1      -0.766   2.382   3.959  0.00  0.00    -0.097 C 
ATOM     34  C   UNL     1      -2.681   1.157   4.727  0.00  0.00    -0.097 C 
ATOM     35  H   UNL     1      -0.736   0.553   4.863  0.00  0.00    -0.083 HD
ENDBRANCH  31  32
ENDBRANCH  30  31
ENDBRANCH   8  30
TORSDOF 9
