REMARK  Name = ZINC53632978
REMARK  9 active torsions:
REMARK  status: ('A' for Active; 'I' for Inactive)
REMARK    1  A    between atoms: C_1  and  O_2
REMARK    2  A    between atoms: O_2  and  C_3
REMARK    3  A    between atoms: C_3  and  C_5
REMARK    4  A    between atoms: C_12  and  S_25
REMARK    5  A    between atoms: N_14  and  C_17
REMARK    6  A    between atoms: C_17  and  C_18
REMARK    7  A    between atoms: C_18  and  C_19
REMARK    8  A    between atoms: S_25  and  C_26
REMARK    9  A    between atoms: C_26  and  C_27
REMARK                            x       y       z     vdW  Elec       q    Type
REMARK                         _______ _______ _______ _____ _____    ______ ____
ROOT
ATOM      1  C   UNL     1       0.680  -2.090   1.091  0.00  0.00    +0.061 A 
ATOM      2  C   UNL     1       0.098  -2.852   0.073  0.00  0.00    +0.016 A 
ATOM      3  C   UNL     1       0.144  -4.228   0.120  0.00  0.00    +0.016 A 
ATOM      4  C   UNL     1       0.770  -4.863   1.190  0.00  0.00    +0.058 A 
ATOM      5  C   UNL     1       1.366  -4.100   2.210  0.00  0.00    +0.042 A 
ATOM      6  C   UNL     1       1.320  -2.718   2.158  0.00  0.00    +0.038 A 
ATOM      7  N   UNL     1       2.010  -4.771   3.244  0.00  0.00    -0.317 N 
ATOM      8  C   UNL     1       1.542  -6.111   3.616  0.00  0.00    +0.222 C 
ATOM      9  N   UNL     1       1.284  -6.909   2.417  0.00  0.00    -0.270 N 
ATOM     10  C   UNL     1       0.837  -6.335   1.282  0.00  0.00    +0.250 C 
ATOM     11  O   UNL     1       0.493  -7.024   0.341  0.00  0.00    -0.270 OA
ATOM     12  H   UNL     1       2.755  -4.360   3.711  0.00  0.00    +0.149 HD
ENDROOT
BRANCH   1  13
ATOM     13  C   UNL     1       0.620  -0.613   1.032  0.00  0.00    +0.339 C 
ATOM     14  O   UNL     1       1.129   0.051   1.913  0.00  0.00    -0.245 OA
BRANCH  13  16
ATOM     15  C   UNL     1      -0.017   1.425   0.010  0.00  0.00    +0.280 C 
ATOM     16  O   UNL     1       0.002  -0.004   0.002  0.00  0.00    -0.464 OA
ENDBRANCH  13  16
ENDBRANCH   1  13
BRANCH   9  17
ATOM     17  C   UNL     1       1.514  -8.355   2.451  0.00  0.00    +0.117 C 
BRANCH  17  18
ATOM     18  C   UNL     1       0.233  -9.065   2.894  0.00  0.00    +0.074 C 
BRANCH  18  19
ATOM     19  C   UNL     1       0.470 -10.553   2.928  0.00  0.00    +0.035 A 
ATOM     20  H   UNL     1       1.365 -13.305   4.094  0.00  0.00    +0.166 HD
ATOM     21  C   UNL     1       1.000 -11.246   3.954  0.00  0.00    +0.105 A 
ATOM     22  N   UNL     1       1.035 -12.559   3.568  0.00  0.00    -0.352 N 
ATOM     23  C   UNL     1       0.524 -12.622   2.320  0.00  0.00    +0.171 A 
ATOM     24  N   UNL     1       0.183 -11.420   1.946  0.00  0.00    -0.350 N 
ATOM     25  H   UNL     1      -0.213 -11.188   1.091  0.00  0.00    +0.166 HD
ENDBRANCH  18  19
ENDBRANCH  17  18
ENDBRANCH   9  17
BRANCH   8  26
ATOM     26  S   UNL     1       0.012  -5.968   4.580  0.00  0.00    -0.115 S 
BRANCH  26  27
ATOM     27  C   UNL     1      -1.138  -5.129   3.455  0.00  0.00    +0.107 C 
BRANCH  27  28
ATOM     28  C   UNL     1      -2.467  -4.945   4.141  0.00  0.00    -0.037 A 
ATOM     29  C   UNL     1      -3.438  -5.923   4.040  0.00  0.00    +0.004 A 
ATOM     30  C   UNL     1      -4.657  -5.755   4.669  0.00  0.00    +0.000 A 
ATOM     31  C   UNL     1      -4.905  -4.607   5.399  0.00  0.00    +0.000 A 
ATOM     32  C   UNL     1      -3.934  -3.628   5.500  0.00  0.00    +0.000 A 
ATOM     33  C   UNL     1      -2.713  -3.800   4.874  0.00  0.00    +0.004 A 
ENDBRANCH  27  28
ENDBRANCH  26  27
ENDBRANCH   8  26
TORSDOF 8
