REMARK  Name = ZINC41301533
REMARK  6 active torsions:
REMARK  status: ('A' for Active; 'I' for Inactive)
REMARK    1  A    between atoms: C_1  and  C_2
REMARK    2  A    between atoms: C_8  and  N_11
REMARK    3  A    between atoms: C_13  and  N_35
REMARK    4  A    between atoms: C_14  and  N_34
REMARK    5  A    between atoms: N_21  and  C_24
REMARK    6  A    between atoms: C_24  and  C_25
REMARK                            x       y       z     vdW  Elec       q    Type
REMARK                         _______ _______ _______ _____ _____    ______ ____
ROOT
ATOM      1  N   UNL     1       2.328  -2.613   2.892  0.00  0.00    -0.266 N 
ATOM      2  C   UNL     1       2.964  -3.637   3.581  0.00  0.00    +0.163 A 
ATOM      3  C   UNL     1       4.034  -3.359   4.426  0.00  0.00    +0.205 A 
ATOM      4  C   UNL     1       4.641  -4.417   5.096  0.00  0.00    +0.154 A 
ATOM      5  N   UNL     1       4.182  -5.652   4.908  0.00  0.00    -0.197 NA
ATOM      6  C   UNL     1       3.161  -5.879   4.095  0.00  0.00    +0.221 A 
ATOM      7  N   UNL     1       2.556  -4.896   3.445  0.00  0.00    -0.197 NA
ATOM      8  N   UNL     1       2.712  -7.177   3.924  0.00  0.00    -0.297 N 
ATOM      9  C   UNL     1       1.586  -7.473   3.026  0.00  0.00    +0.123 C 
ATOM     10  C   UNL     1       0.563  -8.320   3.791  0.00  0.00    +0.103 C 
ATOM     11  N   UNL     1       1.233  -9.498   4.357  0.00  0.00    -0.295 NA
ATOM     12  C   UNL     1       2.256  -9.110   5.337  0.00  0.00    +0.103 C 
ATOM     13  C   UNL     1       3.352  -8.296   4.630  0.00  0.00    +0.123 C 
ATOM     14  H   UNL     1       2.631  -1.697   2.995  0.00  0.00    +0.157 HD
ENDROOT
BRANCH   1  21
ATOM     15  C   UNL     1      -0.019   1.526   0.010  0.00  0.00    +0.008 C 
ATOM     16  C   UNL     1       0.002  -0.004   0.002  0.00  0.00    -0.009 C 
ATOM     17  C   UNL     1      -1.434  -0.533   0.010  0.00  0.00    +0.010 C 
ATOM     18  C   UNL     1      -1.435  -2.035  -0.296  0.00  0.00    +0.059 C 
ATOM     19  C   UNL     1      -0.442  -2.704   0.624  0.00  0.00    +0.089 A 
ATOM     20  C   UNL     1       0.554  -2.005   1.331  0.00  0.00    +0.037 A 
ATOM     21  C   UNL     1       1.261  -2.899   2.057  0.00  0.00    +0.226 A 
ATOM     22  O   UNL     1       0.740  -4.119   1.823  0.00  0.00    -0.339 OA
ATOM     23  N   UNL     1      -0.336  -3.965   0.912  0.00  0.00    -0.081 NA
ATOM     24  C   UNL     1       0.747  -0.511   1.244  0.00  0.00    +0.045 C 
ENDBRANCH   1  21
BRANCH   4  25
ATOM     25  N   UNL     1       5.710  -4.188   5.948  0.00  0.00    -0.341 N 
ATOM     26  H   UNL     1       6.040  -3.285   6.081  0.00  0.00    +0.144 HD
ATOM     27  H   UNL     1       6.129  -4.930   6.412  0.00  0.00    +0.144 HD
ENDBRANCH   4  25
BRANCH   3  28
ATOM     28  N   UNL     1       4.515  -1.970   4.608  0.00  0.00    +0.063 N 
ATOM     29  O   UNL     1       4.047  -1.278   5.482  0.00  0.00    -0.126 OA
ATOM     30  O   UNL     1       5.376  -1.529   3.883  0.00  0.00    -0.126 OA
ENDBRANCH   3  28
BRANCH  11  31
ATOM     31  C   UNL     1       0.259 -10.424   4.951  0.00  0.00    +0.119 C 
BRANCH  31  32
ATOM     32  C   UNL     1       0.945 -11.720   5.298  0.00  0.00    -0.030 A 
ATOM     33  C   UNL     1       1.005 -12.739   4.366  0.00  0.00    +0.009 A 
ATOM     34  C   UNL     1       1.633 -13.930   4.679  0.00  0.00    +0.050 A 
ATOM     35  C   UNL     1       2.203 -14.106   5.929  0.00  0.00    +0.166 A 
ATOM     36  C   UNL     1       2.143 -13.079   6.868  0.00  0.00    +0.167 A 
ATOM     37  C   UNL     1       1.516 -11.886   6.545  0.00  0.00    +0.054 A 
ATOM     38  O   UNL     1       2.770 -13.493   8.008  0.00  0.00    -0.453 OA
ATOM     39  C   UNL     1       2.856 -14.926   7.901  0.00  0.00    +0.466 C 
ATOM     40  O   UNL     1       2.869 -15.162   6.480  0.00  0.00    -0.453 OA
ENDBRANCH  31  32
ENDBRANCH  11  31
TORSDOF 5
