REMARK  Name = ZINC02398794
REMARK  6 active torsions:
REMARK  status: ('A' for Active; 'I' for Inactive)
REMARK    1  A    between atoms: C_1  and  C_2
REMARK    2  A    between atoms: C_2  and  C_3
REMARK    3  A    between atoms: C_3  and  C_4
REMARK    4  A    between atoms: C_4  and  O_5
REMARK    5  A    between atoms: O_5  and  C_6
REMARK    6  A    between atoms: C_9  and  C_12
REMARK                            x       y       z     vdW  Elec       q    Type
REMARK                         _______ _______ _______ _____ _____    ______ ____
ROOT
ATOM      1  C   UNL     1       0.060  -4.244  -0.021  0.00  0.00    +0.028 C 
ATOM      2  C   UNL     1      -1.001  -4.934  -0.511  0.00  0.00    +0.079 C 
ATOM      3  C   UNL     1      -2.231  -4.440  -1.173  0.00  0.00    +0.276 C 
ATOM      4  O   UNL     1      -2.428  -3.250  -1.361  0.00  0.00    -0.267 OA
ATOM      5  N   UNL     1      -3.098  -5.355  -1.548  0.00  0.00    -0.154 NA
ATOM      6  C   UNL     1      -2.897  -6.648  -1.351  0.00  0.00    +0.154 C 
ATOM      7  S   UNL     1      -1.304  -6.697  -0.545  0.00  0.00    -0.052 S 
ATOM      8  N   UNL     1      -3.711  -7.696  -1.689  0.00  0.00    -0.311 N 
ATOM      9  C   UNL     1      -3.423  -9.117  -1.446  0.00  0.00    +0.107 C 
ATOM     10  C   UNL     1      -4.606  -9.928  -2.015  0.00  0.00    +0.020 C 
ATOM     11  C   UNL     1      -5.222  -8.957  -3.056  0.00  0.00    +0.020 C 
ATOM     12  C   UNL     1      -5.018  -7.587  -2.362  0.00  0.00    +0.107 C 
ENDROOT
BRANCH   1  16
ATOM     13  C   UNL     1      -0.082  -0.011   0.196  0.00  0.00    +0.121 A 
ATOM     14  C   UNL     1       1.099  -0.647  -0.170  0.00  0.00    +0.046 A 
ATOM     15  C   UNL     1       1.152  -2.021  -0.237  0.00  0.00    +0.011 A 
ATOM     16  C   UNL     1       0.010  -2.778   0.054  0.00  0.00    -0.024 A 
ATOM     17  C   UNL     1      -1.178  -2.132   0.416  0.00  0.00    +0.011 A 
ATOM     18  C   UNL     1      -1.219  -0.758   0.485  0.00  0.00    +0.046 A 
BRANCH  13  19
ATOM     19  O   UNL     1      -0.128   1.343   0.265  0.00  0.00    -0.492 OA
BRANCH  19  20
ATOM     20  C   UNL     1       1.075   2.050  -0.045  0.00  0.00    +0.229 C 
BRANCH  20  21
ATOM     21  C   UNL     1       0.832   3.554   0.087  0.00  0.00    +0.041 C 
BRANCH  21  23
ATOM     22  C   UNL     1       1.876   5.815  -0.114  0.00  0.00    +0.004 C 
ATOM     23  C   UNL     1       2.120   4.310  -0.245  0.00  0.00    -0.000 C 
ENDBRANCH  21  23
ENDBRANCH  20  21
ENDBRANCH  19  20
ENDBRANCH  13  19
ENDBRANCH   1  16
TORSDOF 5
