REMARK  Name = ZINC34903851
REMARK  13 active torsions:
REMARK  status: ('A' for Active; 'I' for Inactive)
REMARK    1  A    between atoms: C_1  and  N_2
REMARK    2  A    between atoms: N_2  and  C_3
REMARK    3  A    between atoms: N_2  and  C_4
REMARK    4  A    between atoms: C_4  and  C_5
REMARK    5  A    between atoms: C_5  and  C_7
REMARK    6  A    between atoms: C_5  and  C_31
REMARK    7  A    between atoms: C_10  and  O_13
REMARK    8  A    between atoms: O_13  and  C_14
REMARK    9  A    between atoms: C_16  and  O_30
REMARK   10  A    between atoms: C_18  and  O_29
REMARK   11  A    between atoms: C_20  and  O_28
REMARK   12  A    between atoms: C_22  and  C_25
REMARK   13  A    between atoms: C_31  and  O_37
REMARK                            x       y       z     vdW  Elec       q    Type
REMARK                         _______ _______ _______ _____ _____    ______ ____
ROOT
ATOM      1  C   UNL     1       0.992  -0.120   3.576  0.00  0.00    -0.043 A 
ATOM      2  C   UNL     1       1.553  -1.349   3.870  0.00  0.00    +0.007 A 
ATOM      3  C   UNL     1       2.465  -1.465   4.901  0.00  0.00    +0.046 A 
ATOM      4  C   UNL     1       2.818  -0.347   5.642  0.00  0.00    +0.124 A 
ATOM      5  C   UNL     1       2.254   0.886   5.345  0.00  0.00    +0.046 A 
ATOM      6  C   UNL     1       1.346   0.997   4.309  0.00  0.00    +0.007 A 
ENDROOT
BRANCH   1   7
ATOM      7  C   UNL     1      -0.004   0.003   2.451  0.00  0.00    +0.034 C 
BRANCH   7   8
ATOM      8  C   UNL     1      -1.343  -0.596   2.886  0.00  0.00    +0.071 C 
ATOM      9  C   UNL     1      -1.772   0.028   4.215  0.00  0.00    +0.035 C 
ATOM     10  C   UNL     1      -3.111  -0.571   4.651  0.00  0.00    +0.003 C 
ATOM     11  C   UNL     1      -2.961  -2.083   4.823  0.00  0.00    +0.000 C 
ATOM     12  C   UNL     1      -2.531  -2.708   3.494  0.00  0.00    +0.003 C 
ATOM     13  C   UNL     1      -1.192  -2.109   3.058  0.00  0.00    +0.035 C 
BRANCH   8  14
ATOM     14  O   UNL     1      -2.332  -0.326   1.891  0.00  0.00    -0.388 OA
ATOM     15  H   UNL     1      -3.208  -0.677   2.101  0.00  0.00    +0.210 HD
ENDBRANCH   8  14
ENDBRANCH   7   8
BRANCH   7  16
ATOM     16  C   UNL     1       0.517  -0.750   1.225  0.00  0.00    -0.069 C 
BRANCH  16  18
ATOM     17  C   UNL     1      -0.405   0.894  -0.259  0.00  0.00    -0.097 C 
ATOM     18  N   UNL     1      -0.394  -0.532   0.093  0.00  0.00    +0.376 N 
ATOM     19  C   UNL     1       0.062  -1.319  -1.061  0.00  0.00    -0.097 C 
ATOM     20  H   UNL     1      -1.325  -0.823   0.351  0.00  0.00    -0.083 HD
ENDBRANCH  16  18
ENDBRANCH   7  16
ENDBRANCH   1   7
BRANCH   4  21
ATOM     21  O   UNL     1       3.714  -0.458   6.657  0.00  0.00    -0.461 OA
BRANCH  21  22
ATOM     22  C   UNL     1       4.031   0.736   7.377  0.00  0.00    +0.340 C 
ATOM     23  C   UNL     1       5.223   0.473   8.301  0.00  0.00    +0.214 C 
ATOM     24  C   UNL     1       5.517   1.738   9.113  0.00  0.00    +0.180 C 
ATOM     25  C   UNL     1       4.258   2.140   9.887  0.00  0.00    +0.186 C 
ATOM     26  C   UNL     1       3.103   2.338   8.902  0.00  0.00    +0.266 C 
ATOM     27  O   UNL     1       2.902   1.134   8.158  0.00  0.00    -0.322 OA
BRANCH  26  28
ATOM     28  C   UNL     1       1.847   2.675   9.661  0.00  0.00    +0.387 C 
ATOM     29  O   UNL     1       1.776   3.717  10.291  0.00  0.00    -0.243 OA
ATOM     30  O   UNL     1       0.900   1.907   9.646  0.00  0.00    -0.243 OA
ENDBRANCH  26  28
BRANCH  25  31
ATOM     31  O   UNL     1       3.921   1.109  10.818  0.00  0.00    -0.386 OA
ATOM     32  H   UNL     1       3.132   1.297  11.344  0.00  0.00    +0.210 HD
ENDBRANCH  25  31
BRANCH  24  33
ATOM     33  O   UNL     1       6.583   1.481  10.029  0.00  0.00    -0.386 OA
ATOM     34  H   UNL     1       6.822   2.241  10.577  0.00  0.00    +0.210 HD
ENDBRANCH  24  33
BRANCH  23  35
ATOM     35  O   UNL     1       4.911  -0.603   9.188  0.00  0.00    -0.383 OA
ATOM     36  H   UNL     1       4.709  -1.436   8.740  0.00  0.00    +0.210 HD
ENDBRANCH  23  35
ENDBRANCH  21  22
ENDBRANCH   4  21
TORSDOF 11
