REMARK  Name = ZINC35911089
REMARK  8 active torsions:
REMARK  status: ('A' for Active; 'I' for Inactive)
REMARK    1  A    between atoms: C_1  and  O_2
REMARK    2  A    between atoms: O_2  and  C_3
REMARK    3  A    between atoms: C_6  and  N_9
REMARK    4  A    between atoms: C_15  and  O_35
REMARK    5  A    between atoms: C_20  and  C_25
REMARK    6  A    between atoms: N_27  and  C_28
REMARK    7  A    between atoms: C_28  and  C_29
REMARK    8  A    between atoms: O_35  and  C_36
REMARK                            x       y       z     vdW  Elec       q    Type
REMARK                         _______ _______ _______ _____ _____    ______ ____
ROOT
ATOM      1  N   UNL     1       2.458  -2.457  -4.301  0.00  0.00    -0.327 N 
ATOM      2  C   UNL     1       2.957  -1.643  -5.402  0.00  0.00    +0.124 C 
ATOM      3  C   UNL     1       2.429  -2.151  -6.730  0.00  0.00    +0.124 C 
ATOM      4  N   UNL     1       2.348  -3.600  -6.806  0.00  0.00    -0.323 N 
ATOM      5  C   UNL     1       2.171  -4.188  -8.076  0.00  0.00    +0.037 A 
ATOM      6  C   UNL     1       2.531  -3.469  -9.206  0.00  0.00    +0.069 A 
ATOM      7  C   UNL     1       2.354  -4.026 -10.463  0.00  0.00    +0.122 A 
ATOM      8  C   UNL     1       1.815  -5.301 -10.579  0.00  0.00    +0.046 A 
ATOM      9  C   UNL     1       1.463  -6.012  -9.451  0.00  0.00    +0.009 A 
ATOM     10  C   UNL     1       1.642  -5.464  -8.189  0.00  0.00    -0.025 A 
ATOM     11  C   UNL     1       1.266  -6.290  -6.987  0.00  0.00    +0.051 C 
ATOM     12  C   UNL     1       1.149  -5.416  -5.736  0.00  0.00    +0.101 C 
ATOM     13  C   UNL     1       2.373  -4.504  -5.674  0.00  0.00    +0.103 C 
ATOM     14  C   UNL     1       2.600  -3.904  -4.315  0.00  0.00    +0.128 C 
ENDROOT
BRANCH   1  18
ATOM     15  C   UNL     1       0.608  -0.608  -1.056  0.00  0.00    +0.120 A 
ATOM     16  C   UNL     1       0.645  -1.992  -1.136  0.00  0.00    +0.047 A 
ATOM     17  C   UNL     1       1.257  -2.605  -2.211  0.00  0.00    +0.027 A 
ATOM     18  C   UNL     1       1.836  -1.836  -3.212  0.00  0.00    +0.030 A 
ATOM     19  C   UNL     1       1.799  -0.451  -3.130  0.00  0.00    +0.027 A 
ATOM     20  C   UNL     1       1.181   0.162  -2.057  0.00  0.00    +0.047 A 
BRANCH  15  22
ATOM     21  C   UNL     1      -0.565  -0.857   0.998  0.00  0.00    +0.277 C 
ATOM     22  O   UNL     1       0.004  -0.004   0.003  0.00  0.00    -0.495 OA
ENDBRANCH  15  22
ENDBRANCH   1  18
BRANCH  12  23
ATOM     23  C   UNL     1      -0.104  -4.581  -5.814  0.00  0.00    +0.218 C 
ATOM     24  O   UNL     1      -0.028  -3.371  -5.798  0.00  0.00    -0.275 OA
ATOM     25  N   UNL     1      -1.308  -5.180  -5.903  0.00  0.00    -0.313 N 
ATOM     26  H   UNL     1      -1.369  -6.148  -5.917  0.00  0.00    +0.149 HD
BRANCH  25  27
ATOM     27  C   UNL     1      -2.526  -4.369  -5.979  0.00  0.00    +0.135 C 
BRANCH  27  28
ATOM     28  C   UNL     1      -3.745  -5.287  -6.072  0.00  0.00    +0.135 C 
ATOM     29  C   UNL     1      -5.022  -4.444  -6.274  0.00  0.00    +0.035 C 
ATOM     30  C   UNL     1      -6.056  -5.192  -5.389  0.00  0.00    +0.031 C 
ATOM     31  C   UNL     1      -5.150  -5.681  -4.230  0.00  0.00    +0.160 C 
ATOM     32  O   UNL     1      -3.897  -6.019  -4.850  0.00  0.00    -0.375 OA
ENDBRANCH  27  28
ENDBRANCH  25  27
ENDBRANCH  12  23
BRANCH   7  33
ATOM     33  O   UNL     1       2.705  -3.329 -11.575  0.00  0.00    -0.495 OA
ATOM     34  C   UNL     1       2.493  -3.969 -12.836  0.00  0.00    +0.277 C 
ENDBRANCH   7  33
TORSDOF 6
