REMARK  Name = ZINC63295076
REMARK  5 active torsions:
REMARK  status: ('A' for Active; 'I' for Inactive)
REMARK    1  A    between atoms: C_6  and  N_7
REMARK    2  A    between atoms: C_8  and  C_10
REMARK    3  A    between atoms: C_10  and  C_11
REMARK    4  A    between atoms: C_11  and  C_12
REMARK    5  A    between atoms: C_12  and  N_13
REMARK                            x       y       z     vdW  Elec       q    Type
REMARK                         _______ _______ _______ _____ _____    ______ ____
ROOT
ATOM      1  N   UNL     1      -7.266   0.273   0.585  0.00  0.00    -0.299 N 
ATOM      2  C   UNL     1      -8.523  -0.199   0.708  0.00  0.00    +0.302 C 
ATOM      3  O   UNL     1      -8.716  -1.394   0.819  0.00  0.00    -0.253 OA
ATOM      4  N   UNL     1      -9.566   0.655   0.709  0.00  0.00    -0.283 N 
ATOM      5  C   UNL     1      -9.319   2.101   0.686  0.00  0.00    +0.114 C 
ATOM      6  C   UNL     1      -9.985   2.754   1.911  0.00  0.00    +0.052 C 
ATOM      7  C   UNL     1     -11.372   2.170   2.013  0.00  0.00    -0.035 C 
ATOM      8  C   UNL     1     -12.563   2.747   2.113  0.00  0.00    +0.001 A 
ATOM      9  C   UNL     1     -12.958   4.156   2.272  0.00  0.00    +0.030 A 
ATOM     10  C   UNL     1     -14.294   4.402   2.322  0.00  0.00    +0.042 A 
ATOM     11  C   UNL     1     -15.266   3.398   2.232  0.00  0.00    +0.022 A 
ATOM     12  C   UNL     1     -14.992   2.077   2.093  0.00  0.00    +0.027 A 
ATOM     13  C   UNL     1     -13.620   1.693   2.036  0.00  0.00    +0.043 A 
ATOM     14  N   UNL     1     -13.080   0.515   1.932  0.00  0.00    -0.376 N 
ATOM     15  C   UNL     1     -11.626   0.667   1.991  0.00  0.00    +0.124 C 
ATOM     16  C   UNL     1     -10.939   0.127   0.727  0.00  0.00    +0.138 C 
ATOM     17 CL   UNL     1     -14.823   6.045   2.510  0.00  0.00    -0.084 Cl
ATOM     18  H   UNL     1      -7.106   1.229   0.569  0.00  0.00    +0.150 HD
ATOM     19  H   UNL     1     -13.560  -0.322   1.831  0.00  0.00    +0.160 HD
ENDROOT
BRANCH   1  20
ATOM     20  C   UNL     1      -6.142  -0.660   0.474  0.00  0.00    +0.106 C 
BRANCH  20  21
ATOM     21  C   UNL     1      -4.836   0.128   0.346  0.00  0.00    +0.028 C 
BRANCH  21  22
ATOM     22  C   UNL     1      -3.662  -0.846   0.230  0.00  0.00    +0.097 C 
BRANCH  22  24
ATOM     23  N   UNL     1      -1.203  -0.724  -0.012  0.00  0.00    -0.285 N 
ATOM     24  C   UNL     1      -2.376  -0.070   0.104  0.00  0.00    +0.217 C 
ATOM     25  O   UNL     1      -2.397   1.142   0.106  0.00  0.00    -0.275 OA
ATOM     26  H   UNL     1      -1.192  -1.691  -0.088  0.00  0.00    +0.155 HD
BRANCH  23  32
ATOM     27  C   UNL     1       0.121   1.157   0.726  0.00  0.00    +0.027 A 
ATOM     28  C   UNL     1       1.308   1.865   0.715  0.00  0.00    +0.051 A 
ATOM     29  C   UNL     1       2.380   1.417  -0.042  0.00  0.00    +0.162 A 
ATOM     30  C   UNL     1       2.262   0.251  -0.789  0.00  0.00    +0.164 A 
ATOM     31  C   UNL     1       1.072  -0.459  -0.779  0.00  0.00    +0.072 A 
ATOM     32  C   UNL     1       0.000  -0.007  -0.022  0.00  0.00    +0.037 A 
ATOM     33  O   UNL     1       3.306  -0.209  -1.532  0.00  0.00    -0.485 OA
ATOM     34  C   UNL     1       4.356   0.723  -1.813  0.00  0.00    +0.270 C 
ATOM     35  C   UNL     1       4.711   1.454  -0.511  0.00  0.00    +0.270 C 
ATOM     36  O   UNL     1       3.540   2.131  -0.043  0.00  0.00    -0.485 OA
ENDBRANCH  23  32
ENDBRANCH  22  24
ENDBRANCH  21  22
ENDBRANCH  20  21
ENDBRANCH   1  20
TORSDOF 5
