REMARK  Name = ZINC00964644
REMARK  7 active torsions:
REMARK  status: ('A' for Active; 'I' for Inactive)
REMARK    1  A    between atoms: C_4  and  N_7
REMARK    2  A    between atoms: C_8  and  C_25
REMARK    3  A    between atoms: C_11  and  S_12
REMARK    4  A    between atoms: S_12  and  C_13
REMARK    5  A    between atoms: C_13  and  C_14
REMARK    6  A    between atoms: C_16  and  C_19
REMARK    7  A    between atoms: N_21  and  C_22
REMARK                            x       y       z     vdW  Elec       q    Type
REMARK                         _______ _______ _______ _____ _____    ______ ____
ROOT
ATOM      1  N   UNL     1       0.125   1.182   4.121  0.00  0.00    -0.270 N 
ATOM      2  C   UNL     1       1.118   0.376   4.634  0.00  0.00    +0.171 A 
ATOM      3  N   UNL     1       1.696  -0.217   3.615  0.00  0.00    -0.128 NA
ATOM      4  N   UNL     1       1.139   0.151   2.518  0.00  0.00    -0.122 NA
ATOM      5  C   UNL     1       0.170   1.003   2.765  0.00  0.00    +0.197 A 
ENDROOT
BRANCH   2   6
ATOM      6  C   UNL     1       1.470   0.215   6.060  0.00  0.00    +0.038 A 
ATOM      7  C   UNL     1       0.470  -0.012   7.008  0.00  0.00    +0.013 A 
ATOM      8  C   UNL     1       0.805  -0.162   8.337  0.00  0.00    +0.001 A 
ATOM      9  C   UNL     1       2.129  -0.087   8.734  0.00  0.00    +0.001 A 
ATOM     10  C   UNL     1       3.125   0.139   7.801  0.00  0.00    +0.021 A 
ATOM     11  C   UNL     1       2.804   0.284   6.466  0.00  0.00    +0.052 A 
ATOM     12 CL   UNL     1       4.056   0.559   5.295  0.00  0.00    -0.083 Cl
ENDBRANCH   2   6
BRANCH   1  16
ATOM     13  C   UNL     1      -2.477   3.644   6.254  0.00  0.00    +0.000 A 
ATOM     14  C   UNL     1      -2.967   2.540   5.581  0.00  0.00    +0.002 A 
ATOM     15  C   UNL     1      -2.108   1.722   4.873  0.00  0.00    +0.026 A 
ATOM     16  C   UNL     1      -0.750   2.010   4.838  0.00  0.00    +0.051 A 
ATOM     17  C   UNL     1      -0.260   3.116   5.519  0.00  0.00    +0.026 A 
ATOM     18  C   UNL     1      -1.125   3.933   6.220  0.00  0.00    +0.002 A 
ENDBRANCH   1  16
BRANCH   5  19
ATOM     19  S   UNL     1      -0.873   1.776   1.573  0.00  0.00    -0.076 S 
BRANCH  19  20
ATOM     20  C   UNL     1      -0.203   1.054   0.055  0.00  0.00    +0.173 C 
BRANCH  20  21
ATOM     21  C   UNL     1      -0.963   1.587  -1.133  0.00  0.00    +0.206 A 
ATOM     22  N   UNL     1      -0.659   2.659  -1.801  0.00  0.00    -0.208 NA
ATOM     23  C   UNL     1      -1.570   2.817  -2.800  0.00  0.00    +0.164 A 
ATOM     24  C   UNL     1      -2.454   1.787  -2.702  0.00  0.00    +0.230 A 
ATOM     25  O   UNL     1      -2.063   1.033  -1.662  0.00  0.00    -0.446 OA
BRANCH  23  26
ATOM     26  C   UNL     1      -1.597   3.903  -3.796  0.00  0.00    +0.266 C 
ATOM     27  O   UNL     1      -2.473   3.933  -4.639  0.00  0.00    -0.268 OA
ATOM     28  N   UNL     1      -0.651   4.863  -3.773  0.00  0.00    -0.307 N 
ATOM     29  H   UNL     1       0.142   4.836  -3.011  0.00  0.00    +0.149 HD
BRANCH  28  30
ATOM     30  C   UNL     1      -0.678   5.942  -4.764  0.00  0.00    +0.073 C 
ATOM     31  C   UNL     1       0.649   6.338  -5.414  0.00  0.00    +0.024 C 
ATOM     32  C   UNL     1      -0.006   7.264  -4.386  0.00  0.00    +0.024 C 
ENDBRANCH  28  30
ENDBRANCH  23  26
ENDBRANCH  20  21
ENDBRANCH  19  20
ENDBRANCH   5  19
TORSDOF 7
