REMARK  Name = ZINC09448662
REMARK  7 active torsions:
REMARK  status: ('A' for Active; 'I' for Inactive)
REMARK    1  A    between atoms: C_4  and  C_7
REMARK    2  A    between atoms: C_7  and  C_27
REMARK    3  A    between atoms: N_8  and  N_9
REMARK    4  A    between atoms: C_10  and  C_12
REMARK    5  A    between atoms: C_12  and  O_13
REMARK    6  A    between atoms: O_13  and  C_14
REMARK    7  A    between atoms: C_14  and  C_16
REMARK                            x       y       z     vdW  Elec       q    Type
REMARK                         _______ _______ _______ _____ _____    ______ ____
ROOT
ATOM      1  N   UNL     1       8.509  -0.081   0.173  0.00  0.00    -0.204 N 
ATOM      2  C   UNL     1       7.320   0.434   0.542  0.00  0.00    +0.270 C 
ATOM      3  O   UNL     1       7.245   1.591   0.898  0.00  0.00    -0.270 OA
ATOM      4  H   UNL     1       8.569  -1.007  -0.112  0.00  0.00    +0.177 HD
ENDROOT
BRANCH   1   6
ATOM      5  C   UNL     1      10.829   0.190  -0.034  0.00  0.00    +0.096 C 
ATOM      6  N   UNL     1       9.659   0.719   0.199  0.00  0.00    -0.179 NA
BRANCH   5  10
ATOM      7  C   UNL     1      11.212  -4.024  -0.436  0.00  0.00    +0.000 A 
ATOM      8  C   UNL     1      11.851  -3.185  -1.333  0.00  0.00    +0.001 A 
ATOM      9  C   UNL     1      11.730  -1.816  -1.208  0.00  0.00    +0.010 A 
ATOM     10  C   UNL     1      10.963  -1.278  -0.174  0.00  0.00    +0.002 A 
ATOM     11  C   UNL     1      10.326  -2.129   0.730  0.00  0.00    +0.010 A 
ATOM     12  C   UNL     1      10.450  -3.496   0.590  0.00  0.00    +0.001 A 
ENDBRANCH   5  10
BRANCH   5  13
ATOM     13  C   UNL     1      12.023   1.057  -0.159  0.00  0.00    +0.002 A 
ATOM     14  C   UNL     1      13.299   0.493  -0.181  0.00  0.00    +0.010 A 
ATOM     15  C   UNL     1      14.407   1.306  -0.304  0.00  0.00    +0.001 A 
ATOM     16  C   UNL     1      14.255   2.679  -0.393  0.00  0.00    +0.000 A 
ATOM     17  C   UNL     1      12.992   3.244  -0.364  0.00  0.00    +0.001 A 
ATOM     18  C   UNL     1      11.876   2.441  -0.248  0.00  0.00    +0.010 A 
ENDBRANCH   5  13
ENDBRANCH   1   6
BRANCH   2  19
ATOM     19  C   UNL     1       6.084  -0.427   0.513  0.00  0.00    +0.329 C 
BRANCH  19  20
ATOM     20  O   UNL     1       4.940   0.352   0.952  0.00  0.00    -0.452 OA
BRANCH  20  21
ATOM     21  C   UNL     1       3.748  -0.275   0.985  0.00  0.00    +0.340 C 
ATOM     22  O   UNL     1       3.666  -1.442   0.655  0.00  0.00    -0.245 OA
BRANCH  21  23
ATOM     23  C   UNL     1       2.543   0.454   1.420  0.00  0.00    +0.061 A 
ATOM     24  C   UNL     1       2.639   1.796   1.799  0.00  0.00    +0.016 A 
ATOM     25  C   UNL     1       1.511   2.475   2.203  0.00  0.00    +0.017 A 
ATOM     26  C   UNL     1       0.283   1.827   2.234  0.00  0.00    +0.030 A 
ATOM     27  C   UNL     1       0.173   0.483   1.861  0.00  0.00    +0.048 A 
ATOM     28  C   UNL     1       1.308  -0.198   1.453  0.00  0.00    +0.039 A 
ATOM     29  N   UNL     1      -1.049  -0.185   1.897  0.00  0.00    -0.284 N 
ATOM     30  C   UNL     1      -2.254   0.377   1.867  0.00  0.00    +0.227 C 
ATOM     31  O   UNL     1      -3.225  -0.349   1.895  0.00  0.00    -0.275 OA
ATOM     32  C   UNL     1      -2.478   1.863   1.800  0.00  0.00    +0.170 C 
ATOM     33  S   UNL     1      -1.167   2.697   2.741  0.00  0.00    -0.114 S 
ATOM     34  H   UNL     1      -1.018  -1.153   1.950  0.00  0.00    +0.155 HD
ENDBRANCH  21  23
ENDBRANCH  20  21
ENDBRANCH  19  20
ENDBRANCH   2  19
TORSDOF 7
