REMARK  Name = ZINC00152617
REMARK  3 active torsions:
REMARK  status: ('A' for Active; 'I' for Inactive)
REMARK    1  A    between atoms: C_1  and  C_2
REMARK    2  A    between atoms: C_2  and  C_20
REMARK    3  A    between atoms: N_12  and  C_13
REMARK                            x       y       z     vdW  Elec       q    Type
REMARK                         _______ _______ _______ _____ _____    ______ ____
ROOT
ATOM      1  C   UNL     1       1.005  -1.786  -1.073  0.00  0.00    +0.055 C 
ATOM      2  C   UNL     1       0.975  -0.661  -0.036  0.00  0.00    +0.117 C 
ATOM      3  N   UNL     1      -0.102   0.278  -0.369  0.00  0.00    -0.322 N 
ATOM      4  C   UNL     1      -0.098   1.538   0.217  0.00  0.00    +0.041 A 
ATOM      5  C   UNL     1      -1.269   2.243   0.440  0.00  0.00    +0.024 A 
ATOM      6  C   UNL     1      -1.214   3.495   1.022  0.00  0.00    +0.002 A 
ATOM      7  C   UNL     1       0.004   4.054   1.376  0.00  0.00    +0.001 A 
ATOM      8  C   UNL     1       1.180   3.366   1.161  0.00  0.00    +0.015 A 
ATOM      9  C   UNL     1       1.139   2.099   0.582  0.00  0.00    +0.058 A 
ATOM     10  C   UNL     1       2.366   1.318   0.345  0.00  0.00    +0.254 C 
ATOM     11  O   UNL     1       3.458   1.833   0.488  0.00  0.00    -0.270 OA
ATOM     12  N   UNL     1       2.266   0.028  -0.033  0.00  0.00    -0.245 N 
ATOM     13  H   UNL     1      -0.805   0.023  -0.988  0.00  0.00    +0.148 HD
ENDROOT
BRANCH  12  14
ATOM     14  C   UNL     1       3.416  -0.664  -0.427  0.00  0.00    +0.039 A 
ATOM     15  C   UNL     1       4.108  -1.444   0.491  0.00  0.00    +0.025 A 
ATOM     16  C   UNL     1       5.240  -2.130   0.098  0.00  0.00    +0.022 A 
ATOM     17  C   UNL     1       5.691  -2.033  -1.206  0.00  0.00    +0.041 A 
ATOM     18  C   UNL     1       5.007  -1.252  -2.122  0.00  0.00    +0.022 A 
ATOM     19  C   UNL     1       3.871  -0.568  -1.735  0.00  0.00    +0.025 A 
ATOM     20 CL   UNL     1       7.118  -2.892  -1.695  0.00  0.00    -0.084 Cl
ENDBRANCH  12  14
BRANCH   2  21
ATOM     21  C   UNL     1       0.716  -1.259   1.348  0.00  0.00    +0.154 C 
ATOM     22 CL   UNL     1      -0.862  -2.131   1.340  0.00  0.00    -0.121 Cl
ENDBRANCH   2  21
TORSDOF 2
