REMARK  Name = ZINC38665869
REMARK  12 active torsions:
REMARK  status: ('A' for Active; 'I' for Inactive)
REMARK    1  A    between atoms: C_1  and  N_2
REMARK    2  A    between atoms: N_2  and  C_3
REMARK    3  A    between atoms: N_2  and  C_4
REMARK    4  A    between atoms: C_7  and  C_10
REMARK    5  A    between atoms: C_10  and  C_12
REMARK    6  A    between atoms: C_10  and  N_27
REMARK    7  A    between atoms: C_12  and  N_13
REMARK    8  A    between atoms: C_14  and  C_16
REMARK    9  A    between atoms: C_16  and  C_17
REMARK   10  A    between atoms: C_17  and  S_18
REMARK   11  A    between atoms: S_18  and  C_21
REMARK   12  A    between atoms: N_30  and  C_33
REMARK                            x       y       z     vdW  Elec       q    Type
REMARK                         _______ _______ _______ _____ _____    ______ ____
ROOT
ATOM      1  C   UNL     1      -4.867  -2.910   0.037  0.00  0.00    +0.104 C 
ENDROOT
BRANCH   1   5
ATOM      2  C   UNL     1      -1.411  -0.427  -0.361  0.00  0.00    +0.029 A 
ATOM      3  C   UNL     1      -2.632  -0.009  -0.876  0.00  0.00    +0.023 A 
ATOM      4  C   UNL     1      -3.747  -0.814  -0.746  0.00  0.00    +0.007 A 
ATOM      5  C   UNL     1      -3.649  -2.034  -0.103  0.00  0.00    -0.029 A 
ATOM      6  C   UNL     1      -2.435  -2.454   0.411  0.00  0.00    +0.007 A 
ATOM      7  C   UNL     1      -1.315  -1.656   0.279  0.00  0.00    +0.023 A 
BRANCH   2   9
ATOM      8  C   UNL     1       1.006  -0.060   0.048  0.00  0.00    +0.129 C 
ATOM      9  N   UNL     1      -0.282   0.385  -0.491  0.00  0.00    -0.336 N 
ATOM     10  C   UNL     1      -0.385   1.681  -1.166  0.00  0.00    +0.129 C 
ENDBRANCH   2   9
ENDBRANCH   1   5
BRANCH   1  11
ATOM     11  N   UNL     1      -5.784  -2.319   1.022  0.00  0.00    -0.291 NA
ATOM     12  C   UNL     1      -6.150  -0.947   0.643  0.00  0.00    +0.104 C 
ATOM     13  C   UNL     1      -7.240  -0.434   1.589  0.00  0.00    +0.120 C 
ATOM     14  N   UNL     1      -6.769  -0.592   2.974  0.00  0.00    -0.327 N 
ATOM     15  C   UNL     1      -6.257  -1.906   3.389  0.00  0.00    +0.120 C 
ATOM     16  C   UNL     1      -5.206  -2.362   2.372  0.00  0.00    +0.104 C 
BRANCH  14  17
ATOM     17  C   UNL     1      -6.808   0.479   3.871  0.00  0.00    +0.030 A 
ATOM     18  C   UNL     1      -7.398   1.679   3.497  0.00  0.00    +0.023 A 
ATOM     19  C   UNL     1      -7.434   2.735   4.386  0.00  0.00    +0.002 A 
ATOM     20  C   UNL     1      -6.884   2.599   5.647  0.00  0.00    +0.000 A 
ATOM     21  C   UNL     1      -6.295   1.405   6.023  0.00  0.00    +0.002 A 
ATOM     22  C   UNL     1      -6.261   0.343   5.140  0.00  0.00    +0.023 A 
ENDBRANCH  14  17
ENDBRANCH   1  11
BRANCH   1  23
ATOM     23  C   UNL     1      -5.574  -3.021  -1.315  0.00  0.00    +0.127 C 
BRANCH  23  24
ATOM     24  N   UNL     1      -6.822  -3.772  -1.153  0.00  0.00    -0.313 N 
ATOM     25  C   UNL     1      -7.616  -3.996  -2.219  0.00  0.00    +0.215 C 
ATOM     26  O   UNL     1      -7.298  -3.576  -3.311  0.00  0.00    -0.276 OA
ATOM     27  H   UNL     1      -7.076  -4.108  -0.280  0.00  0.00    +0.149 HD
BRANCH  25  28
ATOM     28  C   UNL     1      -8.899  -4.768  -2.053  0.00  0.00    +0.119 C 
BRANCH  28  29
ATOM     29  C   UNL     1      -9.607  -4.880  -3.405  0.00  0.00    +0.181 C 
BRANCH  29  30
ATOM     30  S   UNL     1     -11.151  -5.809  -3.205  0.00  0.00    -0.003 S 
ATOM     31  O   UNL     1     -10.869  -7.165  -2.887  0.00  0.00    -0.169 OA
ATOM     32  O   UNL     1     -12.076  -5.061  -2.429  0.00  0.00    -0.169 OA
BRANCH  30  33
ATOM     33  C   UNL     1     -11.859  -5.864  -4.818  0.00  0.00    +0.088 A 
ATOM     34  C   UNL     1     -12.717  -4.863  -5.230  0.00  0.00    +0.027 A 
ATOM     35  C   UNL     1     -13.272  -4.906  -6.496  0.00  0.00    +0.002 A 
ATOM     36  C   UNL     1     -12.968  -5.950  -7.349  0.00  0.00    +0.000 A 
ATOM     37  C   UNL     1     -12.109  -6.952  -6.936  0.00  0.00    +0.002 A 
ATOM     38  C   UNL     1     -11.551  -6.906  -5.673  0.00  0.00    +0.027 A 
ENDBRANCH  30  33
ENDBRANCH  29  30
ENDBRANCH  28  29
ENDBRANCH  25  28
ENDBRANCH  23  24
ENDBRANCH   1  23
TORSDOF 10
