REMARK  Name = ZINC60191400
REMARK  6 active torsions:
REMARK  status: ('A' for Active; 'I' for Inactive)
REMARK    1  A    between atoms: C_1  and  C_2
REMARK    2  A    between atoms: C_6  and  N_9
REMARK    3  A    between atoms: C_7  and  C_8
REMARK    4  A    between atoms: C_11  and  C_16
REMARK    5  A    between atoms: N_18  and  C_19
REMARK    6  A    between atoms: C_22  and  N_26
REMARK                            x       y       z     vdW  Elec       q    Type
REMARK                         _______ _______ _______ _____ _____    ______ ____
ROOT
ATOM      1  N   UNL     1       0.078  -2.807   2.378  0.00  0.00    -0.270 N 
ATOM      2  C   UNL     1      -1.126  -3.236   3.098  0.00  0.00    +0.127 C 
ATOM      3  C   UNL     1      -0.648  -4.317   4.094  0.00  0.00    +0.102 C 
ATOM      4  C   UNL     1       0.835  -3.928   4.292  0.00  0.00    +0.110 C 
ATOM      5  C   UNL     1       1.194  -3.183   3.025  0.00  0.00    +0.221 C 
ATOM      6  O   UNL     1       2.325  -2.954   2.650  0.00  0.00    -0.275 OA
ENDROOT
BRANCH   1  12
ATOM      7  C   UNL     1       0.035   1.485  -0.020  0.00  0.00    +0.044 C 
ATOM      8  C   UNL     1       0.044  -0.022  -0.023  0.00  0.00    -0.046 A 
ATOM      9  C   UNL     1       0.040  -0.711  -1.222  0.00  0.00    +0.004 A 
ATOM     10  C   UNL     1       0.049  -2.093  -1.229  0.00  0.00    +0.002 A 
ATOM     11  C   UNL     1       0.062  -2.791  -0.037  0.00  0.00    +0.024 A 
ATOM     12  C   UNL     1       0.066  -2.103   1.169  0.00  0.00    +0.039 A 
ATOM     13  C   UNL     1       0.062  -0.714   1.172  0.00  0.00    -0.026 A 
ATOM     14  C   UNL     1       0.072   0.037   2.479  0.00  0.00    +0.046 C 
ENDBRANCH   1  12
BRANCH   3  15
ATOM     15  C   UNL     1      -0.770  -5.694   3.494  0.00  0.00    +0.222 C 
ATOM     16  O   UNL     1      -1.200  -5.830   2.368  0.00  0.00    -0.275 OA
ATOM     17  N   UNL     1      -0.401  -6.775   4.210  0.00  0.00    -0.283 N 
ATOM     18  H   UNL     1       0.003  -6.663   5.085  0.00  0.00    +0.155 HD
BRANCH  17  19
ATOM     19  C   UNL     1      -0.601  -8.060   3.690  0.00  0.00    +0.069 A 
ATOM     20  C   UNL     1      -0.475  -8.286   2.326  0.00  0.00    +0.028 A 
ATOM     21  C   UNL     1      -0.672  -9.555   1.816  0.00  0.00    +0.035 A 
ATOM     22  C   UNL     1      -0.995 -10.600   2.662  0.00  0.00    +0.129 A 
ATOM     23  C   UNL     1      -1.122 -10.380   4.021  0.00  0.00    +0.073 A 
ATOM     24  C   UNL     1      -0.920  -9.114   4.539  0.00  0.00    +0.147 A 
ATOM     25  F   UNL     1      -1.038  -8.900   5.868  0.00  0.00    -0.203 F 
BRANCH  22  26
ATOM     26  N   UNL     1      -1.205 -11.958   2.111  0.00  0.00    +0.057 N 
ATOM     27  O   UNL     1      -1.095 -12.152   0.923  0.00  0.00    -0.126 OA
ATOM     28  O   UNL     1      -1.488 -12.873   2.849  0.00  0.00    -0.126 OA
ENDBRANCH  22  26
ENDBRANCH  17  19
ENDBRANCH   3  15
TORSDOF 4
