REMARK  Name = ZINC39940051
REMARK  7 active torsions:
REMARK  status: ('A' for Active; 'I' for Inactive)
REMARK    1  A    between atoms: C_4  and  C_7
REMARK    2  A    between atoms: C_7  and  C_9
REMARK    3  A    between atoms: C_7  and  N_20
REMARK    4  A    between atoms: C_9  and  C_11
REMARK    5  A    between atoms: N_23  and  C_26
REMARK    6  A    between atoms: C_26  and  C_27
REMARK    7  A    between atoms: N_29  and  C_30
REMARK                            x       y       z     vdW  Elec       q    Type
REMARK                         _______ _______ _______ _____ _____    ______ ____
ROOT
ATOM      1  C   UNL     1       3.711  -0.707  -0.038  0.00  0.00    +0.159 C 
ENDROOT
BRANCH   1   5
ATOM      2  C   UNL     1      -0.196   0.842  -0.801  0.00  0.00    +0.000 A 
ATOM      3  C   UNL     1       0.900   1.684  -0.832  0.00  0.00    +0.000 A 
ATOM      4  C   UNL     1       2.164   1.183  -0.584  0.00  0.00    +0.005 A 
ATOM      5  C   UNL     1       2.333  -0.161  -0.306  0.00  0.00    -0.023 A 
ATOM      6  C   UNL     1       1.237  -1.003  -0.275  0.00  0.00    +0.005 A 
ATOM      7  C   UNL     1      -0.027  -0.502  -0.523  0.00  0.00    +0.000 A 
ENDBRANCH   1   5
BRANCH   1   8
ATOM      8  N   UNL     1       3.913  -1.934  -0.821  0.00  0.00    -0.287 NA
ATOM      9  C   UNL     1       5.254  -2.489  -0.593  0.00  0.00    +0.101 C 
ATOM     10  C   UNL     1       5.396  -3.805  -1.362  0.00  0.00    +0.100 C 
ATOM     11  N   UNL     1       5.166  -3.560  -2.793  0.00  0.00    -0.292 NA
ATOM     12  C   UNL     1       3.824  -3.004  -3.021  0.00  0.00    +0.100 C 
ATOM     13  C   UNL     1       3.683  -1.689  -2.251  0.00  0.00    +0.101 C 
BRANCH  11  14
ATOM     14  C   UNL     1       5.367  -4.786  -3.576  0.00  0.00    +0.180 C 
BRANCH  14  15
ATOM     15  C   UNL     1       5.367  -4.450  -5.045  0.00  0.00    +0.227 C 
ATOM     16  O   UNL     1       5.213  -3.302  -5.404  0.00  0.00    -0.274 OA
ATOM     17  N   UNL     1       5.536  -5.425  -5.960  0.00  0.00    -0.311 N 
ATOM     18  H   UNL     1       5.659  -6.344  -5.672  0.00  0.00    +0.149 HD
BRANCH  17  19
ATOM     19  C   UNL     1       5.535  -5.099  -7.388  0.00  0.00    +0.073 C 
ATOM     20  C   UNL     1       4.752  -6.022  -8.323  0.00  0.00    +0.024 C 
ATOM     21  C   UNL     1       6.282  -6.046  -8.330  0.00  0.00    +0.024 C 
ENDBRANCH  17  19
ENDBRANCH  14  15
ENDBRANCH  11  14
ENDBRANCH   1   8
BRANCH   1  22
ATOM     22  C   UNL     1       3.850  -1.020   1.430  0.00  0.00    +0.183 C 
ATOM     23  O   UNL     1       3.674  -2.153   1.829  0.00  0.00    -0.290 OA
BRANCH  22  24
ATOM     24  C   UNL     1       4.187   0.004   2.341  0.00  0.00    +0.025 C 
ATOM     25  C   UNL     1       4.358  -0.115   3.708  0.00  0.00    +0.006 A 
ATOM     26  C   UNL     1       4.263  -1.211   4.598  0.00  0.00    +0.010 A 
ATOM     27  C   UNL     1       4.486  -1.037   5.920  0.00  0.00    +0.001 A 
ATOM     28  C   UNL     1       4.816   0.212   6.470  0.00  0.00    +0.002 A 
ATOM     29  C   UNL     1       4.932   1.321   5.708  0.00  0.00    +0.026 A 
ATOM     30  C   UNL     1       4.705   1.219   4.257  0.00  0.00    +0.043 A 
ATOM     31  N   UNL     1       4.749   2.107   3.306  0.00  0.00    -0.380 N 
ATOM     32  C   UNL     1       4.442   1.462   2.025  0.00  0.00    +0.152 C 
ATOM     33  H   UNL     1       4.956   3.047   3.425  0.00  0.00    +0.160 HD
ENDBRANCH  22  24
ENDBRANCH   1  22
TORSDOF 7
