REMARK  Name = ZINC40851356
REMARK  11 active torsions:
REMARK  status: ('A' for Active; 'I' for Inactive)
REMARK    1  A    between atoms: C_1  and  C_2
REMARK    2  A    between atoms: C_2  and  C_3
REMARK    3  A    between atoms: C_4  and  C_31
REMARK    4  A    between atoms: C_5  and  S_16
REMARK    5  A    between atoms: C_10  and  C_15
REMARK    6  A    between atoms: C_12  and  C_14
REMARK    7  A    between atoms: S_16  and  C_17
REMARK    8  A    between atoms: C_17  and  C_18
REMARK    9  A    between atoms: C_18  and  C_19
REMARK   10  A    between atoms: N_21  and  C_22
REMARK   11  A    between atoms: C_22  and  C_23
REMARK                            x       y       z     vdW  Elec       q    Type
REMARK                         _______ _______ _______ _____ _____    ______ ____
ROOT
ATOM      1  C   UNL     1      -1.412  -0.526   0.013  0.00  0.00    +0.050 A 
ATOM      2  C   UNL     1      -2.057  -0.768   1.209  0.00  0.00    +0.003 A 
ATOM      3  C   UNL     1      -3.368  -1.252   1.172  0.00  0.00    +0.105 A 
ATOM      4  N   UNL     1      -3.945  -1.460  -0.007  0.00  0.00    -0.204 NA
ATOM      5  C   UNL     1      -3.291  -1.215  -1.130  0.00  0.00    +0.253 A 
ATOM      6  N   UNL     1      -2.051  -0.751  -1.126  0.00  0.00    -0.215 NA
ATOM      7  N   UNL     1      -3.925  -1.445  -2.351  0.00  0.00    -0.202 N 
ATOM      8  C   UNL     1      -5.193  -1.906  -2.520  0.00  0.00    +0.045 A 
ATOM      9  C   UNL     1      -5.423  -1.989  -3.850  0.00  0.00    +0.048 A 
ATOM     10  C   UNL     1      -4.267  -1.567  -4.516  0.00  0.00    +0.061 A 
ATOM     11  N   UNL     1      -3.373  -1.236  -3.621  0.00  0.00    -0.169 NA
ATOM     12  C   UNL     1      -4.085  -1.500  -6.011  0.00  0.00    +0.067 C 
ATOM     13  C   UNL     1      -6.164  -2.262  -1.424  0.00  0.00    +0.066 C 
ATOM     14  C   UNL     1      -1.364  -0.518   2.524  0.00  0.00    +0.048 C 
ENDROOT
BRANCH   1  16
ATOM     15  C   UNL     1      -0.019   1.526   0.010  0.00  0.00    +0.010 C 
ATOM     16  C   UNL     1       0.002  -0.004   0.002  0.00  0.00    +0.052 C 
ENDBRANCH   1  16
BRANCH   3  17
ATOM     17  S   UNL     1      -4.242  -1.581   2.666  0.00  0.00    -0.105 S 
BRANCH  17  18
ATOM     18  C   UNL     1      -5.861  -2.176   2.105  0.00  0.00    +0.085 C 
BRANCH  18  19
ATOM     19  C   UNL     1      -6.733  -2.502   3.320  0.00  0.00    +0.107 C 
BRANCH  19  20
ATOM     20  C   UNL     1      -8.078  -2.997   2.853  0.00  0.00    +0.214 C 
ATOM     21  O   UNL     1      -8.316  -3.080   1.667  0.00  0.00    -0.276 OA
ATOM     22  N   UNL     1      -9.017  -3.347   3.755  0.00  0.00    -0.311 N 
ATOM     23  H   UNL     1      -8.827  -3.281   4.704  0.00  0.00    +0.149 HD
BRANCH  22  24
ATOM     24  C   UNL     1     -10.325  -3.827   3.302  0.00  0.00    +0.139 C 
BRANCH  24  25
ATOM     25  C   UNL     1     -11.183  -4.149   4.498  0.00  0.00    -0.025 A 
ATOM     26  C   UNL     1     -11.158  -5.418   5.044  0.00  0.00    +0.043 A 
ATOM     27  C   UNL     1     -11.947  -5.715   6.143  0.00  0.00    +0.126 A 
ATOM     28  C   UNL     1     -12.761  -4.741   6.694  0.00  0.00    +0.076 A 
ATOM     29  C   UNL     1     -12.785  -3.470   6.146  0.00  0.00    +0.126 A 
ATOM     30  C   UNL     1     -11.991  -3.174   5.050  0.00  0.00    +0.043 A 
ATOM     31  F   UNL     1     -13.579  -2.517   6.682  0.00  0.00    -0.205 F 
ATOM     32  F   UNL     1     -11.923  -6.956   6.677  0.00  0.00    -0.205 F 
ENDBRANCH  24  25
ENDBRANCH  22  24
ENDBRANCH  19  20
ENDBRANCH  18  19
ENDBRANCH  17  18
ENDBRANCH   3  17
TORSDOF 7
