REMARK  Name = ZINC34969918
REMARK  11 active torsions:
REMARK  status: ('A' for Active; 'I' for Inactive)
REMARK    1  A    between atoms: C_1  and  C_2
REMARK    2  A    between atoms: C_2  and  C_3
REMARK    3  A    between atoms: C_3  and  C_5
REMARK    4  A    between atoms: C_3  and  C_6
REMARK    5  A    between atoms: C_6  and  C_8
REMARK    6  A    between atoms: C_6  and  N_25
REMARK    7  A    between atoms: N_13  and  C_16
REMARK    8  A    between atoms: C_16  and  C_17
REMARK    9  A    between atoms: C_18  and  C_19
REMARK   10  A    between atoms: N_25  and  S_26
REMARK   11  A    between atoms: S_26  and  C_29
REMARK                            x       y       z     vdW  Elec       q    Type
REMARK                         _______ _______ _______ _____ _____    ______ ____
ROOT
ATOM      1  C   UNL     1       1.730  -0.131   3.808  0.00  0.00    +0.165 C 
ENDROOT
BRANCH   1   2
ATOM      2  C   UNL     1       1.503   1.333   4.088  0.00  0.00    +0.235 C 
ATOM      3  O   UNL     1       1.091   1.686   5.173  0.00  0.00    -0.274 OA
ATOM      4  N   UNL     1       1.757   2.249   3.133  0.00  0.00    -0.298 N 
ATOM      5  C   UNL     1       2.199   1.839   1.792  0.00  0.00    +0.123 C 
ATOM      6  C   UNL     1       1.303   2.522   0.754  0.00  0.00    +0.103 C 
ATOM      7  N   UNL     1       1.302   3.972   0.991  0.00  0.00    -0.296 NA
ATOM      8  C   UNL     1       0.727   4.297   2.303  0.00  0.00    +0.103 C 
ATOM      9  C   UNL     1       1.594   3.686   3.403  0.00  0.00    +0.123 C 
BRANCH   7  10
ATOM     10  C   UNL     1       0.595   4.681  -0.084  0.00  0.00    +0.111 C 
BRANCH  10  11
ATOM     11  C   UNL     1       0.822   6.164   0.058  0.00  0.00    -0.011 C 
ATOM     12  C   UNL     1       1.314   6.859  -0.958  0.00  0.00    +0.005 C 
BRANCH  12  13
ATOM     13  C   UNL     1       1.538   8.314  -0.818  0.00  0.00    -0.025 A 
ATOM     14  C   UNL     1       1.236   8.957   0.383  0.00  0.00    +0.008 A 
ATOM     15  C   UNL     1       1.447  10.315   0.507  0.00  0.00    +0.001 A 
ATOM     16  C   UNL     1       1.955  11.039  -0.557  0.00  0.00    +0.000 A 
ATOM     17  C   UNL     1       2.255  10.407  -1.751  0.00  0.00    +0.001 A 
ATOM     18  C   UNL     1       2.055   9.049  -1.885  0.00  0.00    +0.008 A 
ENDBRANCH  12  13
ENDBRANCH  10  11
ENDBRANCH   7  10
ENDBRANCH   1   2
BRANCH   1  19
ATOM     19  C   UNL     1       3.223  -0.446   3.925  0.00  0.00    +0.013 C 
ATOM     20  C   UNL     1       3.660  -0.315   5.385  0.00  0.00    +0.009 C 
BRANCH  19  22
ATOM     21  C   UNL     1       3.078  -1.995   1.970  0.00  0.00    +0.004 C 
ATOM     22  C   UNL     1       3.482  -1.874   3.441  0.00  0.00    +0.002 C 
ENDBRANCH  19  22
ENDBRANCH   1  19
BRANCH   1  23
ATOM     23  N   UNL     1       0.984  -0.935   4.779  0.00  0.00    -0.178 NA
ATOM     24  H   UNL     1       1.327  -1.051   5.679  0.00  0.00    +0.149 HD
BRANCH  23  25
ATOM     25  S   UNL     1      -0.445  -1.648   4.340  0.00  0.00    +0.059 S 
ATOM     26  O   UNL     1      -1.084  -2.051   5.543  0.00  0.00    -0.153 OA
ATOM     27  O   UNL     1      -1.063  -0.775   3.404  0.00  0.00    -0.153 OA
BRANCH  25  28
ATOM     28  C   UNL     1      -0.043  -3.123   3.464  0.00  0.00    +0.105 A 
ATOM     29  C   UNL     1      -0.733  -3.452   2.312  0.00  0.00    +0.030 A 
ATOM     30  C   UNL     1      -0.419  -4.609   1.625  0.00  0.00    +0.022 A 
ATOM     31  C   UNL     1       0.587  -5.439   2.090  0.00  0.00    +0.041 A 
ATOM     32  C   UNL     1       1.276  -5.109   3.243  0.00  0.00    +0.022 A 
ATOM     33  C   UNL     1       0.965  -3.949   3.926  0.00  0.00    +0.030 A 
ATOM     34 CL   UNL     1       0.982  -6.892   1.227  0.00  0.00    -0.084 Cl
ENDBRANCH  25  28
ENDBRANCH  23  25
ENDBRANCH   1  23
TORSDOF 9
