REMARK  Name = ZINC39393547
REMARK  4 active torsions:
REMARK  status: ('A' for Active; 'I' for Inactive)
REMARK    1  A    between atoms: C_5  and  C_7
REMARK    2  A    between atoms: C_9  and  C_12
REMARK    3  A    between atoms: C_23  and  C_25
REMARK    4  A    between atoms: C_25  and  C_26
REMARK                            x       y       z     vdW  Elec       q    Type
REMARK                         _______ _______ _______ _____ _____    ______ ____
ROOT
ATOM      1  C   UNL     1      -0.233  -5.491  -0.147  0.00  0.00    +0.058 A 
ATOM      2  C   UNL     1       0.252  -6.800  -0.288  0.00  0.00    +0.018 A 
ATOM      3  C   UNL     1      -0.644  -7.835  -0.261  0.00  0.00    +0.044 A 
ATOM      4  C   UNL     1      -2.001  -7.561  -0.097  0.00  0.00    +0.121 A 
ATOM      5  N   UNL     1      -2.433  -6.314   0.034  0.00  0.00    -0.240 NA
ATOM      6  C   UNL     1      -1.603  -5.291   0.019  0.00  0.00    +0.126 A 
ATOM      7  N   UNL     1      -2.911  -8.606  -0.070  0.00  0.00    -0.312 N 
ATOM      8  C   UNL     1      -2.892  -9.588   1.023  0.00  0.00    +0.107 C 
ATOM      9  C   UNL     1      -4.292  -9.668   1.639  0.00  0.00    +0.019 C 
ATOM     10  C   UNL     1      -5.312  -9.972   0.539  0.00  0.00    +0.003 C 
ATOM     11  C   UNL     1      -5.302  -8.842  -0.494  0.00  0.00    +0.023 C 
ATOM     12  C   UNL     1      -3.917  -8.750  -1.131  0.00  0.00    +0.084 C 
ENDROOT
BRANCH   1  15
ATOM     13  C   UNL     1       1.454  -2.306  -0.109  0.00  0.00    +0.205 A 
ATOM     14  N   UNL     1       0.359  -3.079  -0.043  0.00  0.00    -0.187 NA
ATOM     15  C   UNL     1       0.695  -4.343  -0.169  0.00  0.00    +0.260 A 
ATOM     16  O   UNL     1       2.029  -4.410  -0.322  0.00  0.00    -0.332 OA
ATOM     17  N   UNL     1       2.503  -3.072  -0.285  0.00  0.00    -0.056 NA
BRANCH  13  22
ATOM     18  C   UNL     1       0.309   1.254   0.274  0.00  0.00    +0.001 A 
ATOM     19  C   UNL     1       1.509   1.937   0.184  0.00  0.00    +0.003 A 
ATOM     20  C   UNL     1       2.692   1.246  -0.001  0.00  0.00    +0.039 A 
ATOM     21  C   UNL     1       2.681  -0.133  -0.097  0.00  0.00    +0.134 A 
ATOM     22  C   UNL     1       1.473  -0.826  -0.007  0.00  0.00    +0.058 A 
ATOM     23  C   UNL     1       0.285  -0.122   0.180  0.00  0.00    +0.014 A 
ATOM     24  F   UNL     1       3.837  -0.809  -0.279  0.00  0.00    -0.205 F 
ENDBRANCH  13  22
ENDBRANCH   1  15
BRANCH  12  25
ATOM     25  C   UNL     1      -3.862  -7.534  -2.059  0.00  0.00    +0.118 C 
BRANCH  25  26
ATOM     26  C   UNL     1      -2.560  -7.541  -2.818  0.00  0.00    +0.212 C 
ATOM     27  O   UNL     1      -1.756  -8.430  -2.635  0.00  0.00    -0.276 OA
ATOM     28  N   UNL     1      -2.290  -6.558  -3.700  0.00  0.00    -0.329 N 
ATOM     29  H   UNL     1      -2.933  -5.847  -3.846  0.00  0.00    +0.145 HD
ATOM     30  H   UNL     1      -1.452  -6.562  -4.189  0.00  0.00    +0.145 HD
ENDBRANCH  25  26
ENDBRANCH  12  25
TORSDOF 4
