REMARK  Name = ZINC23778319
REMARK  12 active torsions:
REMARK  status: ('A' for Active; 'I' for Inactive)
REMARK    1  A    between atoms: C_1  and  C_2
REMARK    2  A    between atoms: C_2  and  O_3
REMARK    3  A    between atoms: O_3  and  C_4
REMARK    4  A    between atoms: C_4  and  C_6
REMARK    5  A    between atoms: C_7  and  C_26
REMARK    6  A    between atoms: C_10  and  N_11
REMARK    7  A    between atoms: C_12  and  C_14
REMARK    8  A    between atoms: C_14  and  N_15
REMARK    9  A    between atoms: C_21  and  C_23
REMARK   10  A    between atoms: C_23  and  C_24
REMARK   11  A    between atoms: C_23  and  C_25
REMARK   12  A    between atoms: C_29  and  C_32
REMARK                            x       y       z     vdW  Elec       q    Type
REMARK                         _______ _______ _______ _____ _____    ______ ____
ROOT
ATOM      1  C   UNL     1       0.546   6.035  -1.033  0.00  0.00    +0.095 A 
ATOM      2  C   UNL     1       1.845   6.665  -1.176  0.00  0.00    +0.005 A 
ATOM      3  C   UNL     1       2.926   5.844  -1.166  0.00  0.00    +0.056 A 
ATOM      4  S   UNL     1       2.210   4.227  -0.959  0.00  0.00    -0.080 S 
ATOM      5  C   UNL     1       0.533   4.653  -0.900  0.00  0.00    +0.086 A 
ENDROOT
BRANCH   2   6
ATOM      6  C   UNL     1       1.986   8.133  -1.326  0.00  0.00    -0.017 A 
ATOM      7  C   UNL     1       1.228   8.815  -2.277  0.00  0.00    +0.009 A 
ATOM      8  C   UNL     1       1.360  10.182  -2.409  0.00  0.00    +0.004 A 
ATOM      9  C   UNL     1       2.249  10.875  -1.607  0.00  0.00    -0.050 A 
ATOM     10  C   UNL     1       3.007  10.203  -0.665  0.00  0.00    +0.004 A 
ATOM     11  C   UNL     1       2.880   8.836  -0.521  0.00  0.00    +0.009 A 
ATOM     12  C   UNL     1       2.392  12.367  -1.760  0.00  0.00    +0.044 C 
ENDBRANCH   2   6
BRANCH   5  13
ATOM     13  N   UNL     1      -0.561   3.816  -0.749  0.00  0.00    -0.281 N 
ATOM     14  C   UNL     1      -0.380   2.485  -0.633  0.00  0.00    +0.201 C 
ATOM     15  O   UNL     1       0.740   2.021  -0.661  0.00  0.00    -0.278 OA
ATOM     16  H   UNL     1      -1.577   4.237  -0.724  0.00  0.00    +0.155 HD
BRANCH  14  17
ATOM     17  C   UNL     1      -1.569   1.574  -0.470  0.00  0.00    +0.019 C 
BRANCH  17  18
ATOM     18  N   UNL     1      -1.110   0.183  -0.366  0.00  0.00    +0.387 N 
ATOM     19  C   UNL     1      -0.490  -0.262  -1.621  0.00  0.00    -0.059 C 
ATOM     20  C   UNL     1       0.135  -1.646  -1.416  0.00  0.00    +0.089 C 
ATOM     21  N   UNL     1      -0.894  -2.548  -0.877  0.00  0.00    -0.305 N 
ATOM     22  C   UNL     1      -1.656  -2.109   0.302  0.00  0.00    +0.089 C 
ATOM     23  C   UNL     1      -2.210  -0.707   0.029  0.00  0.00    -0.059 C 
ATOM     24  C   UNL     1      -1.133  -3.745  -1.448  0.00  0.00    +0.218 C 
ATOM     25  O   UNL     1      -1.919  -4.515  -0.938  0.00  0.00    -0.275 OA
ATOM     26  H   UNL     1      -0.342   0.136   0.421  0.00  0.00    -0.081 HD
BRANCH  24  27
ATOM     27  C   UNL     1      -0.424  -4.127  -2.722  0.00  0.00    +0.069 C 
ATOM     28  C   UNL     1       0.949  -4.714  -2.385  0.00  0.00    +0.017 C 
ATOM     29  C   UNL     1      -1.253  -5.169  -3.475  0.00  0.00    +0.017 C 
ENDBRANCH  24  27
ENDBRANCH  17  18
ENDBRANCH  14  17
ENDBRANCH   5  13
BRANCH   1  30
ATOM     30  C   UNL     1      -0.690   6.818  -1.029  0.00  0.00    +0.342 C 
ATOM     31  O   UNL     1      -1.137   7.244   0.019  0.00  0.00    -0.245 OA
BRANCH  30  32
ATOM     32  O   UNL     1      -1.333   7.067  -2.188  0.00  0.00    -0.461 OA
BRANCH  32  34
ATOM     33  C   UNL     1      -3.137   8.028  -3.513  0.00  0.00    +0.048 C 
ATOM     34  C   UNL     1      -2.554   7.851  -2.110  0.00  0.00    +0.229 C 
ENDBRANCH  32  34
ENDBRANCH  30  32
ENDBRANCH   1  30
TORSDOF 8
