REMARK  Name = ZINC20646546
REMARK  8 active torsions:
REMARK  status: ('A' for Active; 'I' for Inactive)
REMARK    1  A    between atoms: C_1  and  C_2
REMARK    2  A    between atoms: C_2  and  C_3
REMARK    3  A    between atoms: C_3  and  C_4
REMARK    4  A    between atoms: C_4  and  C_5
REMARK    5  A    between atoms: C_8  and  C_26
REMARK    6  A    between atoms: C_9  and  N_11
REMARK    7  A    between atoms: N_14  and  C_17
REMARK    8  A    between atoms: C_17  and  C_18
REMARK                            x       y       z     vdW  Elec       q    Type
REMARK                         _______ _______ _______ _____ _____    ______ ____
ROOT
ATOM      1  N   UNL     1       4.782  -3.343  -3.447  0.00  0.00    -0.312 N 
ATOM      2  C   UNL     1       5.331  -4.613  -2.948  0.00  0.00    +0.122 C 
ATOM      3  C   UNL     1       6.354  -4.303  -1.850  0.00  0.00    +0.104 C 
ATOM      4  N   UNL     1       7.351  -3.357  -2.368  0.00  0.00    -0.291 NA
ATOM      5  C   UNL     1       6.733  -2.073  -2.724  0.00  0.00    +0.104 C 
ATOM      6  C   UNL     1       5.726  -2.294  -3.863  0.00  0.00    +0.122 C 
ENDROOT
BRANCH   1  11
ATOM      7  C   UNL     1       1.460  -2.421  -2.537  0.00  0.00    +0.047 A 
ATOM      8  C   UNL     1       0.713  -2.735  -3.660  0.00  0.00    -0.022 A 
ATOM      9  C   UNL     1       1.345  -3.276  -4.764  0.00  0.00    -0.022 A 
ATOM     10  C   UNL     1       2.727  -3.488  -4.706  0.00  0.00    +0.095 A 
ATOM     11  C   UNL     1       3.416  -3.143  -3.530  0.00  0.00    +0.139 A 
ATOM     12  N   UNL     1       2.762  -2.623  -2.503  0.00  0.00    -0.235 NA
ATOM     13  C   UNL     1       0.339  -3.535  -5.860  0.00  0.00    +0.037 C 
ATOM     14  C   UNL     1      -1.037  -3.502  -5.159  0.00  0.00    +0.009 C 
ATOM     15  C   UNL     1      -0.767  -2.594  -3.941  0.00  0.00    +0.037 C 
BRANCH  10  16
ATOM     16  C   UNL     1       3.427  -4.045  -5.824  0.00  0.00    +0.103 C 
ATOM     17  N   UNL     1       3.982  -4.488  -6.711  0.00  0.00    -0.191 NA
ENDBRANCH  10  16
BRANCH   7  18
ATOM     18  C   UNL     1       0.772  -1.831  -1.333  0.00  0.00    +0.056 C 
BRANCH  18  19
ATOM     19  C   UNL     1       0.758  -0.306  -1.449  0.00  0.00    +0.006 C 
BRANCH  19  21
ATOM     20  C   UNL     1       0.045   1.818  -0.343  0.00  0.00    +0.004 C 
ATOM     21  C   UNL     1       0.059   0.293  -0.227  0.00  0.00    -0.003 C 
ENDBRANCH  19  21
ENDBRANCH  18  19
ENDBRANCH   7  18
ENDBRANCH   1  11
BRANCH   4  22
ATOM     22  C   UNL     1       8.445  -3.167  -1.406  0.00  0.00    +0.181 C 
BRANCH  22  23
ATOM     23  C   UNL     1       9.561  -2.393  -2.061  0.00  0.00    +0.233 C 
ATOM     24  O   UNL     1       9.455  -2.035  -3.215  0.00  0.00    -0.274 OA
ATOM     25  N   UNL     1      10.676  -2.098  -1.364  0.00  0.00    -0.264 N 
ATOM     26  C   UNL     1      11.704  -1.384  -1.968  0.00  0.00    +0.164 A 
ATOM     27  N   UNL     1      11.763  -0.914  -3.195  0.00  0.00    -0.233 NA
ATOM     28  C   UNL     1      12.821  -0.250  -3.622  0.00  0.00    +0.120 A 
ATOM     29  C   UNL     1      13.836  -0.077  -2.741  0.00  0.00    +0.068 A 
ATOM     30  S   UNL     1      13.175  -0.905  -1.304  0.00  0.00    -0.061 S 
ATOM     31  H   UNL     1      10.761  -2.384  -0.441  0.00  0.00    +0.157 HD
ENDBRANCH  22  23
ENDBRANCH   4  22
TORSDOF 7
