REMARK  Name = ZINC40629472
REMARK  6 active torsions:
REMARK  status: ('A' for Active; 'I' for Inactive)
REMARK    1  A    between atoms: C_1  and  C_2
REMARK    2  A    between atoms: C_2  and  C_3
REMARK    3  A    between atoms: C_2  and  C_17
REMARK    4  A    between atoms: C_2  and  O_24
REMARK    5  A    between atoms: C_3  and  N_4
REMARK    6  A    between atoms: C_5  and  C_7
REMARK                            x       y       z     vdW  Elec       q    Type
REMARK                         _______ _______ _______ _____ _____    ______ ____
ROOT
ATOM      1  N   UNL     1       2.077   0.091   1.294  0.00  0.00    -0.312 N 
ATOM      2  C   UNL     1       2.913  -0.212   2.306  0.00  0.00    +0.219 C 
ATOM      3  O   UNL     1       2.562  -0.983   3.174  0.00  0.00    -0.275 OA
ATOM      4  H   UNL     1       2.358   0.708   0.600  0.00  0.00    +0.149 HD
ENDROOT
BRANCH   2   5
ATOM      5  C   UNL     1       4.286   0.408   2.360  0.00  0.00    +0.048 C 
ATOM      6  C   UNL     1       5.070   0.020   1.104  0.00  0.00    +0.019 C 
ATOM      7  C   UNL     1       6.464   0.649   1.159  0.00  0.00    -0.009 C 
ATOM      8  C   UNL     1       7.204   0.142   2.398  0.00  0.00    +0.007 C 
ATOM      9  C   UNL     1       6.420   0.529   3.654  0.00  0.00    -0.009 C 
ATOM     10  C   UNL     1       5.026  -0.099   3.599  0.00  0.00    +0.019 C 
ATOM     11  C   UNL     1       6.290   2.052   3.724  0.00  0.00    +0.007 C 
ATOM     12  C   UNL     1       5.550   2.559   2.485  0.00  0.00    -0.009 C 
ATOM     13  C   UNL     1       6.334   2.172   1.229  0.00  0.00    +0.007 C 
ATOM     14  C   UNL     1       4.156   1.931   2.430  0.00  0.00    +0.019 C 
ENDBRANCH   2   5
BRANCH   1  15
ATOM     15  C   UNL     1       0.742  -0.511   1.242  0.00  0.00    +0.143 C 
BRANCH  15  17
ATOM     16  C   UNL     1      -0.019   1.526   0.010  0.00  0.00    +0.048 C 
ATOM     17  C   UNL     1       0.002  -0.004   0.002  0.00  0.00    +0.103 C 
BRANCH  17  18
ATOM     18  C   UNL     1      -1.412  -0.526   0.013  0.00  0.00    -0.015 A 
ATOM     19  C   UNL     1      -2.050  -0.766   1.215  0.00  0.00    +0.008 A 
ATOM     20  C   UNL     1      -3.347  -1.244   1.225  0.00  0.00    +0.020 A 
ATOM     21  C   UNL     1      -4.006  -1.483   0.032  0.00  0.00    +0.041 A 
ATOM     22  C   UNL     1      -3.366  -1.242  -1.171  0.00  0.00    +0.020 A 
ATOM     23  C   UNL     1      -2.071  -0.758  -1.180  0.00  0.00    +0.008 A 
ATOM     24 CL   UNL     1      -5.634  -2.084   0.045  0.00  0.00    -0.084 Cl
ENDBRANCH  17  18
BRANCH  17  25
ATOM     25  O   UNL     1       0.671  -0.465  -1.174  0.00  0.00    -0.383 OA
ATOM     26  H   UNL     1       0.722  -1.428  -1.246  0.00  0.00    +0.211 HD
ENDBRANCH  17  25
ENDBRANCH  15  17
ENDBRANCH   1  15
TORSDOF 5
