REMARK  Name = ZINC51706588
REMARK  12 active torsions:
REMARK  status: ('A' for Active; 'I' for Inactive)
REMARK    1  A    between atoms: C_1  and  C_2
REMARK    2  A    between atoms: C_5  and  N_25
REMARK    3  A    between atoms: C_7  and  O_8
REMARK    4  A    between atoms: O_8  and  C_9
REMARK    5  A    between atoms: C_9  and  C_11
REMARK    6  A    between atoms: C_11  and  C_12
REMARK    7  A    between atoms: C_12  and  C_13
REMARK    8  A    between atoms: C_13  and  C_15
REMARK    9  A    between atoms: C_15  and  C_16
REMARK   10  A    between atoms: C_16  and  C_17
REMARK   11  A    between atoms: C_17  and  C_19
REMARK   12  A    between atoms: C_22  and  C_24
REMARK                            x       y       z     vdW  Elec       q    Type
REMARK                         _______ _______ _______ _____ _____    ______ ____
ROOT
ATOM      1  C   UNL     1      -0.173  -0.048   4.842  0.00  0.00    +0.128 C 
ENDROOT
BRANCH   1   2
ATOM      2  C   UNL     1      -0.058  -0.750   3.513  0.00  0.00    +0.313 C 
ATOM      3  O   UNL     1      -0.040  -1.957   3.467  0.00  0.00    -0.250 OA
BRANCH   2   4
ATOM      4  O   UNL     1       0.025  -0.033   2.381  0.00  0.00    -0.425 OA
BRANCH   4  11
ATOM      5  C   UNL     1       2.506  -0.975   1.413  0.00  0.00    +0.047 C 
ATOM      6  C   UNL     1       1.211  -1.191   0.674  0.00  0.00    -0.008 A 
ATOM      7  C   UNL     1       1.206  -1.878  -0.525  0.00  0.00    +0.009 A 
ATOM      8  C   UNL     1       0.018  -2.076  -1.203  0.00  0.00    +0.033 A 
ATOM      9  C   UNL     1      -1.168  -1.588  -0.685  0.00  0.00    +0.130 A 
ATOM     10  C   UNL     1      -1.167  -0.900   0.513  0.00  0.00    +0.079 A 
ATOM     11  C   UNL     1       0.023  -0.705   1.199  0.00  0.00    +0.137 A 
BRANCH   9  12
ATOM     12  N   UNL     1      -2.438  -1.802  -1.414  0.00  0.00    +0.057 N 
ATOM     13  O   UNL     1      -2.438  -2.403  -2.463  0.00  0.00    -0.126 OA
ATOM     14  O   UNL     1      -3.474  -1.375  -0.962  0.00  0.00    -0.126 OA
ENDBRANCH   9  12
ENDBRANCH   4  11
ENDBRANCH   2   4
ENDBRANCH   1   2
BRANCH   1  15
ATOM     15  C   UNL     1      -0.251  -1.088   5.962  0.00  0.00    +0.085 C 
BRANCH  15  16
ATOM     16  C   UNL     1      -0.366  -0.386   7.291  0.00  0.00    +0.134 C 
ATOM     17  O   UNL     1      -0.384   0.820   7.338  0.00  0.00    -0.297 OA
BRANCH  16  18
ATOM     18  C   UNL     1      -0.459  -1.191   8.562  0.00  0.00    +0.082 C 
BRANCH  18  19
ATOM     19  C   UNL     1      -0.566  -0.243   9.759  0.00  0.00    +0.088 C 
BRANCH  19  20
ATOM     20  C   UNL     1      -0.659  -1.048  11.030  0.00  0.00    +0.170 C 
ATOM     21  O   UNL     1      -0.642  -2.261  10.983  0.00  0.00    -0.291 OA
BRANCH  20  22
ATOM     22  C   UNL     1      -0.767  -0.390  12.275  0.00  0.00    +0.055 A 
ATOM     23  C   UNL     1      -0.858  -0.938  13.551  0.00  0.00    +0.019 A 
ATOM     24  C   UNL     1      -0.953  -0.036  14.580  0.00  0.00    +0.011 A 
ATOM     25  C   UNL     1      -0.952   1.292  14.296  0.00  0.00    -0.013 A 
ATOM     26  S   UNL     1      -0.815   1.357  12.623  0.00  0.00    -0.091 S 
ATOM     27  C   UNL     1      -1.047   2.445  15.262  0.00  0.00    +0.051 C 
ENDBRANCH  20  22
ENDBRANCH  19  20
ENDBRANCH  18  19
ENDBRANCH  16  18
ENDBRANCH  15  16
ENDBRANCH   1  15
TORSDOF 10
