REMARK  Name = ZINC08942528
REMARK  10 active torsions:
REMARK  status: ('A' for Active; 'I' for Inactive)
REMARK    1  A    between atoms: C_1  and  C_2
REMARK    2  A    between atoms: C_2  and  C_3
REMARK    3  A    between atoms: C_2  and  C_4
REMARK    4  A    between atoms: C_4  and  N_5
REMARK    5  A    between atoms: N_10  and  C_17
REMARK    6  A    between atoms: C_13  and  S_15
REMARK    7  A    between atoms: S_15  and  C_16
REMARK    8  A    between atoms: C_17  and  C_18
REMARK    9  A    between atoms: C_18  and  N_19
REMARK   10  A    between atoms: C_20  and  C_22
REMARK                            x       y       z     vdW  Elec       q    Type
REMARK                         _______ _______ _______ _____ _____    ______ ____
ROOT
ATOM      1  N   UNL     1       1.251   3.472   0.009  0.00  0.00    -0.328 N 
ATOM      2  C   UNL     1       1.214   2.091   0.002  0.00  0.00    +0.134 A 
ATOM      3  C   UNL     1      -0.017   1.404   0.010  0.00  0.00    +0.078 A 
ATOM      4  C   UNL     1      -1.372   1.799   0.030  0.00  0.00    +0.148 A 
ATOM      5  N   UNL     1      -2.114   0.728   0.026  0.00  0.00    -0.177 NA
ATOM      6  N   UNL     1      -1.299  -0.410   0.012  0.00  0.00    -0.245 N 
ATOM      7  C   UNL     1       0.002  -0.004   0.002  0.00  0.00    +0.164 A 
ATOM      8  N   UNL     1       1.177  -0.632  -0.012  0.00  0.00    -0.202 NA
ATOM      9  C   UNL     1       2.307   0.054  -0.019  0.00  0.00    +0.192 A 
ATOM     10  N   UNL     1       2.335   1.382  -0.013  0.00  0.00    -0.206 NA
ATOM     11  H   UNL     1       0.425   3.979   0.020  0.00  0.00    +0.147 HD
ENDROOT
BRANCH   9  12
ATOM     12  S   UNL     1       3.834  -0.827  -0.038  0.00  0.00    -0.089 S 
ATOM     13  C   UNL     1       4.997   0.560  -0.041  0.00  0.00    +0.093 C 
ENDBRANCH   9  12
BRANCH   1  14
ATOM     14  C   UNL     1       2.539   4.169   0.000  0.00  0.00    +0.106 C 
BRANCH  14  16
ATOM     15  C   UNL     1       3.642   6.408   0.128  0.00  0.00    +0.009 C 
ATOM     16  C   UNL     1       2.301   5.681   0.011  0.00  0.00    -0.000 C 
ATOM     17  C   UNL     1       1.607   6.097  -1.287  0.00  0.00    +0.009 C 
ENDBRANCH  14  16
ENDBRANCH   1  14
BRANCH   6  18
ATOM     18  C   UNL     1      -1.765  -1.800   0.009  0.00  0.00    +0.164 C 
BRANCH  18  19
ATOM     19  C   UNL     1      -1.913  -2.291   1.450  0.00  0.00    +0.128 C 
BRANCH  19  20
ATOM     20  N   UNL     1      -2.379  -3.680   1.446  0.00  0.00    -0.310 N 
ATOM     21  C   UNL     1      -2.582  -4.326   2.612  0.00  0.00    +0.246 C 
ATOM     22  O   UNL     1      -2.378  -3.756   3.666  0.00  0.00    -0.270 OA
ATOM     23  H   UNL     1      -2.541  -4.135   0.605  0.00  0.00    +0.149 HD
BRANCH  21  24
ATOM     24  C   UNL     1      -3.051  -5.726   2.609  0.00  0.00    +0.055 A 
ATOM     25  C   UNL     1      -3.286  -6.385   1.399  0.00  0.00    +0.016 A 
ATOM     26  C   UNL     1      -3.723  -7.692   1.402  0.00  0.00    +0.021 A 
ATOM     27  C   UNL     1      -3.931  -8.354   2.602  0.00  0.00    +0.042 A 
ATOM     28  C   UNL     1      -3.700  -7.708   3.804  0.00  0.00    +0.040 A 
ATOM     29  C   UNL     1      -3.257  -6.401   3.815  0.00  0.00    +0.054 A 
ATOM     30 CL   UNL     1      -2.962  -5.594   5.324  0.00  0.00    -0.083 Cl
ATOM     31 CL   UNL     1      -4.482 -10.000   2.596  0.00  0.00    -0.083 Cl
ENDBRANCH  21  24
ENDBRANCH  19  20
ENDBRANCH  18  19
ENDBRANCH   6  18
TORSDOF 7
