REMARK  Name = ZINC32810495
REMARK  5 active torsions:
REMARK  status: ('A' for Active; 'I' for Inactive)
REMARK    1  A    between atoms: C_1  and  C_2
REMARK    2  A    between atoms: C_10  and  C_16
REMARK    3  A    between atoms: C_20  and  C_29
REMARK    4  A    between atoms: N_31  and  C_32
REMARK    5  A    between atoms: N_31  and  C_33
REMARK                            x       y       z     vdW  Elec       q    Type
REMARK                         _______ _______ _______ _____ _____    ______ ____
ROOT
ATOM      1  C   UNL     1       2.480   1.058  -0.015  0.00  0.00    +0.251 C 
ATOM      2  O   UNL     1       3.527   1.674  -0.072  0.00  0.00    -0.270 OA
ATOM      3  N   UNL     1       2.493  -0.286   0.080  0.00  0.00    -0.260 N 
ATOM      4  C   UNL     1       1.241  -1.061   0.096  0.00  0.00    +0.168 C 
ATOM      5  C   UNL     1       1.385  -2.159   1.154  0.00  0.00    +0.276 C 
ATOM      6  O   UNL     1       2.518  -2.968   0.832  0.00  0.00    -0.476 OA
ATOM      7  C   UNL     1       3.688  -2.336   0.553  0.00  0.00    +0.143 A 
ATOM      8  C   UNL     1       3.702  -0.996   0.172  0.00  0.00    +0.079 A 
ATOM      9  C   UNL     1       4.902  -0.366  -0.115  0.00  0.00    +0.027 A 
ATOM     10  C   UNL     1       6.089  -1.069  -0.020  0.00  0.00    +0.002 A 
ATOM     11  C   UNL     1       6.079  -2.398   0.360  0.00  0.00    +0.004 A 
ATOM     12  C   UNL     1       4.884  -3.032   0.646  0.00  0.00    +0.047 A 
ENDROOT
BRANCH   1  21
ATOM     13  C   UNL     1      -0.321   7.767   3.692  0.00  0.00    +0.008 C 
ATOM     14  C   UNL     1      -1.028   6.644   2.929  0.00  0.00    -0.009 C 
ATOM     15  C   UNL     1      -1.964   7.250   1.880  0.00  0.00    +0.009 C 
ATOM     16  C   UNL     1      -2.851   6.149   1.289  0.00  0.00    +0.054 C 
ATOM     17  C   UNL     1      -1.968   4.999   0.862  0.00  0.00    +0.020 A 
ATOM     18  C   UNL     1      -0.699   4.837   1.282  0.00  0.00    -0.019 A 
ATOM     19  C   UNL     1      -0.185   3.624   0.653  0.00  0.00    +0.004 A 
ATOM     20  C   UNL     1       1.033   2.948   0.694  0.00  0.00    +0.023 A 
ATOM     21  C   UNL     1       1.194   1.783  -0.050  0.00  0.00    +0.038 A 
ATOM     22  C   UNL     1       0.137   1.297  -0.833  0.00  0.00    +0.015 A 
ATOM     23  C   UNL     1      -1.054   1.958  -0.879  0.00  0.00    +0.027 A 
ATOM     24  C   UNL     1      -1.240   3.124  -0.138  0.00  0.00    +0.047 A 
ATOM     25  N   UNL     1      -2.304   3.981   0.014  0.00  0.00    -0.358 N 
ATOM     26  H   UNL     1      -3.309   3.946  -0.431  0.00  0.00    +0.166 HD
ATOM     27  C   UNL     1       0.016   5.765   2.229  0.00  0.00    +0.040 C 
ENDBRANCH   1  21
BRANCH   5  28
ATOM     28  C   UNL     1       0.143  -3.014   1.173  0.00  0.00    +0.257 C 
ATOM     29  O   UNL     1       0.205  -4.180   0.846  0.00  0.00    -0.271 OA
ATOM     30  N   UNL     1      -1.035  -2.482   1.553  0.00  0.00    -0.305 N 
ATOM     31  C   UNL     1      -2.242  -3.313   1.571  0.00  0.00    +0.131 C 
ATOM     32  C   UNL     1      -1.110  -1.073   1.948  0.00  0.00    +0.131 C 
ENDBRANCH   5  28
TORSDOF 2
