REMARK  Name = ZINC42909941
REMARK  12 active torsions:
REMARK  status: ('A' for Active; 'I' for Inactive)
REMARK    1  A    between atoms: C_1  and  C_2
REMARK    2  A    between atoms: C_4  and  C_26
REMARK    3  A    between atoms: N_5  and  C_7
REMARK    4  A    between atoms: C_7  and  C_8
REMARK    5  A    between atoms: C_8  and  C_10
REMARK    6  A    between atoms: C_8  and  C_11
REMARK    7  A    between atoms: C_11  and  N_12
REMARK    8  A    between atoms: N_15  and  C_16
REMARK    9  A    between atoms: C_18  and  C_24
REMARK   10  A    between atoms: C_18  and  C_25
REMARK   11  A    between atoms: C_20  and  C_22
REMARK   12  A    between atoms: C_20  and  C_23
REMARK                            x       y       z     vdW  Elec       q    Type
REMARK                         _______ _______ _______ _____ _____    ______ ____
ROOT
ATOM      1  N   UNL     1       2.773  -5.370   3.060  0.00  0.00    -0.299 N 
ATOM      2  C   UNL     1       3.034  -6.487   3.766  0.00  0.00    +0.300 C 
ATOM      3  O   UNL     1       2.126  -7.098   4.296  0.00  0.00    -0.253 OA
ATOM      4  N   UNL     1       4.302  -6.929   3.884  0.00  0.00    -0.297 N 
ATOM      5  H   UNL     1       3.497  -4.883   2.637  0.00  0.00    +0.150 HD
ATOM      6  H   UNL     1       5.026  -6.442   3.462  0.00  0.00    +0.151 HD
ENDROOT
BRANCH   4   7
ATOM      7  C   UNL     1       4.587  -8.147   4.653  0.00  0.00    +0.072 C 
ATOM      8  C   UNL     1       4.768  -7.779   6.127  0.00  0.00    +0.009 C 
ATOM      9  C   UNL     1       5.078  -9.036   6.940  0.00  0.00    -0.072 C 
ATOM     10  N   UNL     1       6.214  -9.770   6.404  0.00  0.00    +0.386 N 
ATOM     11  C   UNL     1       6.252 -10.002   4.969  0.00  0.00    -0.072 C 
ATOM     12  C   UNL     1       5.889  -8.768   4.150  0.00  0.00    +0.009 C 
ATOM     13  C   UNL     1       5.362 -11.179   4.562  0.00  0.00    -0.010 C 
ATOM     14  C   UNL     1       7.705 -10.387   4.599  0.00  0.00    -0.010 C 
ATOM     15  C   UNL     1       3.830  -9.911   7.056  0.00  0.00    -0.010 C 
ATOM     16  C   UNL     1       5.450  -8.578   8.369  0.00  0.00    -0.010 C 
ATOM     17  H   UNL     1       7.070  -9.277   6.673  0.00  0.00    -0.084 HD
ATOM     18  H   UNL     1       6.266 -10.675   6.878  0.00  0.00    -0.084 HD
ENDBRANCH   4   7
BRANCH   1  19
ATOM     19  C   UNL     1       1.394  -4.890   2.931  0.00  0.00    +0.110 C 
BRANCH  19  20
ATOM     20  C   UNL     1       1.375  -3.614   2.087  0.00  0.00    +0.024 C 
ATOM     21  C   UNL     1       2.123  -2.502   2.826  0.00  0.00    +0.011 C 
BRANCH  20  22
ATOM     22  C   UNL     1      -0.073  -3.182   1.848  0.00  0.00    +0.148 C 
BRANCH  22  27
ATOM     23  C   UNL     1      -0.059   1.554   0.184  0.00  0.00    +0.067 C 
ATOM     24  C   UNL     1      -0.089   0.048   0.236  0.00  0.00    +0.060 A 
ATOM     25  C   UNL     1      -0.166  -0.810  -0.866  0.00  0.00    +0.047 A 
ATOM     26  C   UNL     1      -0.169  -2.082  -0.405  0.00  0.00    +0.036 A 
ATOM     27  N   UNL     1      -0.096  -2.031   0.942  0.00  0.00    -0.268 N 
ATOM     28  N   UNL     1      -0.042  -0.683   1.320  0.00  0.00    -0.176 NA
ATOM     29  C   UNL     1      -0.240  -3.331  -1.244  0.00  0.00    +0.065 C 
ENDBRANCH  22  27
ENDBRANCH  20  22
ENDBRANCH  19  20
ENDBRANCH   1  19
TORSDOF 5
