REMARK  Name = ZINC09217359
REMARK  12 active torsions:
REMARK  status: ('A' for Active; 'I' for Inactive)
REMARK    1  A    between atoms: C_1  and  C_2
REMARK    2  A    between atoms: C_2  and  C_3
REMARK    3  A    between atoms: C_3  and  C_5
REMARK    4  A    between atoms: C_3  and  C_6
REMARK    5  A    between atoms: C_11  and  N_12
REMARK    6  A    between atoms: C_13  and  C_15
REMARK    7  A    between atoms: C_15  and  S_16
REMARK    8  A    between atoms: S_16  and  C_17
REMARK    9  A    between atoms: C_20  and  C_29
REMARK   10  A    between atoms: N_21  and  C_22
REMARK   11  A    between atoms: C_29  and  C_31
REMARK   12  A    between atoms: C_29  and  N_69
REMARK                            x       y       z     vdW  Elec       q    Type
REMARK                         _______ _______ _______ _____ _____    ______ ____
ROOT
ATOM      1  C   UNL     1      -8.524   3.140   0.922  0.00  0.00    +0.197 A 
ATOM      2  N   UNL     1      -8.409   1.857   1.173  0.00  0.00    -0.122 NA
ATOM      3  N   UNL     1      -9.573   1.314   1.220  0.00  0.00    -0.135 NA
ATOM      4  C   UNL     1     -10.495   2.209   1.004  0.00  0.00    +0.125 A 
ATOM      5  N   UNL     1      -9.861   3.408   0.811  0.00  0.00    -0.275 N 
ENDROOT
BRANCH   5   6
ATOM      6  C   UNL     1     -10.458   4.651   0.551  0.00  0.00    +0.050 A 
ATOM      7  C   UNL     1     -11.266   5.248   1.509  0.00  0.00    +0.029 A 
ATOM      8  C   UNL     1     -11.848   6.474   1.254  0.00  0.00    +0.040 A 
ATOM      9  C   UNL     1     -11.636   7.102   0.038  0.00  0.00    +0.124 A 
ATOM     10  C   UNL     1     -10.835   6.505  -0.921  0.00  0.00    +0.040 A 
ATOM     11  C   UNL     1     -10.247   5.282  -0.667  0.00  0.00    +0.029 A 
ATOM     12  F   UNL     1     -12.211   8.299  -0.212  0.00  0.00    -0.205 F 
ENDBRANCH   5   6
BRANCH   4  13
ATOM     13  C   UNL     1     -11.983   1.971   0.977  0.00  0.00    -0.002 C 
ATOM     14  C   UNL     1     -12.496   1.789   2.407  0.00  0.00    -0.005 C 
BRANCH  13  20
ATOM     15  C   UNL     1     -11.704   0.860  -1.155  0.00  0.00    -0.078 C 
ATOM     16  C   UNL     1     -11.896  -0.470  -1.888  0.00  0.00    -0.019 C 
ATOM     17  C   UNL     1     -13.390  -0.794  -1.964  0.00  0.00    -0.004 C 
ATOM     18  C   UNL     1     -13.966  -0.843  -0.546  0.00  0.00    -0.019 C 
ATOM     19  C   UNL     1     -13.715   0.497   0.148  0.00  0.00    -0.078 C 
ATOM     20  N   UNL     1     -12.258   0.739   0.211  0.00  0.00    +0.386 N 
ATOM     21  H   UNL     1     -11.808  -0.055   0.683  0.00  0.00    -0.081 HD
ENDBRANCH  13  20
ENDBRANCH   4  13
BRANCH   1  22
ATOM     22  S   UNL     1      -7.207   4.300   0.766  0.00  0.00    -0.076 S 
BRANCH  22  23
ATOM     23  C   UNL     1      -5.791   3.207   1.044  0.00  0.00    +0.173 C 
BRANCH  23  25
ATOM     24  N   UNL     1      -3.326   3.395   1.129  0.00  0.00    -0.285 N 
ATOM     25  C   UNL     1      -4.516   4.004   0.954  0.00  0.00    +0.227 C 
ATOM     26  O   UNL     1      -4.559   5.194   0.725  0.00  0.00    -0.275 OA
ATOM     27  H   UNL     1      -3.286   2.431   1.232  0.00  0.00    +0.155 HD
BRANCH  24  33
ATOM     28  C   UNL     1      -0.972   3.631   0.643  0.00  0.00    -0.023 A 
ATOM     29  C   UNL     1       0.188   4.378   0.682  0.00  0.00    +0.006 A 
ATOM     30  C   UNL     1       0.176   5.649   1.228  0.00  0.00    +0.000 A 
ATOM     31  C   UNL     1      -0.996   6.171   1.745  0.00  0.00    +0.002 A 
ATOM     32  C   UNL     1      -2.158   5.426   1.713  0.00  0.00    +0.023 A 
ATOM     33  C   UNL     1      -2.150   4.152   1.161  0.00  0.00    +0.037 A 
BRANCH  28  34
ATOM     34  C   UNL     1      -0.959   2.248   0.043  0.00  0.00    +0.017 C 
ATOM     35  C   UNL     1       0.113   1.403   0.733  0.00  0.00    +0.012 C 
BRANCH  34  37
ATOM     36  C   UNL     1      -0.758   0.956  -2.086  0.00  0.00    +0.004 C 
ATOM     37  C   UNL     1      -0.649   2.344  -1.452  0.00  0.00    +0.004 C 
ENDBRANCH  34  37
ENDBRANCH  28  34
ENDBRANCH  24  33
ENDBRANCH  23  25
ENDBRANCH  22  23
ENDBRANCH   1  22
TORSDOF 9
