REMARK  Name = ZINC09637502
REMARK  7 active torsions:
REMARK  status: ('A' for Active; 'I' for Inactive)
REMARK    1  A    between atoms: C_4  and  O_7
REMARK    2  A    between atoms: O_7  and  C_8
REMARK    3  A    between atoms: C_12  and  C_14
REMARK    4  A    between atoms: C_16  and  C_28
REMARK    5  A    between atoms: C_18  and  C_23
REMARK    6  A    between atoms: C_18  and  O_27
REMARK    7  A    between atoms: C_28  and  C_30
REMARK                            x       y       z     vdW  Elec       q    Type
REMARK                         _______ _______ _______ _____ _____    ______ ____
ROOT
ATOM      1  C   UNL     1       7.309   1.475   0.020  0.00  0.00    +0.120 C 
ATOM      2  C   UNL     1       8.154   1.637  -1.248  0.00  0.00    +0.144 C 
ATOM      3  C   UNL     1       9.589   1.199  -0.937  0.00  0.00    +0.243 C 
ATOM      4  N   UNL     1      10.088   1.964   0.206  0.00  0.00    -0.264 N 
ATOM      5  C   UNL     1       9.258   2.424   1.154  0.00  0.00    +0.302 C 
ATOM      6  O   UNL     1       9.725   3.046   2.088  0.00  0.00    -0.253 OA
ATOM      7  N   UNL     1       7.932   2.225   1.111  0.00  0.00    -0.292 N 
ATOM      8  H   UNL     1      11.039   2.142   0.281  0.00  0.00    +0.153 HD
ATOM      9  H   UNL     1       7.374   2.587   1.818  0.00  0.00    +0.151 HD
ENDROOT
BRANCH   1  14
ATOM     10  C   UNL     1       4.378   3.839  -0.291  0.00  0.00    +0.129 A 
ATOM     11  C   UNL     1       3.366   2.972  -0.681  0.00  0.00    +0.046 A 
ATOM     12  C   UNL     1       3.637   1.629  -0.851  0.00  0.00    +0.004 A 
ATOM     13  C   UNL     1       4.913   1.145  -0.623  0.00  0.00    +0.006 A 
ATOM     14  C   UNL     1       5.921   2.005  -0.229  0.00  0.00    -0.023 A 
ATOM     15  C   UNL     1       5.656   3.351  -0.062  0.00  0.00    +0.051 A 
BRANCH  10  16
ATOM     16  O   UNL     1       4.115   5.162  -0.128  0.00  0.00    -0.456 OA
BRANCH  16  20
ATOM     17  C   UNL     1       2.069   6.327   3.260  0.00  0.00    +0.000 A 
ATOM     18  C   UNL     1       2.554   7.281   2.384  0.00  0.00    +0.004 A 
ATOM     19  C   UNL     1       3.234   6.894   1.246  0.00  0.00    +0.046 A 
ATOM     20  C   UNL     1       3.441   5.546   0.988  0.00  0.00    +0.128 A 
ATOM     21  C   UNL     1       2.958   4.591   1.871  0.00  0.00    +0.046 A 
ATOM     22  C   UNL     1       2.273   4.984   3.005  0.00  0.00    +0.004 A 
ENDBRANCH  16  20
ENDBRANCH  10  16
ENDBRANCH   1  14
BRANCH   3  23
ATOM     23  C   UNL     1       9.606  -0.294  -0.600  0.00  0.00    +0.436 C 
ATOM     24  F   UNL     1       8.898  -0.512   0.586  0.00  0.00    -0.166 F 
ATOM     25  F   UNL     1       9.007  -1.013  -1.640  0.00  0.00    -0.166 F 
ATOM     26  F   UNL     1      10.928  -0.721  -0.439  0.00  0.00    -0.166 F 
ENDBRANCH   3  23
BRANCH   3  27
ATOM     27  O   UNL     1      10.421   1.441  -2.074  0.00  0.00    -0.364 OA
ATOM     28  H   UNL     1      11.346   1.190  -1.945  0.00  0.00    +0.212 HD
ENDBRANCH   3  27
BRANCH   2  29
ATOM     29  C   UNL     1       8.148   3.081  -1.679  0.00  0.00    +0.173 C 
ATOM     30  O   UNL     1       8.260   3.961  -0.853  0.00  0.00    -0.292 OA
BRANCH  29  31
ATOM     31  C   UNL     1       8.005   3.423  -3.103  0.00  0.00    +0.018 A 
ATOM     32  C   UNL     1       7.881   2.410  -4.060  0.00  0.00    +0.013 A 
ATOM     33  C   UNL     1       7.743   2.738  -5.391  0.00  0.00    +0.020 A 
ATOM     34  C   UNL     1       7.738   4.067  -5.784  0.00  0.00    +0.041 A 
ATOM     35  C   UNL     1       7.865   5.075  -4.842  0.00  0.00    +0.020 A 
ATOM     36  C   UNL     1       7.999   4.762  -3.507  0.00  0.00    +0.013 A 
ATOM     37 CL   UNL     1       7.571   4.471  -7.464  0.00  0.00    -0.084 Cl
ENDBRANCH  29  31
ENDBRANCH   2  29
TORSDOF 7
