REMARK  Name = ZINC39596585
REMARK  7 active torsions:
REMARK  status: ('A' for Active; 'I' for Inactive)
REMARK    1  A    between atoms: C_1  and  C_2
REMARK    2  A    between atoms: C_2  and  C_4
REMARK    3  A    between atoms: C_2  and  O_27
REMARK    4  A    between atoms: C_4  and  N_5
REMARK    5  A    between atoms: C_6  and  C_8
REMARK    6  A    between atoms: C_19  and  C_21
REMARK    7  A    between atoms: O_27  and  C_28
REMARK                            x       y       z     vdW  Elec       q    Type
REMARK                         _______ _______ _______ _____ _____    ______ ____
ROOT
ATOM      1  C   UNL     1      -3.163  -3.757  -0.534  0.00  0.00    +0.100 C 
ATOM      2  C   UNL     1      -2.533  -4.168  -1.884  0.00  0.00    +0.121 C 
ATOM      3  N   UNL     1      -3.441  -5.210  -2.419  0.00  0.00    -0.300 N 
ATOM      4  C   UNL     1      -4.800  -4.726  -2.076  0.00  0.00    +0.115 C 
ATOM      5  C   UNL     1      -4.650  -4.125  -0.664  0.00  0.00    -0.004 C 
ATOM      6  C   UNL     1      -5.034  -5.157   0.392  0.00  0.00    -0.010 C 
ATOM      7  C   UNL     1      -6.530  -5.464   0.279  0.00  0.00    -0.082 C 
ATOM      8  N   UNL     1      -7.300  -4.229   0.470  0.00  0.00    +0.379 N 
ATOM      9  C   UNL     1      -6.994  -3.276  -0.604  0.00  0.00    -0.082 C 
ATOM     10  C   UNL     1      -5.517  -2.877  -0.528  0.00  0.00    -0.010 C 
ATOM     11  C   UNL     1      -3.107  -6.341  -3.071  0.00  0.00    +0.219 C 
ATOM     12  O   UNL     1      -3.973  -7.100  -3.451  0.00  0.00    -0.275 OA
ATOM     13  H   UNL     1      -8.286  -4.444   0.456  0.00  0.00    -0.086 HD
ATOM     14  H   UNL     1      -7.061  -3.819   1.360  0.00  0.00    -0.086 HD
ENDROOT
BRANCH  11  15
ATOM     15  C   UNL     1      -1.657  -6.662  -3.329  0.00  0.00    +0.079 C 
ATOM     16  C   UNL     1      -1.031  -5.556  -4.183  0.00  0.00    +0.041 C 
ATOM     17  C   UNL     1       0.419  -5.929  -4.504  0.00  0.00    +0.160 C 
ATOM     18  O   UNL     1       0.446  -7.190  -5.175  0.00  0.00    -0.380 OA
ATOM     19  C   UNL     1      -0.083  -8.272  -4.406  0.00  0.00    +0.160 C 
ATOM     20  C   UNL     1      -1.553  -7.993  -4.080  0.00  0.00    +0.041 C 
ENDBRANCH  11  15
BRANCH   1  22
ATOM     21  N   UNL     1      -2.934  -1.786   0.943  0.00  0.00    -0.312 N 
ATOM     22  C   UNL     1      -3.006  -2.275  -0.311  0.00  0.00    +0.218 C 
ATOM     23  O   UNL     1      -2.945  -1.522  -1.260  0.00  0.00    -0.275 OA
ATOM     24  H   UNL     1      -2.983  -2.389   1.702  0.00  0.00    +0.149 HD
BRANCH  21  25
ATOM     25  C   UNL     1      -2.782  -0.346   1.160  0.00  0.00    +0.148 C 
BRANCH  25  27
ATOM     26  C   UNL     1      -2.567   1.446   2.889  0.00  0.00    +0.053 C 
ATOM     27  C   UNL     1      -2.727  -0.059   2.662  0.00  0.00    +0.187 C 
BRANCH  27  28
ATOM     28  O   UNL     1      -3.936  -0.508   3.277  0.00  0.00    -0.488 OA
BRANCH  28  29
ATOM     29  C   UNL     1      -3.876  -0.822   4.599  0.00  0.00    +0.121 A 
ATOM     30  C   UNL     1      -4.981  -1.371   5.232  0.00  0.00    +0.048 A 
ATOM     31  C   UNL     1      -4.919  -1.689   6.575  0.00  0.00    +0.042 A 
ATOM     32  C   UNL     1      -3.755  -1.459   7.289  0.00  0.00    +0.124 A 
ATOM     33  C   UNL     1      -2.651  -0.910   6.658  0.00  0.00    +0.042 A 
ATOM     34  C   UNL     1      -2.708  -0.598   5.313  0.00  0.00    +0.048 A 
ATOM     35  F   UNL     1      -3.696  -1.770   8.602  0.00  0.00    -0.205 F 
ENDBRANCH  28  29
ENDBRANCH  27  28
ENDBRANCH  25  27
ENDBRANCH  21  25
ENDBRANCH   1  22
TORSDOF 6
