REMARK  Name = ZINC63409436
REMARK  6 active torsions:
REMARK  status: ('A' for Active; 'I' for Inactive)
REMARK    1  A    between atoms: C_7  and  C_10
REMARK    2  A    between atoms: N_11  and  N_12
REMARK    3  A    between atoms: C_13  and  C_15
REMARK    4  A    between atoms: C_15  and  C_16
REMARK    5  A    between atoms: C_16  and  N_17
REMARK    6  A    between atoms: C_18  and  C_20
REMARK                            x       y       z     vdW  Elec       q    Type
REMARK                         _______ _______ _______ _____ _____    ______ ____
ROOT
ATOM      1  N   UNL     1       2.519  -4.578  -0.146  0.00  0.00    -0.207 N 
ATOM      2  C   UNL     1       2.994  -5.822  -0.360  0.00  0.00    +0.234 C 
ATOM      3  O   UNL     1       2.224  -6.741  -0.540  0.00  0.00    -0.274 OA
ATOM      4  H   UNL     1       3.135  -3.842  -0.003  0.00  0.00    +0.177 HD
ENDROOT
BRANCH   1   6
ATOM      5  C   UNL     1       0.678  -3.126  -0.046  0.00  0.00    +0.136 C 
ATOM      6  N   UNL     1       1.137  -4.349  -0.132  0.00  0.00    -0.188 NA
BRANCH   5  13
ATOM      7  C   UNL     1      -0.047   1.346  -0.234  0.00  0.00    +0.001 A 
ATOM      8  C   UNL     1       1.125   2.098  -0.345  0.00  0.00    +0.002 A 
ATOM      9  C   UNL     1       2.348   1.516  -0.389  0.00  0.00    +0.026 A 
ATOM     10  C   UNL     1       2.459   0.102  -0.322  0.00  0.00    +0.043 A 
ATOM     11  N   UNL     1       3.509  -0.692  -0.346  0.00  0.00    -0.380 N 
ATOM     12  C   UNL     1       3.064  -2.085  -0.246  0.00  0.00    +0.150 C 
ATOM     13  C   UNL     1       1.555  -2.038  -0.156  0.00  0.00    +0.000 C 
ATOM     14  C   UNL     1       1.219  -0.687  -0.205  0.00  0.00    +0.004 A 
ATOM     15  C   UNL     1      -0.019  -0.009  -0.165  0.00  0.00    +0.010 A 
ATOM     16  H   UNL     1       4.431  -0.400  -0.418  0.00  0.00    +0.160 HD
ENDBRANCH   5  13
ENDBRANCH   1   6
BRANCH   2  17
ATOM     17  C   UNL     1       4.480  -6.068  -0.377  0.00  0.00    +0.116 C 
BRANCH  17  18
ATOM     18  C   UNL     1       4.748  -7.552  -0.638  0.00  0.00    +0.114 C 
BRANCH  18  19
ATOM     19  N   UNL     1       6.193  -7.792  -0.653  0.00  0.00    -0.311 N 
ATOM     20  C   UNL     1       6.668  -9.035  -0.867  0.00  0.00    +0.245 C 
ATOM     21  O   UNL     1       5.896  -9.957  -1.047  0.00  0.00    -0.270 OA
ATOM     22  H   UNL     1       6.809  -7.056  -0.510  0.00  0.00    +0.149 HD
BRANCH  20  23
ATOM     23  C   UNL     1       8.125  -9.277  -0.883  0.00  0.00    +0.051 A 
ATOM     24  C   UNL     1       9.014  -8.221  -0.671  0.00  0.00    +0.014 A 
ATOM     25  C   UNL     1      10.373  -8.454  -0.686  0.00  0.00    +0.001 A 
ATOM     26  C   UNL     1      10.858  -9.731  -0.912  0.00  0.00    +0.001 A 
ATOM     27  C   UNL     1       9.984 -10.782  -1.124  0.00  0.00    +0.016 A 
ATOM     28  C   UNL     1       8.620 -10.564  -1.105  0.00  0.00    +0.030 A 
ATOM     29 BR   UNL     1       7.427 -12.004  -1.385  0.00  0.00    -0.050 Br
ENDBRANCH  20  23
ENDBRANCH  18  19
ENDBRANCH  17  18
ENDBRANCH   2  17
TORSDOF 6
