REMARK  Name = ZINC03131458
REMARK  8 active torsions:
REMARK  status: ('A' for Active; 'I' for Inactive)
REMARK    1  A    between atoms: C_1  and  C_2
REMARK    2  A    between atoms: C_2  and  C_4
REMARK    3  A    between atoms: C_6  and  C_23
REMARK    4  A    between atoms: C_10  and  C_13
REMARK    5  A    between atoms: C_13  and  C_14
REMARK    6  A    between atoms: C_17  and  N_20
REMARK    7  A    between atoms: C_23  and  C_25
REMARK    8  A    between atoms: C_29  and  N_31
REMARK                            x       y       z     vdW  Elec       q    Type
REMARK                         _______ _______ _______ _____ _____    ______ ____
ROOT
ATOM      1  C   UNL     1      -2.620   3.489  -0.308  0.00  0.00    +0.043 A 
ATOM      2  C   UNL     1      -3.389   2.315  -0.229  0.00  0.00    +0.043 A 
ATOM      3  C   UNL     1      -2.516   1.256  -0.087  0.00  0.00    +0.095 A 
ATOM      4  N   UNL     1      -1.219   1.742  -0.082  0.00  0.00    -0.312 N 
ATOM      5  C   UNL     1      -1.260   3.099  -0.210  0.00  0.00    +0.057 A 
ATOM      6  C   UNL     1      -0.073   3.839  -0.229  0.00  0.00    +0.031 A 
ATOM      7  C   UNL     1       1.124   3.189  -0.112  0.00  0.00    -0.040 A 
ATOM      8  C   UNL     1       1.138   1.797   0.023  0.00  0.00    +0.022 A 
ATOM      9  C   UNL     1      -0.024   1.102   0.039  0.00  0.00    +0.092 A 
ENDROOT
BRANCH   1  11
ATOM     10  C   UNL     1      -4.593   5.054  -0.547  0.00  0.00    +0.091 C 
ATOM     11  C   UNL     1      -3.109   4.806  -0.458  0.00  0.00    +0.162 C 
ATOM     12  O   UNL     1      -2.333   5.739  -0.513  0.00  0.00    -0.292 OA
ENDBRANCH   1  11
BRANCH   3  13
ATOM     13  C   UNL     1      -2.886  -0.108   0.028  0.00  0.00    +0.210 C 
ATOM     14  O   UNL     1      -2.030  -0.974   0.026  0.00  0.00    -0.285 OA
BRANCH  13  15
ATOM     15  C   UNL     1      -4.313  -0.479   0.151  0.00  0.00    +0.026 A 
ATOM     16  C   UNL     1      -5.211   0.387   0.779  0.00  0.00    +0.012 A 
ATOM     17  C   UNL     1      -6.541   0.037   0.886  0.00  0.00    +0.003 A 
ATOM     18  C   UNL     1      -6.984  -1.174   0.382  0.00  0.00    +0.033 A 
ATOM     19  C   UNL     1      -6.098  -2.038  -0.236  0.00  0.00    +0.127 A 
ATOM     20  C   UNL     1      -4.766  -1.698  -0.354  0.00  0.00    +0.044 A 
BRANCH  19  21
ATOM     21  N   UNL     1      -6.580  -3.331  -0.771  0.00  0.00    +0.056 N 
ATOM     22  O   UNL     1      -5.802  -4.094  -1.315  0.00  0.00    -0.126 OA
ATOM     23  O   UNL     1      -7.756  -3.633  -0.667  0.00  0.00    -0.126 OA
ENDBRANCH  19  21
ENDBRANCH  13  15
ENDBRANCH   3  13
BRANCH   7  24
ATOM     24  C   UNL     1       2.416   3.966  -0.130  0.00  0.00    +0.070 C 
BRANCH  24  25
ATOM     25  C   UNL     1       2.909   4.088  -1.549  0.00  0.00    -0.043 A 
ATOM     26  C   UNL     1       3.754   3.127  -2.072  0.00  0.00    +0.006 A 
ATOM     27  C   UNL     1       4.203   3.237  -3.374  0.00  0.00    +0.033 A 
ATOM     28  C   UNL     1       3.814   4.311  -4.152  0.00  0.00    +0.126 A 
ATOM     29  C   UNL     1       2.973   5.275  -3.627  0.00  0.00    +0.033 A 
ATOM     30  C   UNL     1       2.520   5.163  -2.326  0.00  0.00    +0.006 A 
BRANCH  28  31
ATOM     31  N   UNL     1       4.298   4.431  -5.545  0.00  0.00    +0.056 N 
ATOM     32  O   UNL     1       3.955   5.378  -6.230  0.00  0.00    -0.126 OA
ATOM     33  O   UNL     1       5.039   3.582  -6.008  0.00  0.00    -0.126 OA
ENDBRANCH  28  31
ENDBRANCH  24  25
ENDBRANCH   7  24
TORSDOF 7
