REMARK  Name = ZINC19450342
REMARK  10 active torsions:
REMARK  status: ('A' for Active; 'I' for Inactive)
REMARK    1  A    between atoms: C_1  and  C_2
REMARK    2  A    between atoms: C_2  and  C_3
REMARK    3  A    between atoms: C_2  and  N_4
REMARK    4  A    between atoms: C_8  and  C_28
REMARK    5  A    between atoms: C_9  and  C_11
REMARK    6  A    between atoms: N_14  and  C_17
REMARK    7  A    between atoms: C_17  and  C_18
REMARK    8  A    between atoms: C_23  and  O_24
REMARK    9  A    between atoms: O_24  and  C_25
REMARK   10  A    between atoms: C_25  and  C_26
REMARK                            x       y       z     vdW  Elec       q    Type
REMARK                         _______ _______ _______ _____ _____    ______ ____
ROOT
ATOM      1  C   UNL     1       1.427   5.364  -1.914  0.00  0.00    +0.035 C 
ATOM      2  C   UNL     1       1.984   5.215  -3.333  0.00  0.00    -0.009 C 
ATOM      3  C   UNL     1       0.901   5.599  -4.344  0.00  0.00    -0.078 C 
ATOM      4  N   UNL     1       0.476   6.984  -4.107  0.00  0.00    +0.382 N 
ATOM      5  C   UNL     1      -0.106   7.140  -2.768  0.00  0.00    -0.078 C 
ATOM      6  C   UNL     1       0.948   6.803  -1.710  0.00  0.00    -0.009 C 
ATOM      7  H   UNL     1       1.370   7.623  -4.160  0.00  0.00    -0.081 HD
ENDROOT
BRANCH   1  13
ATOM      8  N   UNL     1       5.737   6.239  -0.016  0.00  0.00    -0.311 N 
ATOM      9  C   UNL     1       4.581   5.478  -0.010  0.00  0.00    +0.216 A 
ATOM     10  N   UNL     1       4.461   4.498   0.873  0.00  0.00    -0.222 NA
ATOM     11  C   UNL     1       3.371   3.752   0.914  0.00  0.00    +0.124 A 
ATOM     12  C   UNL     1       2.342   4.003   0.002  0.00  0.00    +0.023 A 
ATOM     13  C   UNL     1       2.508   5.046  -0.913  0.00  0.00    +0.057 A 
ATOM     14  N   UNL     1       3.626   5.750  -0.887  0.00  0.00    -0.219 NA
ATOM     15  H   UNL     1       5.852   7.057  -0.743  0.00  0.00    +0.149 HD
BRANCH  12  16
ATOM     16  C   UNL     1       1.103   3.188   0.009  0.00  0.00    +0.003 A 
ATOM     17  C   UNL     1       1.172   1.792   0.001  0.00  0.00    +0.011 A 
ATOM     18  C   UNL     1      -0.013   1.076   0.008  0.00  0.00    +0.020 A 
ATOM     19  C   UNL     1      -1.215   1.759   0.017  0.00  0.00    +0.111 A 
ATOM     20  N   UNL     1      -1.249   3.077   0.030  0.00  0.00    -0.263 NA
ATOM     21  C   UNL     1      -0.148   3.800   0.024  0.00  0.00    +0.119 A 
ENDBRANCH  12  16
BRANCH   8  23
ATOM     22  C   UNL     1       8.141   6.446   0.381  0.00  0.00    +0.027 C 
ATOM     23  C   UNL     1       6.806   5.956   0.945  0.00  0.00    +0.067 C 
ATOM     24  C   UNL     1       6.512   6.678   2.261  0.00  0.00    +0.027 C 
ENDBRANCH   8  23
ENDBRANCH   1  13
BRANCH   4  25
ATOM     25  C   UNL     1      -0.463   7.431  -5.144  0.00  0.00    -0.039 C 
BRANCH  25  26
ATOM     26  C   UNL     1       0.060   7.034  -6.500  0.00  0.00    -0.022 A 
ATOM     27  C   UNL     1       0.704   7.965  -7.293  0.00  0.00    +0.005 A 
ATOM     28  C   UNL     1       1.189   7.600  -8.535  0.00  0.00    +0.000 A 
ATOM     29  C   UNL     1       1.021   6.305  -8.992  0.00  0.00    +0.004 A 
ATOM     30  C   UNL     1       0.374   5.372  -8.206  0.00  0.00    +0.046 A 
ATOM     31  C   UNL     1      -0.109   5.735  -6.957  0.00  0.00    +0.123 A 
BRANCH  31  32
ATOM     32  O   UNL     1      -0.746   4.819  -6.181  0.00  0.00    -0.479 OA
BRANCH  32  33
ATOM     33  C   UNL     1      -0.884   3.501  -6.715  0.00  0.00    +0.317 C 
BRANCH  33  34
ATOM     34  C   UNL     1      -1.594   2.650  -5.745  0.00  0.00    -0.065 C 
ATOM     35  C   UNL     1      -2.160   1.972  -4.972  0.00  0.00    +0.007 C 
ENDBRANCH  33  34
ENDBRANCH  32  33
ENDBRANCH  31  32
ENDBRANCH  25  26
ENDBRANCH   4  25
TORSDOF 8
