REMARK  Name = ZINC09956146
REMARK  8 active torsions:
REMARK  status: ('A' for Active; 'I' for Inactive)
REMARK    1  A    between atoms: C_1  and  C_2
REMARK    2  A    between atoms: C_15  and  C_17
REMARK    3  A    between atoms: C_17  and  C_19
REMARK    4  A    between atoms: C_17  and  S_20
REMARK    5  A    between atoms: S_20  and  C_21
REMARK    6  A    between atoms: N_26  and  C_27
REMARK    7  A    between atoms: C_32  and  O_33
REMARK    8  A    between atoms: O_33  and  C_34
REMARK                            x       y       z     vdW  Elec       q    Type
REMARK                         _______ _______ _______ _____ _____    ______ ____
ROOT
ATOM      1  C   UNL     1      -6.036   4.477   8.435  0.00  0.00    +0.116 C 
ATOM      2  C   UNL     1      -6.905   4.999   7.290  0.00  0.00    +0.027 C 
ENDROOT
BRANCH   1  16
ATOM      3  C   UNL     1      -9.791   7.657  17.133  0.00  0.00    +0.008 C 
ATOM      4  C   UNL     1      -8.914   7.148  15.987  0.00  0.00    -0.009 C 
ATOM      5  C   UNL     1      -8.496   8.323  15.099  0.00  0.00    +0.008 C 
ATOM      6  C   UNL     1      -7.424   7.869  14.107  0.00  0.00    +0.037 C 
ATOM      7  C   UNL     1      -7.930   6.633  13.367  0.00  0.00    -0.023 A 
ATOM      8  C   UNL     1      -8.948   5.900  13.866  0.00  0.00    -0.004 A 
ATOM      9  S   UNL     1      -9.189   4.593  12.694  0.00  0.00    -0.073 S 
ATOM     10  C   UNL     1      -7.919   5.035  11.536  0.00  0.00    +0.116 A 
ATOM     11  C   UNL     1      -7.349   6.187  12.102  0.00  0.00    +0.075 A 
ATOM     12  C   UNL     1      -6.272   6.774  11.361  0.00  0.00    +0.260 A 
ATOM     13  O   UNL     1      -5.713   7.777  11.770  0.00  0.00    -0.267 OA
ATOM     14  N   UNL     1      -5.888   6.200  10.206  0.00  0.00    -0.309 N 
ATOM     15  H   UNL     1      -5.160   6.592   9.699  0.00  0.00    +0.170 HD
ATOM     16  C   UNL     1      -6.500   5.083   9.735  0.00  0.00    +0.124 A 
ATOM     17  N   UNL     1      -7.488   4.528  10.385  0.00  0.00    -0.225 NA
ATOM     18  C   UNL     1      -9.706   6.144  15.135  0.00  0.00    +0.046 C 
ENDBRANCH   1  16
BRANCH   1  19
ATOM     19  S   UNL     1      -4.306   4.934   8.139  0.00  0.00    -0.086 S 
BRANCH  19  20
ATOM     20  C   UNL     1      -3.873   4.041   6.683  0.00  0.00    +0.161 A 
ATOM     21  N   UNL     1      -4.608   3.223   5.954  0.00  0.00    -0.133 NA
ATOM     22  N   UNL     1      -4.066   2.628   4.838  0.00  0.00    -0.125 NA
ATOM     23  C   UNL     1      -2.812   2.868   4.509  0.00  0.00    +0.187 A 
ATOM     24  S   UNL     1      -2.321   4.001   5.800  0.00  0.00    -0.024 S 
ATOM     25  N   UNL     1      -2.072   2.377   3.440  0.00  0.00    -0.289 N 
ATOM     26  H   UNL     1      -1.178   2.713   3.273  0.00  0.00    +0.154 HD
BRANCH  25  27
ATOM     27  C   UNL     1      -2.618   1.396   2.603  0.00  0.00    +0.075 A 
ATOM     28  C   UNL     1      -3.820   0.787   2.937  0.00  0.00    +0.027 A 
ATOM     29  C   UNL     1      -4.353  -0.186   2.112  0.00  0.00    +0.002 A 
ATOM     30  C   UNL     1      -3.695  -0.550   0.952  0.00  0.00    +0.004 A 
ATOM     31  C   UNL     1      -2.500   0.056   0.611  0.00  0.00    +0.047 A 
ATOM     32  C   UNL     1      -1.958   1.032   1.431  0.00  0.00    +0.141 A 
BRANCH  32  33
ATOM     33  O   UNL     1      -0.783   1.629   1.096  0.00  0.00    -0.493 OA
ATOM     34  C   UNL     1      -0.161   1.201  -0.117  0.00  0.00    +0.277 C 
ENDBRANCH  32  33
ENDBRANCH  25  27
ENDBRANCH  19  20
ENDBRANCH   1  19
TORSDOF 5
