REMARK  Name = ZINC39665198
REMARK  8 active torsions:
REMARK  status: ('A' for Active; 'I' for Inactive)
REMARK    1  A    between atoms: C_1  and  C_2
REMARK    2  A    between atoms: C_4  and  C_9
REMARK    3  A    between atoms: C_13  and  C_22
REMARK    4  A    between atoms: N_24  and  C_25
REMARK    5  A    between atoms: C_25  and  C_26
REMARK    6  A    between atoms: C_26  and  C_28
REMARK    7  A    between atoms: C_26  and  O_29
REMARK    8  A    between atoms: O_29  and  C_30
REMARK                            x       y       z     vdW  Elec       q    Type
REMARK                         _______ _______ _______ _____ _____    ______ ____
ROOT
ATOM      1  C   UNL     1      -0.197  -2.727  -2.766  0.00  0.00    +0.247 C 
ATOM      2  O   UNL     1      -0.385  -2.144  -3.815  0.00  0.00    -0.270 OA
ATOM      3  N   UNL     1      -0.042  -4.066  -2.757  0.00  0.00    -0.296 N 
ATOM      4  C   UNL     1       0.066  -4.960  -1.580  0.00  0.00    +0.121 C 
ATOM      5  C   UNL     1      -0.744  -6.217  -1.970  0.00  0.00    +0.100 C 
ATOM      6  C   UNL     1      -0.742  -6.223  -3.508  0.00  0.00    -0.004 C 
ATOM      7  C   UNL     1       0.053  -4.977  -3.922  0.00  0.00    +0.115 C 
ATOM      8  C   UNL     1      -2.170  -6.131  -4.038  0.00  0.00    -0.010 C 
ATOM      9  C   UNL     1      -2.147  -6.196  -5.567  0.00  0.00    -0.082 C 
ATOM     10  N   UNL     1      -1.525  -7.455  -5.995  0.00  0.00    +0.379 N 
ATOM     11  C   UNL     1      -0.124  -7.495  -5.561  0.00  0.00    -0.082 C 
ATOM     12  C   UNL     1      -0.061  -7.484  -4.031  0.00  0.00    -0.010 C 
ATOM     13  H   UNL     1      -2.025  -8.231  -5.588  0.00  0.00    -0.086 HD
ATOM     14  H   UNL     1      -1.566  -7.524  -7.001  0.00  0.00    -0.086 HD
ENDROOT
BRANCH   1  18
ATOM     15  C   UNL     1      -1.345   1.341  -0.114  0.00  0.00    +0.045 C 
ATOM     16  C   UNL     1      -0.689  -0.011  -0.219  0.00  0.00    -0.036 A 
ATOM     17  C   UNL     1      -0.746  -0.715  -1.404  0.00  0.00    +0.017 A 
ATOM     18  C   UNL     1      -0.138  -1.968  -1.499  0.00  0.00    +0.037 A 
ATOM     19  C   UNL     1       0.526  -2.501  -0.392  0.00  0.00    +0.014 A 
ATOM     20  C   UNL     1       0.577  -1.788   0.787  0.00  0.00    +0.016 A 
ATOM     21  C   UNL     1      -0.024  -0.543   0.874  0.00  0.00    +0.021 A 
ATOM     22 BR   UNL     1       0.057   0.431   2.492  0.00  0.00    -0.050 Br
ENDBRANCH   1  18
BRANCH   5  23
ATOM     23  C   UNL     1      -2.152  -6.118  -1.444  0.00  0.00    +0.218 C 
ATOM     24  O   UNL     1      -2.706  -5.040  -1.391  0.00  0.00    -0.275 OA
ATOM     25  N   UNL     1      -2.798  -7.228  -1.033  0.00  0.00    -0.312 N 
ATOM     26  H   UNL     1      -2.355  -8.090  -1.075  0.00  0.00    +0.149 HD
BRANCH  25  27
ATOM     27  C   UNL     1      -4.168  -7.131  -0.522  0.00  0.00    +0.148 C 
BRANCH  27  28
ATOM     28  C   UNL     1      -4.663  -8.524  -0.127  0.00  0.00    +0.187 C 
ATOM     29  C   UNL     1      -6.094  -8.423   0.407  0.00  0.00    +0.053 C 
BRANCH  28  30
ATOM     30  O   UNL     1      -4.641  -9.380  -1.270  0.00  0.00    -0.488 OA
BRANCH  30  31
ATOM     31  C   UNL     1      -4.366 -10.693  -1.052  0.00  0.00    +0.121 A 
ATOM     32  C   UNL     1      -4.189 -11.554  -2.126  0.00  0.00    +0.045 A 
ATOM     33  C   UNL     1      -3.910 -12.888  -1.902  0.00  0.00    +0.004 A 
ATOM     34  C   UNL     1      -3.808 -13.366  -0.608  0.00  0.00    +0.000 A 
ATOM     35  C   UNL     1      -3.984 -12.511   0.464  0.00  0.00    +0.004 A 
ATOM     36  C   UNL     1      -4.258 -11.174   0.244  0.00  0.00    +0.045 A 
ENDBRANCH  30  31
ENDBRANCH  28  30
ENDBRANCH  27  28
ENDBRANCH  25  27
ENDBRANCH   5  23
TORSDOF 6
