REMARK  Name = ZINC38891777
REMARK  10 active torsions:
REMARK  status: ('A' for Active; 'I' for Inactive)
REMARK    1  A    between atoms: C_1  and  C_2
REMARK    2  A    between atoms: C_5  and  C_8
REMARK    3  A    between atoms: C_10  and  C_13
REMARK    4  A    between atoms: C_13  and  N_14
REMARK    5  A    between atoms: C_18  and  C_21
REMARK    6  A    between atoms: N_23  and  C_24
REMARK    7  A    between atoms: C_24  and  C_26
REMARK    8  A    between atoms: C_24  and  C_27
REMARK    9  A    between atoms: C_30  and  N_33
REMARK   10  A    between atoms: C_36  and  C_39
REMARK                            x       y       z     vdW  Elec       q    Type
REMARK                         _______ _______ _______ _____ _____    ______ ____
ROOT
ATOM      1  N   UNL     1      -1.245  -7.925   1.910  0.00  0.00    +0.386 N 
ATOM      2  C   UNL     1      -1.919  -6.838   2.630  0.00  0.00    -0.078 C 
ATOM      3  C   UNL     1      -3.383  -7.212   2.873  0.00  0.00    -0.018 C 
ATOM      4  C   UNL     1      -3.445  -8.494   3.708  0.00  0.00    +0.009 C 
ATOM      5  C   UNL     1      -2.675  -9.602   2.982  0.00  0.00    +0.058 C 
ATOM      6  C   UNL     1      -1.238  -9.139   2.736  0.00  0.00    -0.065 C 
ATOM      7  H   UNL     1      -1.736  -8.109   1.048  0.00  0.00    -0.081 HD
ENDROOT
BRANCH   5   8
ATOM      8  C   UNL     1      -2.665 -10.847   3.832  0.00  0.00    +0.215 C 
ATOM      9  O   UNL     1      -1.612 -11.321   4.200  0.00  0.00    -0.276 OA
ATOM     10  N   UNL     1      -3.827 -11.433   4.181  0.00  0.00    -0.309 N 
ATOM     11  H   UNL     1      -4.670 -11.054   3.886  0.00  0.00    +0.149 HD
BRANCH  10  12
ATOM     12  C   UNL     1      -3.818 -12.643   5.007  0.00  0.00    +0.100 C 
ATOM     13  C   UNL     1      -3.740 -12.253   6.484  0.00  0.00    +0.033 C 
BRANCH  12  14
ATOM     14  C   UNL     1      -5.080 -13.429   4.761  0.00  0.00    -0.027 A 
ATOM     15  C   UNL     1      -6.285 -12.769   4.609  0.00  0.00    +0.007 A 
ATOM     16  C   UNL     1      -7.444 -13.486   4.383  0.00  0.00    +0.023 A 
ATOM     17  C   UNL     1      -7.397 -14.872   4.309  0.00  0.00    +0.030 A 
ATOM     18  C   UNL     1      -6.184 -15.533   4.462  0.00  0.00    +0.023 A 
ATOM     19  C   UNL     1      -5.029 -14.809   4.681  0.00  0.00    +0.007 A 
BRANCH  17  20
ATOM     20  N   UNL     1      -8.567 -15.601   4.081  0.00  0.00    -0.330 N 
ATOM     21  C   UNL     1      -8.516 -17.055   3.881  0.00  0.00    +0.105 C 
ATOM     22  C   UNL     1      -9.232 -17.398   2.570  0.00  0.00    +0.022 C 
ATOM     23  C   UNL     1     -10.648 -16.817   2.601  0.00  0.00    -0.011 C 
ATOM     24  C   UNL     1     -10.573 -15.293   2.727  0.00  0.00    +0.022 C 
ATOM     25  C   UNL     1      -9.872 -14.928   4.044  0.00  0.00    +0.105 C 
ATOM     26  C   UNL     1     -11.378 -17.186   1.308  0.00  0.00    +0.007 C 
ENDBRANCH  17  20
ENDBRANCH  12  14
ENDBRANCH  10  12
ENDBRANCH   5   8
BRANCH   1  27
ATOM     27  C   UNL     1       0.137  -7.530   1.611  0.00  0.00    +0.022 C 
BRANCH  27  30
ATOM     28  C   UNL     1       0.114  -4.323  -0.090  0.00  0.00    +0.202 A 
ATOM     29  N   UNL     1       0.115  -5.101   1.008  0.00  0.00    -0.193 NA
ATOM     30  C   UNL     1       0.131  -6.357   0.664  0.00  0.00    +0.211 A 
ATOM     31  O   UNL     1       0.140  -6.431  -0.673  0.00  0.00    -0.340 OA
ATOM     32  N   UNL     1       0.124  -5.094  -1.149  0.00  0.00    -0.056 NA
BRANCH  28  37
ATOM     33  C   UNL     1       0.050   1.436  -0.125  0.00  0.00    +0.044 C 
ATOM     34  C   UNL     1       0.067  -0.071  -0.116  0.00  0.00    -0.050 A 
ATOM     35  C   UNL     1       0.077  -0.767  -1.311  0.00  0.00    +0.004 A 
ATOM     36  C   UNL     1       0.093  -2.147  -1.308  0.00  0.00    +0.012 A 
ATOM     37  C   UNL     1       0.098  -2.839  -0.099  0.00  0.00    +0.022 A 
ATOM     38  C   UNL     1       0.087  -2.133   1.102  0.00  0.00    +0.012 A 
ATOM     39  C   UNL     1       0.077  -0.753   1.088  0.00  0.00    +0.004 A 
ENDBRANCH  28  37
ENDBRANCH  27  30
ENDBRANCH   1  27
TORSDOF 7
