REMARK  Name = ZINC33959547
REMARK  15 active torsions:
REMARK  status: ('A' for Active; 'I' for Inactive)
REMARK    1  A    between atoms: C_1  and  C_2
REMARK    2  A    between atoms: C_2  and  N_3
REMARK    3  A    between atoms: N_3  and  C_4
REMARK    4  A    between atoms: N_3  and  C_6
REMARK    5  A    between atoms: C_4  and  C_5
REMARK    6  A    between atoms: C_9  and  C_12
REMARK    7  A    between atoms: N_13  and  N_14
REMARK    8  A    between atoms: C_15  and  C_17
REMARK    9  A    between atoms: C_17  and  C_19
REMARK   10  A    between atoms: C_17  and  N_32
REMARK   11  A    between atoms: C_19  and  C_20
REMARK   12  A    between atoms: C_20  and  C_21
REMARK   13  A    between atoms: C_21  and  C_22
REMARK   14  A    between atoms: C_22  and  N_23
REMARK   15  A    between atoms: C_24  and  C_26
REMARK                            x       y       z     vdW  Elec       q    Type
REMARK                         _______ _______ _______ _____ _____    ______ ____
ROOT
ATOM      1  C   UNL     1      10.652  -2.584   2.939  0.00  0.00    +0.021 C 
ENDROOT
BRANCH   1   2
ATOM      2  N   UNL     1      11.290  -2.650   4.261  0.00  0.00    +0.387 N 
ATOM      3  C   UNL     1      11.187  -1.341   4.918  0.00  0.00    -0.078 C 
ATOM      4  C   UNL     1      11.778  -1.426   6.327  0.00  0.00    -0.019 C 
ATOM      5  C   UNL     1      13.250  -1.837   6.233  0.00  0.00    -0.004 C 
ATOM      6  C   UNL     1      13.352  -3.167   5.480  0.00  0.00    -0.019 C 
ATOM      7  C   UNL     1      12.703  -3.018   4.103  0.00  0.00    -0.078 C 
ATOM      8  H   UNL     1      10.824  -3.345   4.824  0.00  0.00    -0.081 HD
ENDBRANCH   1   2
BRANCH   1  10
ATOM      9  N   UNL     1       8.466  -1.815   2.075  0.00  0.00    -0.208 N 
ATOM     10  C   UNL     1       9.180  -2.311   3.105  0.00  0.00    +0.219 C 
ATOM     11  O   UNL     1       8.637  -2.538   4.166  0.00  0.00    -0.276 OA
ATOM     12  H   UNL     1       8.900  -1.634   1.227  0.00  0.00    +0.177 HD
BRANCH   9  14
ATOM     13  C   UNL     1       6.410  -1.083   1.238  0.00  0.00    +0.138 C 
ATOM     14  N   UNL     1       7.097  -1.561   2.229  0.00  0.00    -0.188 NA
BRANCH  13  18
ATOM     15  C   UNL     1       2.261  -0.314   1.705  0.00  0.00    +0.030 A 
ATOM     16  C   UNL     1       2.882  -0.053   0.488  0.00  0.00    +0.024 A 
ATOM     17  C   UNL     1       4.228  -0.301   0.333  0.00  0.00    +0.011 A 
ATOM     18  C   UNL     1       4.969  -0.815   1.400  0.00  0.00    -0.005 A 
ATOM     19  C   UNL     1       4.342  -1.076   2.621  0.00  0.00    +0.011 A 
ATOM     20  C   UNL     1       2.997  -0.820   2.771  0.00  0.00    +0.024 A 
BRANCH  15  21
ATOM     21  N   UNL     1       0.898  -0.061   1.859  0.00  0.00    -0.330 N 
BRANCH  21  23
ATOM     22  C   UNL     1       0.148   2.002   0.780  0.00  0.00    +0.024 C 
ATOM     23  C   UNL     1       0.121   0.473   0.738  0.00  0.00    +0.102 C 
ENDBRANCH  21  23
BRANCH  21  24
ATOM     24  C   UNL     1       0.243  -0.329   3.142  0.00  0.00    +0.102 C 
ATOM     25  C   UNL     1      -0.283  -1.766   3.155  0.00  0.00    +0.024 C 
ENDBRANCH  21  24
ENDBRANCH  15  21
ENDBRANCH  13  18
ENDBRANCH   9  14
ENDBRANCH   1  10
BRANCH   1  26
ATOM     26  C   UNL     1      10.845  -3.918   2.213  0.00  0.00    -0.006 C 
BRANCH  26  27
ATOM     27  C   UNL     1      10.219  -3.834   0.820  0.00  0.00    +0.000 C 
BRANCH  27  28
ATOM     28  C   UNL     1      10.526  -5.118   0.045  0.00  0.00    +0.019 C 
BRANCH  28  29
ATOM     29  C   UNL     1       9.900  -5.035  -1.349  0.00  0.00    +0.104 C 
BRANCH  29  30
ATOM     30  N   UNL     1      10.195  -6.263  -2.090  0.00  0.00    -0.311 N 
ATOM     31  C   UNL     1       9.741  -6.415  -3.350  0.00  0.00    +0.244 C 
ATOM     32  O   UNL     1       9.087  -5.533  -3.871  0.00  0.00    -0.270 OA
ATOM     33  H   UNL     1      10.717  -6.968  -1.675  0.00  0.00    +0.149 HD
BRANCH  31  34
ATOM     34  C   UNL     1      10.038  -7.655  -4.098  0.00  0.00    +0.037 A 
ATOM     35  C   UNL     1      10.784  -8.673  -3.501  0.00  0.00    +0.013 A 
ATOM     36  C   UNL     1      11.057  -9.827  -4.205  0.00  0.00    +0.001 A 
ATOM     37  C   UNL     1      10.594  -9.978  -5.500  0.00  0.00    +0.000 A 
ATOM     38  C   UNL     1       9.855  -8.973  -6.098  0.00  0.00    +0.001 A 
ATOM     39  C   UNL     1       9.569  -7.816  -5.403  0.00  0.00    +0.013 A 
ENDBRANCH  31  34
ENDBRANCH  29  30
ENDBRANCH  28  29
ENDBRANCH  27  28
ENDBRANCH  26  27
ENDBRANCH   1  26
TORSDOF 13
