REMARK  Name = ZINC35747659
REMARK  16 active torsions:
REMARK  status: ('A' for Active; 'I' for Inactive)
REMARK    1  A    between atoms: C_1  and  C_2
REMARK    2  A    between atoms: C_5  and  C_9
REMARK    3  A    between atoms: C_6  and  C_8
REMARK    4  A    between atoms: C_18  and  C_20
REMARK    5  A    between atoms: C_20  and  N_21
REMARK    6  A    between atoms: N_21  and  C_22
REMARK    7  A    between atoms: N_21  and  C_26
REMARK    8  A    between atoms: C_22  and  C_23
REMARK    9  A    between atoms: C_23  and  O_24
REMARK   10  A    between atoms: O_24  and  C_25
REMARK   11  A    between atoms: C_26  and  C_27
REMARK   12  A    between atoms: C_27  and  C_29
REMARK   13  A    between atoms: C_27  and  O_34
REMARK   14  A    between atoms: C_29  and  O_30
REMARK   15  A    between atoms: O_30  and  C_31
REMARK   16  A    between atoms: C_31  and  C_32
REMARK                            x       y       z     vdW  Elec       q    Type
REMARK                         _______ _______ _______ _____ _____    ______ ____
ROOT
ATOM      1  C   UNL     1      -4.098  -8.635   8.264  0.00  0.00    +0.004 A 
ATOM      2  C   UNL     1      -4.010  -9.924   8.673  0.00  0.00    +0.056 A 
ATOM      3  S   UNL     1      -3.651 -10.810   7.169  0.00  0.00    -0.076 S 
ATOM      4  C   UNL     1      -3.627  -9.444   6.037  0.00  0.00    +0.116 A 
ATOM      5  C   UNL     1      -3.904  -8.333   6.851  0.00  0.00    +0.080 A 
ATOM      6  C   UNL     1      -3.951  -7.069   6.179  0.00  0.00    +0.260 A 
ATOM      7  O   UNL     1      -4.180  -6.046   6.801  0.00  0.00    -0.267 OA
ATOM      8  N   UNL     1      -3.738  -7.028   4.851  0.00  0.00    -0.312 N 
ATOM      9  H   UNL     1      -3.769  -6.175   4.391  0.00  0.00    +0.170 HD
ATOM     10  C   UNL     1      -3.481  -8.157   4.143  0.00  0.00    +0.094 A 
ATOM     11  N   UNL     1      -3.421  -9.323   4.728  0.00  0.00    -0.229 NA
ENDROOT
BRANCH   1  16
ATOM     12  C   UNL     1      -5.238  -4.431  12.030  0.00  0.00    +0.044 C 
ATOM     13  C   UNL     1      -4.940  -5.532  11.045  0.00  0.00    -0.050 A 
ATOM     14  C   UNL     1      -3.758  -6.243  11.143  0.00  0.00    +0.004 A 
ATOM     15  C   UNL     1      -3.479  -7.252  10.244  0.00  0.00    +0.009 A 
ATOM     16  C   UNL     1      -4.392  -7.553   9.234  0.00  0.00    -0.014 A 
ATOM     17  C   UNL     1      -5.582  -6.832   9.139  0.00  0.00    -0.042 A 
ATOM     18  C   UNL     1      -5.852  -5.830  10.048  0.00  0.00    +0.007 A 
ATOM     19  C   UNL     1      -6.573  -7.152   8.050  0.00  0.00    +0.044 C 
ENDBRANCH   1  16
BRANCH  10  20
ATOM     20  C   UNL     1      -3.248  -8.062   2.657  0.00  0.00    -0.003 C 
BRANCH  20  21
ATOM     21  N   UNL     1      -3.124  -9.413   2.093  0.00  0.00    +0.388 N 
ATOM     22  H   UNL     1      -2.420  -9.927   2.602  0.00  0.00    -0.081 HD
BRANCH  21  23
ATOM     23  C   UNL     1      -2.736  -9.320   0.679  0.00  0.00    -0.050 C 
BRANCH  23  24
ATOM     24  C   UNL     1      -1.372  -8.636   0.569  0.00  0.00    +0.141 C 
BRANCH  24  25
ATOM     25  O   UNL     1      -0.384  -9.435   1.222  0.00  0.00    -0.385 OA
ATOM     26  C   UNL     1       0.911  -8.832   1.274  0.00  0.00    +0.193 C 
ENDBRANCH  24  25
ENDBRANCH  23  24
ENDBRANCH  21  23
BRANCH  21  27
ATOM     27  C   UNL     1      -4.413 -10.110   2.202  0.00  0.00    -0.044 C 
BRANCH  27  28
ATOM     28  C   UNL     1      -4.234 -11.578   1.810  0.00  0.00    +0.124 C 
BRANCH  28  29
ATOM     29  O   UNL     1      -3.935 -11.665   0.416  0.00  0.00    -0.391 OA
ATOM     30  H   UNL     1      -4.622 -11.299  -0.158  0.00  0.00    +0.210 HD
ENDBRANCH  28  29
BRANCH  28  31
ATOM     31  C   UNL     1      -5.525 -12.345   2.104  0.00  0.00    +0.189 C 
BRANCH  31  32
ATOM     32  O   UNL     1      -5.322 -13.736   1.848  0.00  0.00    -0.373 OA
BRANCH  32  33
ATOM     33  C   UNL     1      -6.473 -14.546   2.092  0.00  0.00    +0.186 C 
BRANCH  33  34
ATOM     34  C   UNL     1      -6.146 -15.986   1.791  0.00  0.00    -0.007 C 
ATOM     35  C   UNL     1      -6.516 -16.929   2.622  0.00  0.00    +0.006 C 
ENDBRANCH  33  34
ENDBRANCH  32  33
ENDBRANCH  31  32
ENDBRANCH  28  31
ENDBRANCH  27  28
ENDBRANCH  21  27
ENDBRANCH  20  21
ENDBRANCH  10  20
TORSDOF 13
