REMARK  Name = ZINC01050897
REMARK  7 active torsions:
REMARK  status: ('A' for Active; 'I' for Inactive)
REMARK    1  A    between atoms: C_1  and  C_2
REMARK    2  A    between atoms: C_8  and  C_10
REMARK    3  A    between atoms: C_10  and  S_11
REMARK    4  A    between atoms: S_11  and  C_12
REMARK    5  A    between atoms: C_15  and  C_23
REMARK    6  A    between atoms: N_16  and  C_17
REMARK    7  A    between atoms: C_28  and  O_29
REMARK                            x       y       z     vdW  Elec       q    Type
REMARK                         _______ _______ _______ _____ _____    ______ ____
ROOT
ATOM      1  C   UNL     1       0.103  -7.886   3.983  0.00  0.00    +0.197 A 
ATOM      2  N   UNL     1       0.242  -7.402   5.197  0.00  0.00    -0.122 NA
ATOM      3  N   UNL     1       0.248  -8.357   6.056  0.00  0.00    -0.128 NA
ATOM      4  C   UNL     1       0.113  -9.512   5.447  0.00  0.00    +0.173 A 
ATOM      5  N   UNL     1       0.010  -9.247   4.098  0.00  0.00    -0.270 N 
ENDROOT
BRANCH   5   6
ATOM      6  C   UNL     1      -0.154 -10.176   3.062  0.00  0.00    +0.051 A 
ATOM      7  C   UNL     1      -1.331 -10.905   2.960  0.00  0.00    +0.026 A 
ATOM      8  C   UNL     1      -1.490 -11.820   1.938  0.00  0.00    +0.002 A 
ATOM      9  C   UNL     1      -0.477 -12.011   1.016  0.00  0.00    +0.000 A 
ATOM     10  C   UNL     1       0.697 -11.287   1.115  0.00  0.00    +0.002 A 
ATOM     11  C   UNL     1       0.859 -10.366   2.132  0.00  0.00    +0.026 A 
ENDBRANCH   5   6
BRANCH   4  12
ATOM     12  C   UNL     1       0.074 -10.843   6.086  0.00  0.00    +0.061 A 
ATOM     13  C   UNL     1       0.850 -11.887   5.580  0.00  0.00    +0.015 A 
ATOM     14  C   UNL     1       0.809 -13.128   6.181  0.00  0.00    +0.001 A 
ATOM     15  C   UNL     1       0.001 -13.343   7.284  0.00  0.00    +0.004 A 
ATOM     16  C   UNL     1      -0.772 -12.316   7.794  0.00  0.00    +0.046 A 
ATOM     17  C   UNL     1      -0.738 -11.063   7.206  0.00  0.00    +0.128 A 
BRANCH  17  18
ATOM     18  O   UNL     1      -1.492 -10.052   7.709  0.00  0.00    -0.506 OA
ATOM     19  H   UNL     1      -2.378  -9.994   7.326  0.00  0.00    +0.292 HD
ENDBRANCH  17  18
ENDBRANCH   4  12
BRANCH   1  20
ATOM     20  S   UNL     1       0.041  -6.957   2.487  0.00  0.00    -0.076 S 
BRANCH  20  21
ATOM     21  C   UNL     1       0.220  -5.236   3.032  0.00  0.00    +0.173 C 
BRANCH  21  29
ATOM     22  C   UNL     1       0.420   1.325  -0.328  0.00  0.00    +0.066 C 
ATOM     23  C   UNL     1       0.310  -0.177  -0.282  0.00  0.00    +0.047 A 
ATOM     24  C   UNL     1       0.153  -0.910  -1.411  0.00  0.00    +0.071 A 
ATOM     25  S   UNL     1       0.088  -2.560  -0.731  0.00  0.00    -0.060 S 
ATOM     26  C   UNL     1       0.265  -2.149   0.892  0.00  0.00    +0.165 A 
ATOM     27  N   UNL     1       0.367  -0.838   0.859  0.00  0.00    -0.230 NA
ATOM     28  N   UNL     1       0.299  -2.990   1.998  0.00  0.00    -0.264 N 
ATOM     29  C   UNL     1       0.183  -4.323   1.833  0.00  0.00    +0.229 C 
ATOM     30  O   UNL     1       0.049  -4.788   0.721  0.00  0.00    -0.275 OA
ATOM     31  H   UNL     1       0.406  -2.619   2.887  0.00  0.00    +0.157 HD
ENDBRANCH  21  29
ENDBRANCH  20  21
ENDBRANCH   1  20
TORSDOF 6
