REMARK  Name = ZINC39599015
REMARK  7 active torsions:
REMARK  status: ('A' for Active; 'I' for Inactive)
REMARK    1  A    between atoms: C_1  and  O_2
REMARK    2  A    between atoms: O_2  and  C_3
REMARK    3  A    between atoms: C_9  and  C_12
REMARK    4  A    between atoms: C_12  and  C_13
REMARK    5  A    between atoms: C_13  and  N_14
REMARK    6  A    between atoms: C_15  and  C_17
REMARK    7  A    between atoms: C_28  and  C_30
REMARK                            x       y       z     vdW  Elec       q    Type
REMARK                         _______ _______ _______ _____ _____    ______ ____
ROOT
ATOM      1  C   UNL     1       0.708  -8.463   2.545  0.00  0.00    +0.100 C 
ATOM      2  C   UNL     1      -0.076  -9.727   2.128  0.00  0.00    +0.121 C 
ATOM      3  N   UNL     1       0.493 -10.812   2.960  0.00  0.00    -0.296 N 
ATOM      4  C   UNL     1       0.711 -10.185   4.286  0.00  0.00    +0.115 C 
ATOM      5  C   UNL     1       1.223  -8.767   3.962  0.00  0.00    -0.004 C 
ATOM      6  C   UNL     1       0.653  -7.762   4.959  0.00  0.00    -0.010 C 
ATOM      7  C   UNL     1       1.225  -8.049   6.350  0.00  0.00    -0.082 C 
ATOM      8  N   UNL     1       2.689  -7.952   6.309  0.00  0.00    +0.379 N 
ATOM      9  C   UNL     1       3.234  -8.985   5.419  0.00  0.00    -0.082 C 
ATOM     10  C   UNL     1       2.748  -8.737   3.989  0.00  0.00    -0.010 C 
ATOM     11  C   UNL     1       0.754 -12.083   2.595  0.00  0.00    +0.249 C 
ATOM     12  O   UNL     1       0.611 -12.424   1.437  0.00  0.00    -0.270 OA
ATOM     13  H   UNL     1       2.955  -7.041   5.968  0.00  0.00    -0.086 HD
ATOM     14  H   UNL     1       3.059  -8.082   7.239  0.00  0.00    -0.086 HD
ENDROOT
BRANCH  11  15
ATOM     15  C   UNL     1       1.214 -13.061   3.600  0.00  0.00    +0.072 A 
ATOM     16  C   UNL     1       0.731 -12.999   4.910  0.00  0.00    +0.019 A 
ATOM     17  C   UNL     1       1.164 -13.914   5.845  0.00  0.00    +0.039 A 
ATOM     18  C   UNL     1       2.077 -14.896   5.489  0.00  0.00    +0.126 A 
ATOM     19  C   UNL     1       2.560 -14.964   4.193  0.00  0.00    +0.077 A 
ATOM     20  C   UNL     1       2.130 -14.056   3.244  0.00  0.00    +0.138 A 
ATOM     21  F   UNL     1       2.597 -14.126   1.979  0.00  0.00    -0.205 F 
ATOM     22  F   UNL     1       2.497 -15.790   6.412  0.00  0.00    -0.205 F 
ENDBRANCH  11  15
BRANCH   1  24
ATOM     23  N   UNL     1       0.316  -6.021   2.489  0.00  0.00    -0.315 N 
ATOM     24  C   UNL     1      -0.203  -7.262   2.565  0.00  0.00    +0.218 C 
ATOM     25  O   UNL     1      -1.403  -7.413   2.648  0.00  0.00    -0.275 OA
ATOM     26  H   UNL     1       1.276  -5.900   2.422  0.00  0.00    +0.149 HD
BRANCH  23  27
ATOM     27  C   UNL     1      -0.569  -4.854   2.507  0.00  0.00    +0.109 C 
BRANCH  27  28
ATOM     28  C   UNL     1       0.268  -3.577   2.410  0.00  0.00    +0.056 C 
BRANCH  28  35
ATOM     29  C   UNL     1      -1.691  -1.081   5.877  0.00  0.00    +0.121 A 
ATOM     30  C   UNL     1      -2.477  -0.033   5.405  0.00  0.00    +0.047 A 
ATOM     31  C   UNL     1      -2.617   0.184   4.052  0.00  0.00    +0.030 A 
ATOM     32  C   UNL     1      -1.969  -0.646   3.144  0.00  0.00    +0.047 A 
ATOM     33  N   UNL     1      -1.916  -0.683   1.766  0.00  0.00    -0.360 N 
ATOM     34  C   UNL     1      -1.122  -1.720   1.360  0.00  0.00    +0.087 A 
ATOM     35  C   UNL     1      -0.643  -2.377   2.429  0.00  0.00    -0.021 A 
ATOM     36  C   UNL     1      -1.174  -1.705   3.618  0.00  0.00    +0.006 A 
ATOM     37  C   UNL     1      -1.036  -1.913   4.991  0.00  0.00    +0.056 A 
ATOM     38  H   UNL     1      -2.374  -0.067   1.174  0.00  0.00    +0.165 HD
BRANCH  29  40
ATOM     39  C   UNL     1      -2.263  -0.380   8.076  0.00  0.00    +0.277 C 
ATOM     40  O   UNL     1      -1.563  -1.281   7.216  0.00  0.00    -0.495 OA
ENDBRANCH  29  40
ENDBRANCH  28  35
ENDBRANCH  27  28
ENDBRANCH  23  27
ENDBRANCH   1  24
TORSDOF 6
