REMARK  Name = ZINC36061112
REMARK  18 active torsions:
REMARK  status: ('A' for Active; 'I' for Inactive)
REMARK    1  A    between atoms: C_1  and  C_2
REMARK    2  A    between atoms: C_3  and  C_30
REMARK    3  A    between atoms: C_4  and  C_20
REMARK    4  A    between atoms: C_7  and  C_12
REMARK    5  A    between atoms: C_13  and  N_15
REMARK    6  A    between atoms: N_15  and  C_16
REMARK    7  A    between atoms: C_16  and  C_17
REMARK    8  A    between atoms: C_17  and  C_18
REMARK    9  A    between atoms: C_17  and  C_19
REMARK   10  A    between atoms: C_23  and  O_28
REMARK   11  A    between atoms: C_25  and  O_26
REMARK   12  A    between atoms: O_26  and  C_27
REMARK   13  A    between atoms: O_28  and  C_29
REMARK   14  A    between atoms: C_30  and  O_32
REMARK   15  A    between atoms: O_32  and  C_33
REMARK   16  A    between atoms: C_33  and  C_34
REMARK   17  A    between atoms: C_34  and  O_35
REMARK   18  A    between atoms: O_35  and  C_36
REMARK                            x       y       z     vdW  Elec       q    Type
REMARK                         _______ _______ _______ _____ _____    ______ ____
ROOT
ATOM      1  C   UNL     1      -0.220   2.038   0.812  0.00  0.00    +0.066 C 
ATOM      2  C   UNL     1      -0.225   0.533   0.728  0.00  0.00    +0.053 C 
ATOM      3  C   UNL     1      -1.410  -0.136   0.488  0.00  0.00    +0.083 C 
ATOM      4  C   UNL     1      -1.365  -1.646   0.413  0.00  0.00    +0.153 C 
ATOM      5  N   UNL     1      -0.039  -2.293   0.604  0.00  0.00    -0.267 N 
ATOM      6  C   UNL     1       0.237  -3.646   0.576  0.00  0.00    +0.048 C 
ATOM      7  C   UNL     1       1.518  -4.028   0.773  0.00  0.00    +0.072 C 
ATOM      8  S   UNL     1       2.339  -2.464   1.000  0.00  0.00    -0.060 S 
ATOM      9  C   UNL     1       1.012  -1.450   0.830  0.00  0.00    +0.166 C 
ATOM     10  N   UNL     1       0.905  -0.138   0.879  0.00  0.00    -0.230 NA
ENDROOT
BRANCH   4  11
ATOM     11  C   UNL     1      -2.301  -2.192   1.460  0.00  0.00    +0.020 A 
ATOM     12  C   UNL     1      -3.513  -2.740   1.083  0.00  0.00    +0.013 A 
ATOM     13  C   UNL     1      -4.374  -3.241   2.041  0.00  0.00    +0.046 A 
ATOM     14  C   UNL     1      -4.024  -3.194   3.383  0.00  0.00    +0.124 A 
ATOM     15  C   UNL     1      -2.810  -2.645   3.763  0.00  0.00    +0.091 A 
ATOM     16  C   UNL     1      -1.945  -2.148   2.800  0.00  0.00    +0.129 A 
BRANCH  16  17
ATOM     17  O   UNL     1      -0.751  -1.613   3.168  0.00  0.00    -0.495 OA
ATOM     18  C   UNL     1      -0.402  -1.697   4.552  0.00  0.00    +0.277 C 
ENDBRANCH  16  17
BRANCH  14  19
ATOM     19  O   UNL     1      -4.872  -3.687   4.324  0.00  0.00    -0.495 OA
ATOM     20  C   UNL     1      -6.106  -4.238   3.861  0.00  0.00    +0.277 C 
ENDBRANCH  14  19
ENDBRANCH   4  11
BRANCH   6  21
ATOM     21  C   UNL     1      -0.825  -4.635   0.340  0.00  0.00    +0.091 C 
ATOM     22  C   UNL     1      -0.556  -5.950   0.448  0.00  0.00    +0.239 C 
ATOM     23  O   UNL     1       0.715  -6.366   0.665  0.00  0.00    -0.271 OA
BRANCH  22  24
ATOM     24  N   UNL     1      -1.579  -6.877   0.336  0.00  0.00    -0.312 N 
ATOM     25  H   UNL     1      -2.475  -6.585   0.108  0.00  0.00    +0.149 HD
BRANCH  24  26
ATOM     26  C   UNL     1      -1.307  -8.298   0.563  0.00  0.00    +0.107 C 
BRANCH  26  27
ATOM     27  C   UNL     1      -2.565  -9.113   0.257  0.00  0.00    -0.000 C 
ATOM     28  C   UNL     1      -2.899  -8.997  -1.232  0.00  0.00    +0.009 C 
ATOM     29  C   UNL     1      -2.321 -10.582   0.612  0.00  0.00    +0.009 C 
ENDBRANCH  26  27
ENDBRANCH  24  26
ENDBRANCH  22  24
ENDBRANCH   6  21
BRANCH   3  30
ATOM     30  C   UNL     1      -2.614   0.560   0.322  0.00  0.00    +0.339 C 
ATOM     31  O   UNL     1      -2.648   1.766   0.493  0.00  0.00    -0.245 OA
BRANCH  30  32
ATOM     32  O   UNL     1      -3.736  -0.105  -0.029  0.00  0.00    -0.459 OA
BRANCH  32  33
ATOM     33  C   UNL     1      -4.900   0.681  -0.295  0.00  0.00    +0.260 C 
BRANCH  33  34
ATOM     34  C   UNL     1      -6.091  -0.243  -0.556  0.00  0.00    +0.200 C 
BRANCH  34  35
ATOM     35  O   UNL     1      -6.403  -0.965   0.637  0.00  0.00    -0.380 OA
ATOM     36  C   UNL     1      -7.575  -1.777   0.535  0.00  0.00    +0.194 C 
ENDBRANCH  34  35
ENDBRANCH  33  34
ENDBRANCH  32  33
ENDBRANCH  30  32
ENDBRANCH   3  30
TORSDOF 12
