REMARK  Name = ZINC12489038
REMARK  15 active torsions:
REMARK  status: ('A' for Active; 'I' for Inactive)
REMARK    1  A    between atoms: C_1  and  C_2
REMARK    2  A    between atoms: C_2  and  C_3
REMARK    3  A    between atoms: C_3  and  C_4
REMARK    4  A    between atoms: C_3  and  C_5
REMARK    5  A    between atoms: C_3  and  N_6
REMARK    6  A    between atoms: C_7  and  C_9
REMARK    7  A    between atoms: C_9  and  C_11
REMARK    8  A    between atoms: C_9  and  N_18
REMARK    9  A    between atoms: C_14  and  C_17
REMARK   10  A    between atoms: N_18  and  C_19
REMARK   11  A    between atoms: C_21  and  C_26
REMARK   12  A    between atoms: C_23  and  C_25
REMARK   13  A    between atoms: C_27  and  C_29
REMARK   14  A    between atoms: C_29  and  N_30
REMARK   15  A    between atoms: C_31  and  C_33
REMARK                            x       y       z     vdW  Elec       q    Type
REMARK                         _______ _______ _______ _____ _____    ______ ____
ROOT
ATOM      1  N   UNL     1      -1.177   3.064   1.593  0.00  0.00    -0.254 N 
ATOM      2  C   UNL     1      -0.622   1.879   1.913  0.00  0.00    +0.238 C 
ATOM      3  O   UNL     1      -0.200   1.690   3.035  0.00  0.00    -0.274 OA
ENDROOT
BRANCH   1   4
ATOM      4  C   UNL     1      -1.792   3.234   0.347  0.00  0.00    +0.038 A 
ATOM      5  C   UNL     1      -3.175   3.318   0.258  0.00  0.00    +0.027 A 
ATOM      6  C   UNL     1      -3.778   3.491  -0.972  0.00  0.00    -0.048 A 
ATOM      7  C   UNL     1      -3.006   3.571  -2.117  0.00  0.00    +0.006 A 
ATOM      8  C   UNL     1      -1.628   3.482  -2.033  0.00  0.00    -0.048 A 
ATOM      9  C   UNL     1      -1.019   3.314  -0.805  0.00  0.00    +0.027 A 
ATOM     10  C   UNL     1      -0.791   3.569  -3.283  0.00  0.00    +0.044 C 
ATOM     11  C   UNL     1      -5.278   3.588  -1.068  0.00  0.00    +0.044 C 
ENDBRANCH   1   4
BRANCH   1  12
ATOM     12  C   UNL     1      -1.139   4.174   2.548  0.00  0.00    +0.197 C 
BRANCH  12  13
ATOM     13  C   UNL     1      -1.952   5.325   2.014  0.00  0.00    -0.018 A 
ATOM     14  C   UNL     1      -1.662   5.858   0.772  0.00  0.00    +0.006 A 
ATOM     15  C   UNL     1      -2.411   6.911   0.280  0.00  0.00    +0.004 A 
ATOM     16  C   UNL     1      -3.443   7.437   1.034  0.00  0.00    -0.050 A 
ATOM     17  C   UNL     1      -3.729   6.907   2.279  0.00  0.00    +0.004 A 
ATOM     18  C   UNL     1      -2.984   5.851   2.768  0.00  0.00    +0.006 A 
ATOM     19  C   UNL     1      -4.255   8.589   0.501  0.00  0.00    +0.044 C 
ENDBRANCH  12  13
BRANCH  12  21
ATOM     20  N   UNL     1       0.568   5.631   3.589  0.00  0.00    -0.308 N 
ATOM     21  C   UNL     1       0.288   4.616   2.747  0.00  0.00    +0.239 C 
ATOM     22  O   UNL     1       1.184   4.059   2.149  0.00  0.00    -0.273 OA
ATOM     23  H   UNL     1      -0.149   6.076   4.067  0.00  0.00    +0.149 HD
BRANCH  20  24
ATOM     24  C   UNL     1       1.955   6.061   3.782  0.00  0.00    +0.029 C 
ATOM     25  C   UNL     1       2.780   4.892   4.324  0.00  0.00    +0.031 C 
ATOM     26  C   UNL     1       2.538   6.519   2.444  0.00  0.00    +0.031 C 
BRANCH  24  28
ATOM     27  C   UNL     1       3.444   7.669   4.982  0.00  0.00    +0.006 C 
ATOM     28  C   UNL     1       1.995   7.220   4.780  0.00  0.00    +0.022 C 
ENDBRANCH  24  28
ENDBRANCH  20  24
ENDBRANCH  12  21
ENDBRANCH   1  12
BRANCH   2  29
ATOM     29  C   UNL     1      -0.523   0.788   0.879  0.00  0.00    +0.201 C 
BRANCH  29  30
ATOM     30  N   UNL     1       0.165  -0.370   1.454  0.00  0.00    -0.302 N 
ATOM     31  C   UNL     1       0.369  -1.473   0.706  0.00  0.00    +0.251 C 
ATOM     32  O   UNL     1      -0.020  -1.507  -0.447  0.00  0.00    -0.270 OA
ATOM     33  H   UNL     1       0.475  -0.343   2.373  0.00  0.00    +0.150 HD
BRANCH  31  34
ATOM     34  C   UNL     1       1.058  -2.632   1.282  0.00  0.00    +0.074 A 
ATOM     35  C   UNL     1       1.359  -3.850   0.693  0.00  0.00    +0.021 A 
ATOM     36  C   UNL     1       2.022  -4.771   1.466  0.00  0.00    +0.008 A 
ATOM     37  C   UNL     1       2.337  -4.455   2.750  0.00  0.00    +0.046 A 
ATOM     38  S   UNL     1       1.720  -2.845   2.924  0.00  0.00    -0.092 S 
ENDBRANCH  31  34
ENDBRANCH  29  30
ENDBRANCH   2  29
TORSDOF 9
