REMARK  Name = ZINC62324328
REMARK  4 active torsions:
REMARK  status: ('A' for Active; 'I' for Inactive)
REMARK    1  A    between atoms: C_1  and  C_2
REMARK    2  A    between atoms: C_2  and  C_3
REMARK    3  A    between atoms: N_15  and  C_16
REMARK    4  A    between atoms: C_22  and  C_24
REMARK                            x       y       z     vdW  Elec       q    Type
REMARK                         _______ _______ _______ _____ _____    ______ ____
ROOT
ATOM      1  C   UNL     1       0.707  -0.490  -1.238  0.00  0.00    -0.046 A 
ATOM      2  C   UNL     1      -0.011  -0.719  -2.397  0.00  0.00    +0.005 A 
ATOM      3  C   UNL     1       0.628  -1.165  -3.537  0.00  0.00    +0.025 A 
ATOM      4  C   UNL     1       2.000  -1.386  -3.521  0.00  0.00    +0.061 A 
ATOM      5  C   UNL     1       2.715  -1.152  -2.351  0.00  0.00    +0.134 A 
ATOM      6  C   UNL     1       2.075  -0.702  -1.218  0.00  0.00    +0.034 A 
ATOM      7  S   UNL     1       4.456  -1.432  -2.356  0.00  0.00    +0.103 S 
ATOM      8  O   UNL     1       5.064  -0.245  -1.864  0.00  0.00    -0.146 OA
ATOM      9  O   UNL     1       4.669  -2.704  -1.760  0.00  0.00    -0.146 OA
ATOM     10  N   UNL     1       4.890  -1.567  -3.951  0.00  0.00    -0.097 NA
ATOM     11  C   UNL     1       3.997  -1.741  -4.870  0.00  0.00    +0.205 C 
ATOM     12  N   UNL     1       2.656  -1.841  -4.662  0.00  0.00    -0.285 N 
ATOM     13  N   UNL     1       4.441  -1.833  -6.168  0.00  0.00    -0.313 N 
ATOM     14  H   UNL     1       2.120  -2.256  -5.356  0.00  0.00    +0.155 HD
ATOM     15  H   UNL     1       3.805  -1.964  -6.890  0.00  0.00    +0.149 HD
ENDROOT
BRANCH  13  16
ATOM     16  C   UNL     1       5.872  -1.733  -6.462  0.00  0.00    +0.076 C 
ATOM     17  C   UNL     1       6.266  -0.260  -6.587  0.00  0.00    +0.022 C 
ATOM     18  C   UNL     1       5.467   0.388  -7.719  0.00  0.00    +0.002 C 
ATOM     19  C   UNL     1       5.769  -0.334  -9.034  0.00  0.00    +0.000 C 
ATOM     20  C   UNL     1       5.375  -1.807  -8.910  0.00  0.00    +0.005 C 
ATOM     21  C   UNL     1       6.175  -2.455  -7.777  0.00  0.00    +0.006 C 
ATOM     22  C   UNL     1       5.781  -3.928  -7.653  0.00  0.00    +0.009 C 
ENDBRANCH  13  16
BRANCH   1  24
ATOM     23  C   UNL     1      -0.019   1.526   0.010  0.00  0.00    +0.009 C 
ATOM     24  C   UNL     1       0.002  -0.004   0.002  0.00  0.00    +0.032 C 
ENDBRANCH   1  24
TORSDOF 2
