REMARK  Name = ZINC39958095
REMARK  6 active torsions:
REMARK  status: ('A' for Active; 'I' for Inactive)
REMARK    1  A    between atoms: C_1  and  C_2
REMARK    2  A    between atoms: C_4  and  C_16
REMARK    3  A    between atoms: C_6  and  C_14
REMARK    4  A    between atoms: C_7  and  N_13
REMARK    5  A    between atoms: N_18  and  C_25
REMARK    6  A    between atoms: C_25  and  C_26
REMARK                            x       y       z     vdW  Elec       q    Type
REMARK                         _______ _______ _______ _____ _____    ______ ____
ROOT
ATOM      1  C   UNL     1      -2.762   0.875  -0.717  0.00  0.00    -0.010 A 
ATOM      2  C   UNL     1      -2.350   1.299  -1.922  0.00  0.00    +0.091 A 
ATOM      3  N   UNL     1      -2.738   2.597  -2.117  0.00  0.00    -0.342 N 
ATOM      4  C   UNL     1      -3.427   3.050  -1.015  0.00  0.00    +0.050 A 
ATOM      5  C   UNL     1      -3.478   1.990  -0.092  0.00  0.00    +0.004 A 
ATOM      6  C   UNL     1      -4.128   2.161   1.131  0.00  0.00    +0.010 A 
ATOM      7  C   UNL     1      -4.716   3.360   1.425  0.00  0.00    +0.001 A 
ATOM      8  C   UNL     1      -4.672   4.408   0.516  0.00  0.00    +0.002 A 
ATOM      9  C   UNL     1      -4.028   4.263  -0.693  0.00  0.00    +0.026 A 
ENDROOT
BRANCH   1  13
ATOM     10  C   UNL     1      -0.018   1.503   0.010  0.00  0.00    +0.067 C 
ATOM     11  C   UNL     1       0.002  -0.004   0.002  0.00  0.00    +0.066 C 
ATOM     12  C   UNL     1      -1.064  -0.768   0.003  0.00  0.00    +0.030 C 
ATOM     13  C   UNL     1      -2.537  -0.492  -0.122  0.00  0.00    +0.100 C 
ATOM     14  C   UNL     1      -3.075  -1.565  -1.050  0.00  0.00    +0.098 C 
ATOM     15  C   UNL     1      -2.317  -2.612  -1.438  0.00  0.00    +0.195 C 
ATOM     16  O   UNL     1      -1.033  -2.841  -1.107  0.00  0.00    -0.448 OA
ATOM     17  C   UNL     1      -0.528  -2.199   0.066  0.00  0.00    +0.343 C 
ATOM     18  N   UNL     1       0.921  -1.985   0.002  0.00  0.00    -0.138 NA
ATOM     19  N   UNL     1       1.127  -0.765  -0.013  0.00  0.00    -0.155 NA
BRANCH  15  20
ATOM     20  N   UNL     1      -2.917  -3.538  -2.254  0.00  0.00    -0.329 N 
ATOM     21  H   UNL     1      -3.842  -3.421  -2.523  0.00  0.00    +0.145 HD
ATOM     22  H   UNL     1      -2.417  -4.310  -2.562  0.00  0.00    +0.145 HD
ENDBRANCH  15  20
BRANCH  14  23
ATOM     23  C   UNL     1      -4.422  -1.466  -1.525  0.00  0.00    +0.101 C 
ATOM     24  N   UNL     1      -5.491  -1.387  -1.903  0.00  0.00    -0.191 NA
ENDBRANCH  14  23
ENDBRANCH   1  13
BRANCH   3  25
ATOM     25  C   UNL     1      -2.462   3.386  -3.320  0.00  0.00    +0.161 C 
BRANCH  25  26
ATOM     26  C   UNL     1      -1.212   4.202  -3.110  0.00  0.00    +0.026 A 
ATOM     27  C   UNL     1      -1.299   5.474  -2.570  0.00  0.00    +0.130 A 
ATOM     28  C   UNL     1      -0.150   6.223  -2.377  0.00  0.00    +0.039 A 
ATOM     29  C   UNL     1       1.081   5.700  -2.723  0.00  0.00    +0.004 A 
ATOM     30  C   UNL     1       1.168   4.430  -3.262  0.00  0.00    +0.020 A 
ATOM     31  C   UNL     1       0.021   3.678  -3.450  0.00  0.00    +0.049 A 
ATOM     32 CL   UNL     1       0.132   2.081  -4.120  0.00  0.00    -0.083 Cl
ATOM     33  F   UNL     1      -2.503   5.984  -2.232  0.00  0.00    -0.205 F 
ENDBRANCH  25  26
ENDBRANCH   3  25
TORSDOF 5
