REMARK  Name = ZINC63761350
REMARK  12 active torsions:
REMARK  status: ('A' for Active; 'I' for Inactive)
REMARK    1  A    between atoms: C_1  and  C_2
REMARK    2  A    between atoms: C_2  and  C_3
REMARK    3  A    between atoms: C_2  and  C_4
REMARK    4  A    between atoms: C_4  and  C_6
REMARK    5  A    between atoms: C_4  and  N_10
REMARK    6  A    between atoms: C_6  and  O_8
REMARK    7  A    between atoms: O_8  and  C_9
REMARK    8  A    between atoms: C_11  and  C_13
REMARK    9  A    between atoms: C_13  and  C_15
REMARK   10  A    between atoms: C_13  and  N_25
REMARK   11  A    between atoms: C_15  and  C_16
REMARK   12  A    between atoms: C_26  and  C_28
REMARK                            x       y       z     vdW  Elec       q    Type
REMARK                         _______ _______ _______ _____ _____    ______ ____
ROOT
ATOM      1  C   UNL     1      -2.661  -0.514  -3.613  0.00  0.00    +0.163 C 
ENDROOT
BRANCH   1   3
ATOM      2  N   UNL     1      -2.105  -0.148  -1.230  0.00  0.00    -0.301 N 
ATOM      3  C   UNL     1      -1.970  -0.910  -2.334  0.00  0.00    +0.234 C 
ATOM      4  O   UNL     1      -1.291  -1.915  -2.297  0.00  0.00    -0.274 OA
ATOM      5  H   UNL     1      -2.648   0.655  -1.260  0.00  0.00    +0.150 HD
BRANCH   2   6
ATOM      6  C   UNL     1      -1.433  -0.534   0.013  0.00  0.00    +0.184 C 
BRANCH   6   8
ATOM      7  C   UNL     1      -0.019   1.526   0.010  0.00  0.00    +0.009 C 
ATOM      8  C   UNL     1       0.002  -0.004   0.002  0.00  0.00    +0.014 C 
ATOM      9  C   UNL     1       0.742  -0.511   1.242  0.00  0.00    +0.009 C 
ENDBRANCH   6   8
BRANCH   6  10
ATOM     10  C   UNL     1      -2.175   0.051   1.187  0.00  0.00    +0.328 C 
ATOM     11  O   UNL     1      -3.164   0.721   1.004  0.00  0.00    -0.249 OA
BRANCH  10  12
ATOM     12  O   UNL     1      -1.738  -0.173   2.436  0.00  0.00    -0.467 OA
ATOM     13  C   UNL     1      -2.490   0.412   3.501  0.00  0.00    +0.280 C 
ENDBRANCH  10  12
ENDBRANCH   6  10
ENDBRANCH   2   6
ENDBRANCH   1   3
BRANCH   1  14
ATOM     14  N   UNL     1      -2.359  -1.497  -4.656  0.00  0.00    -0.303 N 
ATOM     15  C   UNL     1      -3.096  -2.620  -4.758  0.00  0.00    +0.220 C 
ATOM     16  O   UNL     1      -4.010  -2.818  -3.985  0.00  0.00    -0.275 OA
ATOM     17  H   UNL     1      -1.628  -1.339  -5.274  0.00  0.00    +0.149 HD
BRANCH  15  18
ATOM     18  C   UNL     1      -2.785  -3.632  -5.831  0.00  0.00    +0.048 C 
ATOM     19  C   UNL     1      -1.355  -4.143  -5.650  0.00  0.00    +0.019 C 
ATOM     20  C   UNL     1      -1.039  -5.170  -6.740  0.00  0.00    -0.009 C 
ATOM     21  C   UNL     1      -2.017  -6.342  -6.635  0.00  0.00    +0.007 C 
ATOM     22  C   UNL     1      -3.448  -5.830  -6.816  0.00  0.00    -0.009 C 
ATOM     23  C   UNL     1      -3.763  -4.804  -5.726  0.00  0.00    +0.019 C 
ATOM     24  C   UNL     1      -3.585  -5.173  -8.191  0.00  0.00    +0.007 C 
ATOM     25  C   UNL     1      -2.607  -4.001  -8.295  0.00  0.00    -0.009 C 
ATOM     26  C   UNL     1      -1.176  -4.513  -8.115  0.00  0.00    +0.007 C 
ATOM     27  C   UNL     1      -2.922  -2.974  -7.206  0.00  0.00    +0.019 C 
ENDBRANCH  15  18
ENDBRANCH   1  14
BRANCH   1  28
ATOM     28  C   UNL     1      -2.167   0.866  -4.053  0.00  0.00    +0.065 C 
BRANCH  28  29
ATOM     29  C   UNL     1      -2.946   1.315  -5.263  0.00  0.00    -0.039 C 
ATOM     30  C   UNL     1      -4.041   2.109  -5.276  0.00  0.00    -0.001 A 
ATOM     31  C   UNL     1      -4.807   2.764  -4.208  0.00  0.00    +0.010 A 
ATOM     32  C   UNL     1      -5.884   3.512  -4.538  0.00  0.00    +0.001 A 
ATOM     33  C   UNL     1      -6.286   3.678  -5.871  0.00  0.00    +0.002 A 
ATOM     34  C   UNL     1      -5.633   3.107  -6.906  0.00  0.00    +0.026 A 
ATOM     35  C   UNL     1      -4.487   2.299  -6.674  0.00  0.00    +0.043 A 
ATOM     36  N   UNL     1      -3.697   1.649  -7.495  0.00  0.00    -0.380 N 
ATOM     37  C   UNL     1      -2.657   0.977  -6.708  0.00  0.00    +0.144 C 
ATOM     38  H   UNL     1      -3.783   1.621  -8.460  0.00  0.00    +0.160 HD
ENDBRANCH  28  29
ENDBRANCH   1  28
TORSDOF 9
