REMARK  Name = ZINC18057552
REMARK  7 active torsions:
REMARK  status: ('A' for Active; 'I' for Inactive)
REMARK    1  A    between atoms: C_1  and  C_2
REMARK    2  A    between atoms: C_9  and  C_11
REMARK    3  A    between atoms: C_12  and  C_32
REMARK    4  A    between atoms: C_16  and  C_18
REMARK    5  A    between atoms: C_21  and  N_24
REMARK    6  A    between atoms: N_24  and  C_25
REMARK    7  A    between atoms: N_24  and  C_26
REMARK                            x       y       z     vdW  Elec       q    Type
REMARK                         _______ _______ _______ _____ _____    ______ ____
ROOT
ATOM      1  C   UNL     1       2.539   4.775   1.239  0.00  0.00    +0.043 C 
ATOM      2  C   UNL     1       2.303   6.096   1.205  0.00  0.00    +0.014 C 
ATOM      3  N   UNL     1       1.986   6.712   0.025  0.00  0.00    -0.321 N 
ATOM      4  C   UNL     1       2.284   6.120  -1.173  0.00  0.00    +0.015 C 
ATOM      5  C   UNL     1       2.517   4.792  -1.240  0.00  0.00    +0.024 C 
ATOM      6  C   UNL     1       2.455   3.935  -0.001  0.00  0.00    +0.090 C 
ATOM      7  C   UNL     1       2.820   4.170  -2.464  0.00  0.00    +0.162 C 
ATOM      8  O   UNL     1       3.038   2.975  -2.489  0.00  0.00    -0.292 OA
ATOM      9  C   UNL     1       2.880   4.958  -3.744  0.00  0.00    +0.080 C 
ATOM     10  C   UNL     1       1.941   6.164  -3.632  0.00  0.00    +0.014 C 
ATOM     11  C   UNL     1       2.350   6.985  -2.407  0.00  0.00    +0.051 C 
ATOM     12  C   UNL     1       2.387   6.906   2.473  0.00  0.00    +0.061 C 
ATOM     13  H   UNL     1       1.488   7.693   0.033  0.00  0.00    +0.152 HD
ENDROOT
BRANCH   1  22
ATOM     14  C   UNL     1       4.716  -1.113   4.978  0.00  0.00    +0.044 C 
ATOM     15  C   UNL     1       4.324   0.341   4.916  0.00  0.00    -0.046 A 
ATOM     16  C   UNL     1       4.383   1.141   6.050  0.00  0.00    +0.023 A 
ATOM     17  C   UNL     1       4.017   2.469   5.960  0.00  0.00    +0.113 A 
ATOM     18  N   UNL     1       3.614   2.983   4.813  0.00  0.00    -0.240 NA
ATOM     19  C   UNL     1       3.544   2.253   3.711  0.00  0.00    +0.125 A 
ATOM     20  C   UNL     1       3.892   0.907   3.731  0.00  0.00    +0.047 A 
ATOM     21  N   UNL     1       3.112   2.838   2.523  0.00  0.00    -0.267 N 
ATOM     22  C   UNL     1       2.873   4.163   2.472  0.00  0.00    +0.248 C 
ATOM     23  O   UNL     1       2.944   4.834   3.485  0.00  0.00    -0.270 OA
ATOM     24  H   UNL     1       2.967   2.218   1.626  0.00  0.00    +0.157 HD
ENDBRANCH   1  22
BRANCH   6  25
ATOM     25  C   UNL     1       1.157   3.169   0.007  0.00  0.00    -0.035 A 
ATOM     26  C   UNL     1       1.172   1.786   0.000  0.00  0.00    +0.006 A 
ATOM     27  C   UNL     1      -0.015   1.081   0.007  0.00  0.00    +0.023 A 
ATOM     28  C   UNL     1      -1.226   1.763   0.016  0.00  0.00    +0.029 A 
ATOM     29  C   UNL     1      -1.237   3.152   0.029  0.00  0.00    +0.023 A 
ATOM     30  C   UNL     1      -0.046   3.851   0.022  0.00  0.00    +0.006 A 
BRANCH  28  31
ATOM     31  N   UNL     1      -2.429   1.053   0.018  0.00  0.00    -0.336 N 
ATOM     32  C   UNL     1      -2.415  -0.412   0.010  0.00  0.00    +0.129 C 
ATOM     33  C   UNL     1      -3.704   1.774   0.026  0.00  0.00    +0.129 C 
ENDBRANCH  28  31
ENDBRANCH   6  25
TORSDOF 3
