REMARK  Name = ZINC04338058
REMARK  6 active torsions:
REMARK  status: ('A' for Active; 'I' for Inactive)
REMARK    1  A    between atoms: C_1  and  C_2
REMARK    2  A    between atoms: C_5  and  C_8
REMARK    3  A    between atoms: C_10  and  C_22
REMARK    4  A    between atoms: C_12  and  C_17
REMARK    5  A    between atoms: C_12  and  O_21
REMARK    6  A    between atoms: C_22  and  C_24
REMARK                            x       y       z     vdW  Elec       q    Type
REMARK                         _______ _______ _______ _____ _____    ______ ____
ROOT
ATOM      1  C   UNL     1      -1.584   7.285   0.545  0.00  0.00    +0.117 C 
ATOM      2  C   UNL     1      -1.978   5.929  -0.051  0.00  0.00    +0.144 C 
ATOM      3  C   UNL     1      -2.149   6.089  -1.565  0.00  0.00    +0.241 C 
ATOM      4  N   UNL     1      -0.918   6.643  -2.131  0.00  0.00    -0.291 N 
ATOM      5  C   UNL     1      -0.117   7.444  -1.412  0.00  0.00    +0.133 C 
ATOM      6  S   UNL     1       1.298   8.067  -2.147  0.00  0.00    -0.019 S 
ATOM      7  N   UNL     1      -0.382   7.775  -0.139  0.00  0.00    -0.319 N 
ATOM      8  H   UNL     1      -0.676   6.427  -3.046  0.00  0.00    +0.151 HD
ATOM      9  H   UNL     1       0.234   8.352   0.339  0.00  0.00    +0.148 HD
ENDROOT
BRANCH   1  14
ATOM     10  C   UNL     1      -0.507   6.675   6.190  0.00  0.00    +0.044 C 
ATOM     11  C   UNL     1      -0.788   6.833   4.718  0.00  0.00    -0.050 A 
ATOM     12  C   UNL     1      -2.046   7.218   4.292  0.00  0.00    +0.004 A 
ATOM     13  C   UNL     1      -2.303   7.364   2.942  0.00  0.00    +0.006 A 
ATOM     14  C   UNL     1      -1.303   7.126   2.017  0.00  0.00    -0.026 A 
ATOM     15  C   UNL     1      -0.047   6.736   2.443  0.00  0.00    +0.006 A 
ATOM     16  C   UNL     1       0.212   6.594   3.793  0.00  0.00    +0.004 A 
ENDBRANCH   1  14
BRANCH   3  17
ATOM     17  C   UNL     1      -2.431   4.723  -2.195  0.00  0.00    +0.436 C 
ATOM     18  F   UNL     1      -3.526   4.133  -1.555  0.00  0.00    -0.166 F 
ATOM     19  F   UNL     1      -2.718   4.887  -3.554  0.00  0.00    -0.166 F 
ATOM     20  F   UNL     1      -1.308   3.902  -2.050  0.00  0.00    -0.166 F 
ENDBRANCH   3  17
BRANCH   3  21
ATOM     21  O   UNL     1      -3.238   6.974  -1.832  0.00  0.00    -0.364 OA
ATOM     22  H   UNL     1      -3.404   7.121  -2.774  0.00  0.00    +0.212 HD
ENDBRANCH   3  21
BRANCH   2  23
ATOM     23  C   UNL     1      -0.897   4.919   0.233  0.00  0.00    +0.173 C 
ATOM     24  O   UNL     1       0.219   5.082  -0.213  0.00  0.00    -0.292 OA
BRANCH  23  25
ATOM     25  C   UNL     1      -1.194   3.733   1.052  0.00  0.00    +0.018 A 
ATOM     26  C   UNL     1      -0.230   2.733   1.219  0.00  0.00    +0.011 A 
ATOM     27  C   UNL     1      -0.517   1.626   1.988  0.00  0.00    +0.001 A 
ATOM     28  C   UNL     1      -1.755   1.501   2.595  0.00  0.00    +0.000 A 
ATOM     29  C   UNL     1      -2.716   2.483   2.430  0.00  0.00    +0.001 A 
ATOM     30  C   UNL     1      -2.443   3.599   1.668  0.00  0.00    +0.011 A 
ENDBRANCH  23  25
ENDBRANCH   2  23
TORSDOF 5
