REMARK  Name = ZINC05412617
REMARK  8 active torsions:
REMARK  status: ('A' for Active; 'I' for Inactive)
REMARK    1  A    between atoms: C_4  and  C_7
REMARK    2  A    between atoms: C_7  and  C_8
REMARK    3  A    between atoms: C_8  and  C_9
REMARK    4  A    between atoms: C_9  and  N_10
REMARK    5  A    between atoms: N_10  and  C_11
REMARK    6  A    between atoms: C_21  and  N_23
REMARK    7  A    between atoms: C_25  and  C_28
REMARK    8  A    between atoms: C_28  and  C_29
REMARK                            x       y       z     vdW  Elec       q    Type
REMARK                         _______ _______ _______ _____ _____    ______ ____
ROOT
ATOM      1  C   UNL     1       7.230  -2.673   2.743  0.00  0.00    -0.014 C 
ATOM      2  C   UNL     1       8.352  -1.762   2.200  0.00  0.00    +0.147 C 
ATOM      3  O   UNL     1       9.513  -2.090   2.995  0.00  0.00    -0.373 OA
ATOM      4  C   UNL     1       9.017  -2.238   4.340  0.00  0.00    +0.172 C 
ATOM      5  C   UNL     1       7.679  -3.014   4.184  0.00  0.00    +0.137 C 
ATOM      6  O   UNL     1       7.999  -4.407   4.245  0.00  0.00    -0.373 OA
ATOM      7  C   UNL     1       9.304  -4.611   4.785  0.00  0.00    +0.189 C 
ATOM      8  C   UNL     1       9.921  -3.217   5.115  0.00  0.00    +0.165 C 
ENDROOT
BRANCH   8   9
ATOM      9  N   UNL     1       9.853  -2.949   6.554  0.00  0.00    -0.244 N 
ATOM     10  C   UNL     1       8.924  -3.436   7.408  0.00  0.00    +0.134 A 
ATOM     11  C   UNL     1       9.236  -2.940   8.628  0.00  0.00    +0.083 A 
ATOM     12  N   UNL     1      10.327  -2.184   8.463  0.00  0.00    -0.134 NA
ATOM     13  N   UNL     1      10.671  -2.215   7.223  0.00  0.00    -0.065 NA
BRANCH  11  14
ATOM     14  C   UNL     1       8.499  -3.190   9.918  0.00  0.00    +0.062 C 
BRANCH  14  15
ATOM     15  C   UNL     1       9.474  -3.736  10.964  0.00  0.00    -0.005 C 
ATOM     16  C   UNL     1       9.986  -5.107  10.519  0.00  0.00    +0.004 C 
ATOM     17  C   UNL     1      10.960  -5.652  11.565  0.00  0.00    +0.000 C 
ATOM     18  C   UNL     1      10.242  -5.788  12.909  0.00  0.00    +0.000 C 
ATOM     19  C   UNL     1       9.730  -4.417  13.354  0.00  0.00    +0.000 C 
ATOM     20  C   UNL     1       8.755  -3.872  12.309  0.00  0.00    +0.004 C 
ENDBRANCH  14  15
ENDBRANCH  11  14
ENDBRANCH   8   9
BRANCH   1  21
ATOM     21  N   UNL     1       5.948  -1.956   2.760  0.00  0.00    +0.384 N 
ATOM     22  H   UNL     1       6.062  -1.075   3.239  0.00  0.00    -0.085 HD
ATOM     23  H   UNL     1       5.258  -2.513   3.241  0.00  0.00    -0.085 HD
BRANCH  21  24
ATOM     24  C   UNL     1       5.507  -1.710   1.381  0.00  0.00    -0.082 C 
BRANCH  24  25
ATOM     25  C   UNL     1       4.171  -0.963   1.399  0.00  0.00    -0.014 C 
BRANCH  25  26
ATOM     26  C   UNL     1       3.711  -0.707  -0.038  0.00  0.00    +0.033 C 
BRANCH  26  30
ATOM     27  C   UNL     1      -0.017   1.378   0.010  0.00  0.00    +0.000 A 
ATOM     28  C   UNL     1       1.171   2.086   0.002  0.00  0.00    +0.000 A 
ATOM     29  C   UNL     1       2.377   1.411  -0.013  0.00  0.00    +0.003 A 
ATOM     30  C   UNL     1       2.396   0.029  -0.020  0.00  0.00    -0.047 A 
ATOM     31  C   UNL     1       1.208  -0.679  -0.012  0.00  0.00    +0.003 A 
ATOM     32  C   UNL     1       0.002  -0.004   0.002  0.00  0.00    +0.000 A 
ENDBRANCH  26  30
ENDBRANCH  25  26
ENDBRANCH  24  25
ENDBRANCH  21  24
ENDBRANCH   1  21
TORSDOF 8
