REMARK  Name = ZINC65662196
REMARK  10 active torsions:
REMARK  status: ('A' for Active; 'I' for Inactive)
REMARK    1  A    between atoms: C_1  and  C_2
REMARK    2  A    between atoms: C_3  and  C_26
REMARK    3  A    between atoms: N_5  and  C_25
REMARK    4  A    between atoms: C_8  and  C_9
REMARK    5  A    between atoms: C_11  and  C_24
REMARK    6  A    between atoms: C_12  and  C_14
REMARK    7  A    between atoms: C_14  and  O_16
REMARK    8  A    between atoms: O_16  and  C_17
REMARK    9  A    between atoms: C_17  and  C_18
REMARK   10  A    between atoms: C_18  and  C_19
REMARK                            x       y       z     vdW  Elec       q    Type
REMARK                         _______ _______ _______ _____ _____    ______ ____
ROOT
ATOM      1  C   UNL     1      -0.192  -0.068   2.501  0.00  0.00    +0.115 A 
ATOM      2  N   UNL     1      -0.099  -0.610   3.706  0.00  0.00    -0.243 NA
ATOM      3  C   UNL     1      -0.218   0.111   4.788  0.00  0.00    +0.060 A 
ATOM      4  C   UNL     1      -0.447   1.470   4.604  0.00  0.00    +0.119 A 
ATOM      5  S   UNL     1      -0.458   1.563   2.821  0.00  0.00    -0.060 S 
ATOM      6  C   UNL     1      -0.114  -0.498   6.163  0.00  0.00    +0.067 C 
ENDROOT
BRANCH   1  14
ATOM      7  C   UNL     1       0.080  -2.990   2.313  0.00  0.00    +0.046 C 
ATOM      8  C   UNL     1       0.048  -2.117   1.085  0.00  0.00    -0.013 A 
ATOM      9  C   UNL     1       0.142  -2.671  -0.197  0.00  0.00    +0.062 A 
ATOM     10  N   UNL     1       0.115  -1.920  -1.261  0.00  0.00    -0.173 NA
ATOM     11  N   UNL     1       0.003  -0.643  -1.227  0.00  0.00    -0.232 N 
ATOM     12  C   UNL     1      -0.097   0.030  -0.063  0.00  0.00    +0.277 A 
ATOM     13  O   UNL     1      -0.203   1.245  -0.052  0.00  0.00    -0.265 OA
ATOM     14  C   UNL     1      -0.081  -0.734   1.191  0.00  0.00    +0.078 A 
ATOM     15  C   UNL     1      -0.016   0.105  -2.487  0.00  0.00    +0.176 C 
ATOM     16  C   UNL     1       0.277  -4.165  -0.349  0.00  0.00    +0.068 C 
ENDBRANCH   1  14
BRANCH   4  17
ATOM     17  C   UNL     1      -0.624   2.531   5.596  0.00  0.00    +0.348 C 
ATOM     18  O   UNL     1      -0.578   2.268   6.783  0.00  0.00    -0.244 OA
BRANCH  17  19
ATOM     19  O   UNL     1      -0.838   3.801   5.195  0.00  0.00    -0.460 OA
BRANCH  19  20
ATOM     20  C   UNL     1      -1.001   4.786   6.218  0.00  0.00    +0.237 C 
BRANCH  20  21
ATOM     21  C   UNL     1      -1.232   6.155   5.575  0.00  0.00    +0.083 C 
BRANCH  21  22
ATOM     22  C   UNL     1      -1.405   7.194   6.653  0.00  0.00    -0.007 A 
ATOM     23  C   UNL     1      -0.465   7.960   7.259  0.00  0.00    +0.011 A 
ATOM     24  C   UNL     1      -0.859   8.858   8.233  0.00  0.00    +0.008 A 
ATOM     25  C   UNL     1      -2.173   8.945   8.555  0.00  0.00    +0.045 A 
ATOM     26  S   UNL     1      -2.902   7.739   7.459  0.00  0.00    -0.101 S 
ENDBRANCH  21  22
ENDBRANCH  20  21
ENDBRANCH  19  20
ENDBRANCH  17  19
ENDBRANCH   4  17
TORSDOF 6
