REMARK  Name = ZINC08937650
REMARK  4 active torsions:
REMARK  status: ('A' for Active; 'I' for Inactive)
REMARK    1  A    between atoms: C_2  and  C_28
REMARK    2  A    between atoms: C_10  and  S_11
REMARK    3  A    between atoms: S_11  and  C_12
REMARK    4  A    between atoms: C_12  and  C_13
REMARK                            x       y       z     vdW  Elec       q    Type
REMARK                         _______ _______ _______ _____ _____    ______ ____
ROOT
ATOM      1  C   UNL     1      -4.964   5.749   0.648  0.00  0.00    +0.173 C 
ENDROOT
BRANCH   1   2
ATOM      2  C   UNL     1      -5.638   6.978   0.096  0.00  0.00    +0.227 C 
ATOM      3  O   UNL     1      -4.971   7.883  -0.360  0.00  0.00    -0.275 OA
ATOM      4  N   UNL     1      -6.983   7.072   0.109  0.00  0.00    -0.278 N 
ATOM      5  C   UNL     1      -7.836   5.877  -0.001  0.00  0.00    +0.204 C 
ATOM      6  C   UNL     1      -8.876   6.131  -1.062  0.00  0.00    +0.237 C 
ATOM      7  O   UNL     1      -9.383   5.189  -1.633  0.00  0.00    -0.274 OA
ATOM      8  N   UNL     1      -9.251   7.376  -1.388  0.00  0.00    -0.253 N 
ATOM      9  C   UNL     1      -8.710   8.474  -0.840  0.00  0.00    +0.243 C 
ATOM     10  O   UNL     1      -9.075   9.568  -1.214  0.00  0.00    -0.273 OA
ATOM     11  C   UNL     1      -7.658   8.373   0.239  0.00  0.00    +0.114 C 
ATOM     12  C   UNL     1      -6.634   9.496   0.074  0.00  0.00    +0.035 C 
ATOM     13  C   UNL     1      -5.562   9.372   1.159  0.00  0.00    +0.003 C 
ATOM     14  C   UNL     1      -6.218   9.473   2.538  0.00  0.00    +0.000 C 
ATOM     15  C   UNL     1      -7.240   8.346   2.701  0.00  0.00    +0.003 C 
ATOM     16  C   UNL     1      -8.313   8.470   1.617  0.00  0.00    +0.035 C 
ATOM     17  H   UNL     1      -9.949   7.488  -2.052  0.00  0.00    +0.158 HD
ENDBRANCH   1   2
BRANCH   1  18
ATOM     18  S   UNL     1      -3.165   5.923   0.488  0.00  0.00    -0.076 S 
BRANCH  18  28
ATOM     19  C   UNL     1       1.187   2.825   1.766  0.00  0.00    +0.037 A 
ATOM     20  C   UNL     1       1.139   4.097   1.166  0.00  0.00    +0.073 A 
ATOM     21  C   UNL     1      -0.044   4.698   0.932  0.00  0.00    +0.107 A 
ATOM     22  N   UNL     1      -1.216   4.081   1.275  0.00  0.00    -0.276 N 
ATOM     23  C   UNL     1      -1.202   2.833   1.859  0.00  0.00    +0.180 A 
ATOM     24  C   UNL     1       0.032   2.197   2.114  0.00  0.00    +0.086 A 
ATOM     25 CL   UNL     1       0.074   0.628   2.855  0.00  0.00    -0.080 Cl
ATOM     26  N   UNL     1      -2.460   2.492   2.068  0.00  0.00    -0.127 NA
ATOM     27  N   UNL     1      -3.237   3.430   1.653  0.00  0.00    -0.122 NA
ATOM     28  C   UNL     1      -2.530   4.426   1.169  0.00  0.00    +0.196 A 
BRANCH  20  29
ATOM     29  C   UNL     1       2.420   4.792   0.781  0.00  0.00    +0.419 C 
ATOM     30  F   UNL     1       3.509   3.981   1.118  0.00  0.00    -0.166 F 
ATOM     31  F   UNL     1       2.425   5.030  -0.597  0.00  0.00    -0.166 F 
ATOM     32  F   UNL     1       2.515   6.008   1.466  0.00  0.00    -0.166 F 
ENDBRANCH  20  29
ENDBRANCH  18  28
ENDBRANCH   1  18
TORSDOF 4
