REMARK  Name = ZINC41547584
REMARK  9 active torsions:
REMARK  status: ('A' for Active; 'I' for Inactive)
REMARK    1  A    between atoms: C_1  and  C_2
REMARK    2  A    between atoms: C_11  and  C_13
REMARK    3  A    between atoms: C_11  and  C_14
REMARK    4  A    between atoms: N_16  and  C_17
REMARK    5  A    between atoms: C_17  and  C_19
REMARK    6  A    between atoms: C_17  and  C_20
REMARK    7  A    between atoms: C_23  and  C_26
REMARK    8  A    between atoms: C_26  and  C_27
REMARK    9  A    between atoms: C_26  and  C_28
REMARK                            x       y       z     vdW  Elec       q    Type
REMARK                         _______ _______ _______ _____ _____    ______ ____
ROOT
ATOM      1  C   UNL     1       0.304  -6.238   1.087  0.00  0.00    +0.266 C 
ATOM      2  O   UNL     1       0.207  -6.812   2.151  0.00  0.00    -0.271 OA
ATOM      3  N   UNL     1       0.052  -6.899  -0.060  0.00  0.00    -0.305 N 
ATOM      4  H   UNL     1       0.129  -6.440  -0.911  0.00  0.00    +0.149 HD
ENDROOT
BRANCH   1  15
ATOM      5  C   UNL     1      -0.018   1.503   0.010  0.00  0.00    +0.044 C 
ATOM      6  C   UNL     1       0.002  -0.004   0.002  0.00  0.00    -0.048 A 
ATOM      7  C   UNL     1       0.006  -0.687  -1.200  0.00  0.00    +0.007 A 
ATOM      8  C   UNL     1       0.019  -2.070  -1.216  0.00  0.00    +0.048 A 
ATOM      9  C   UNL     1       0.031  -2.773  -0.024  0.00  0.00    +0.144 A 
ATOM     10  C   UNL     1       0.038  -2.085   1.188  0.00  0.00    +0.076 A 
ATOM     11  C   UNL     1       0.023  -0.700   1.197  0.00  0.00    +0.030 A 
ATOM     12  N   UNL     1       0.086  -2.805   2.389  0.00  0.00    -0.279 N 
ATOM     13  C   UNL     1       0.342  -4.129   2.355  0.00  0.00    +0.270 C 
ATOM     14  O   UNL     1       0.279  -4.788   3.371  0.00  0.00    -0.271 OA
ATOM     15  C   UNL     1       0.706  -4.787   1.048  0.00  0.00    +0.257 C 
ATOM     16  O   UNL     1       0.025  -4.133  -0.026  0.00  0.00    -0.466 OA
ATOM     17  C   UNL     1       2.217  -4.684   0.830  0.00  0.00    +0.076 C 
ATOM     18  H   UNL     1      -0.063  -2.356   3.236  0.00  0.00    +0.155 HD
ENDBRANCH   1  15
BRANCH   3  19
ATOM     19  C   UNL     1      -0.339  -8.310  -0.022  0.00  0.00    +0.100 C 
ATOM     20  C   UNL     1       0.914  -9.186   0.035  0.00  0.00    +0.033 C 
BRANCH  19  21
ATOM     21  C   UNL     1      -1.131  -8.646  -1.260  0.00  0.00    -0.027 A 
ATOM     22  C   UNL     1      -0.750  -8.130  -2.485  0.00  0.00    +0.006 A 
ATOM     23  C   UNL     1      -1.476  -8.438  -3.620  0.00  0.00    +0.004 A 
ATOM     24  C   UNL     1      -2.582  -9.263  -3.531  0.00  0.00    -0.045 A 
ATOM     25  C   UNL     1      -2.962  -9.780  -2.306  0.00  0.00    +0.004 A 
ATOM     26  C   UNL     1      -2.233  -9.475  -1.172  0.00  0.00    +0.006 A 
BRANCH  24  27
ATOM     27  C   UNL     1      -3.373  -9.598  -4.769  0.00  0.00    +0.013 C 
ATOM     28  C   UNL     1      -3.362 -11.112  -4.987  0.00  0.00    +0.012 C 
ATOM     29  C   UNL     1      -4.816  -9.118  -4.596  0.00  0.00    +0.012 C 
ENDBRANCH  24  27
ENDBRANCH  19  21
ENDBRANCH   3  19
TORSDOF 4
