REMARK  Name = ZINC19989291
REMARK  5 active torsions:
REMARK  status: ('A' for Active; 'I' for Inactive)
REMARK    1  A    between atoms: C_1  and  C_2
REMARK    2  A    between atoms: N_6  and  C_14
REMARK    3  A    between atoms: C_14  and  C_15
REMARK    4  A    between atoms: N_17  and  C_18
REMARK    5  A    between atoms: C_19  and  C_27
REMARK                            x       y       z     vdW  Elec       q    Type
REMARK                         _______ _______ _______ _____ _____    ______ ____
ROOT
ATOM      1  C   UNL     1       5.081   5.054  -0.554  0.00  0.00    +0.235 C 
ATOM      2  O   UNL     1       5.758   4.113  -0.198  0.00  0.00    -0.274 OA
ATOM      3  N   UNL     1       3.743   4.924  -0.650  0.00  0.00    -0.278 N 
ATOM      4  H   UNL     1       3.129   5.777  -0.974  0.00  0.00    +0.155 HD
ENDROOT
BRANCH   3   5
ATOM      5  C   UNL     1       3.140   3.713  -0.341  0.00  0.00    +0.090 A 
ATOM      6  C   UNL     1       1.792   3.387  -0.377  0.00  0.00    +0.084 A 
ATOM      7  C   UNL     1       1.417   2.035  -0.001  0.00  0.00    -0.018 A 
ATOM      8  C   UNL     1       2.444   1.230   0.351  0.00  0.00    -0.004 A 
ATOM      9  S   UNL     1       3.888   2.241   0.186  0.00  0.00    -0.077 S 
ATOM     10  C   UNL     1       2.362  -0.202   0.782  0.00  0.00    +0.043 C 
ATOM     11  C   UNL     1       0.901  -0.519   1.130  0.00  0.00    +0.005 C 
ATOM     12  C   UNL     1       0.002  -0.004   0.002  0.00  0.00    +0.005 C 
ATOM     13  C   UNL     1      -0.019   1.526   0.010  0.00  0.00    +0.037 C 
BRANCH   6  14
ATOM     14  C   UNL     1       0.807   4.348  -0.772  0.00  0.00    +0.102 C 
ATOM     15  N   UNL     1       0.025   5.111  -1.085  0.00  0.00    -0.191 NA
ENDBRANCH   6  14
ENDBRANCH   3   5
BRANCH   1  16
ATOM     16  C   UNL     1       5.736   6.369  -0.891  0.00  0.00    +0.209 C 
BRANCH  16  21
ATOM     17  C   UNL     1       9.764   4.293  -1.031  0.00  0.00    +0.062 C 
ATOM     18  C   UNL     1       9.460   5.712  -1.514  0.00  0.00    +0.256 C 
ATOM     19  C   UNL     1       7.975   5.861  -1.731  0.00  0.00    +0.261 C 
ATOM     20  O   UNL     1       7.493   5.628  -2.819  0.00  0.00    -0.271 OA
ATOM     21  N   UNL     1       7.185   6.254  -0.709  0.00  0.00    -0.256 N 
ATOM     22  C   UNL     1       7.773   6.555   0.528  0.00  0.00    +0.079 A 
ATOM     23  C   UNL     1       7.001   6.656   1.673  0.00  0.00    +0.027 A 
ATOM     24  C   UNL     1       7.601   6.955   2.883  0.00  0.00    +0.002 A 
ATOM     25  C   UNL     1       8.967   7.154   2.951  0.00  0.00    +0.004 A 
ATOM     26  C   UNL     1       9.743   7.045   1.815  0.00  0.00    +0.047 A 
ATOM     27  C   UNL     1       9.150   6.750   0.600  0.00  0.00    +0.143 A 
ATOM     28  O   UNL     1       9.899   6.654  -0.531  0.00  0.00    -0.478 OA
ENDBRANCH  16  21
ENDBRANCH   1  16
TORSDOF 4
