REMARK  Name = ZINC44783244
REMARK  8 active torsions:
REMARK  status: ('A' for Active; 'I' for Inactive)
REMARK    1  A    between atoms: C_1  and  C_2
REMARK    2  A    between atoms: C_2  and  C_3
REMARK    3  A    between atoms: C_3  and  C_4
REMARK    4  A    between atoms: C_3  and  C_5
REMARK    5  A    between atoms: C_3  and  N_6
REMARK    6  A    between atoms: C_7  and  C_9
REMARK    7  A    between atoms: C_9  and  C_14
REMARK    8  A    between atoms: N_15  and  O_16
REMARK                            x       y       z     vdW  Elec       q    Type
REMARK                         _______ _______ _______ _____ _____    ______ ____
ROOT
ATOM      1  C   UNL     1       1.485  -4.149   2.280  0.00  0.00    +0.105 C 
ATOM      2  C   UNL     1       2.353  -4.644   1.105  0.00  0.00    +0.024 C 
ATOM      3  C   UNL     1       3.771  -4.783   1.712  0.00  0.00    +0.001 C 
ATOM      4  C   UNL     1       3.482  -5.326   3.133  0.00  0.00    +0.001 C 
ATOM      5  C   UNL     1       2.203  -4.583   3.570  0.00  0.00    +0.024 C 
ENDROOT
BRANCH   1   6
ATOM      6  C   UNL     1       0.117  -4.778   2.215  0.00  0.00    +0.147 C 
ATOM      7  N   UNL     1      -0.328  -5.463   3.216  0.00  0.00    -0.076 NA
ATOM      8  N   UNL     1      -0.658  -4.623   1.087  0.00  0.00    -0.343 N 
ATOM      9  H   UNL     1      -0.356  -4.050   0.365  0.00  0.00    +0.144 HD
ATOM     10  H   UNL     1      -1.507  -5.088   1.015  0.00  0.00    +0.144 HD
BRANCH   7  11
ATOM     11  O   UNL     1      -1.613  -6.054   3.154  0.00  0.00    -0.408 OA
ATOM     12  H   UNL     1      -1.858  -6.546   3.950  0.00  0.00    +0.328 HD
ENDBRANCH   7  11
ENDBRANCH   1   6
BRANCH   1  14
ATOM     13  N   UNL     1       0.782  -1.988   3.257  0.00  0.00    -0.309 N 
ATOM     14  C   UNL     1       1.365  -2.647   2.236  0.00  0.00    +0.227 C 
ATOM     15  O   UNL     1       1.792  -2.032   1.283  0.00  0.00    -0.275 OA
ATOM     16  H   UNL     1       0.377  -2.483   3.986  0.00  0.00    +0.149 HD
BRANCH  13  17
ATOM     17  C   UNL     1       0.761  -0.523   3.266  0.00  0.00    +0.029 C 
ATOM     18  C   UNL     1       0.019  -0.016   2.027  0.00  0.00    +0.031 C 
ATOM     19  C   UNL     1       2.196   0.008   3.254  0.00  0.00    +0.031 C 
BRANCH  17  21
ATOM     20  C   UNL     1       0.023   1.499   4.535  0.00  0.00    +0.006 C 
ATOM     21  C   UNL     1       0.045  -0.031   4.526  0.00  0.00    +0.022 C 
ENDBRANCH  17  21
ENDBRANCH  13  17
ENDBRANCH   1  14
TORSDOF 5
