REMARK  Name = ZINC25062675
REMARK  7 active torsions:
REMARK  status: ('A' for Active; 'I' for Inactive)
REMARK    1  A    between atoms: C_1  and  C_2
REMARK    2  A    between atoms: C_2  and  C_4
REMARK    3  A    between atoms: C_2  and  O_18
REMARK    4  A    between atoms: C_9  and  C_12
REMARK    5  A    between atoms: O_18  and  C_19
REMARK    6  A    between atoms: C_19  and  C_21
REMARK    7  A    between atoms: C_21  and  C_22
REMARK                            x       y       z     vdW  Elec       q    Type
REMARK                         _______ _______ _______ _____ _____    ______ ____
ROOT
ATOM      1  C   UNL     1      -2.857   4.284   1.347  0.00  0.00    +0.062 C 
ATOM      2  C   UNL     1      -2.085   4.451   0.037  0.00  0.00    +0.259 C 
ENDROOT
BRANCH   2   3
ATOM      3  C   UNL     1      -0.905   3.513   0.026  0.00  0.00    +0.259 C 
ATOM      4  O   UNL     1       0.223   3.958   0.022  0.00  0.00    -0.271 OA
ATOM      5  N   UNL     1      -1.104   2.180   0.019  0.00  0.00    -0.262 N 
ATOM      6  C   UNL     1      -0.016   1.316   0.009  0.00  0.00    +0.165 A 
ATOM      7  N   UNL     1       0.002  -0.004   0.002  0.00  0.00    -0.225 NA
ATOM      8  C   UNL     1       1.143  -0.676  -0.013  0.00  0.00    +0.080 A 
ATOM      9  C   UNL     1       2.326   0.010  -0.020  0.00  0.00    +0.076 A 
ATOM     10  S   UNL     1       1.731   1.696  -0.005  0.00  0.00    -0.060 S 
ATOM     11  H   UNL     1      -2.127   1.777   0.022  0.00  0.00    +0.157 HD
BRANCH   8  12
ATOM     12  C   UNL     1       1.138  -2.159  -0.021  0.00  0.00    +0.001 A 
ATOM     13  C   UNL     1       2.341  -2.863  -0.042  0.00  0.00    +0.010 A 
ATOM     14  C   UNL     1       2.331  -4.243  -0.044  0.00  0.00    +0.001 A 
ATOM     15  C   UNL     1       1.129  -4.928  -0.036  0.00  0.00    +0.000 A 
ATOM     16  C   UNL     1      -0.068  -4.235  -0.021  0.00  0.00    +0.001 A 
ATOM     17  C   UNL     1      -0.070  -2.855  -0.013  0.00  0.00    +0.010 A 
ENDBRANCH   8  12
ENDBRANCH   2   3
BRANCH   2  18
ATOM     18  O   UNL     1      -1.616   5.820  -0.078  0.00  0.00    -0.452 OA
BRANCH  18  19
ATOM     19  C   UNL     1      -2.433   6.696  -0.684  0.00  0.00    +0.312 C 
ATOM     20  O   UNL     1      -3.504   6.330  -1.106  0.00  0.00    -0.251 OA
BRANCH  19  21
ATOM     21  C   UNL     1      -2.013   8.135  -0.840  0.00  0.00    +0.174 C 
BRANCH  21  22
ATOM     22  C   UNL     1      -3.117   8.912  -1.560  0.00  0.00    +0.269 C 
ATOM     23  C   UNL     1      -2.647  10.321  -1.824  0.00  0.00    +0.259 C 
ATOM     24  O   UNL     1      -2.114  10.597  -2.878  0.00  0.00    -0.271 OA
ATOM     25  N   UNL     1      -2.823  11.272  -0.883  0.00  0.00    -0.280 N 
ATOM     26  C   UNL     1      -3.552  10.965   0.273  0.00  0.00    +0.076 A 
ATOM     27  C   UNL     1      -3.561  11.834   1.353  0.00  0.00    +0.027 A 
ATOM     28  C   UNL     1      -4.275  11.509   2.491  0.00  0.00    +0.002 A 
ATOM     29  C   UNL     1      -4.979  10.321   2.556  0.00  0.00    +0.004 A 
ATOM     30  C   UNL     1      -4.978   9.452   1.480  0.00  0.00    +0.047 A 
ATOM     31  C   UNL     1      -4.271   9.773   0.334  0.00  0.00    +0.143 A 
ATOM     32  O   UNL     1      -4.289   8.941  -0.742  0.00  0.00    -0.477 OA
ATOM     33  H   UNL     1      -2.395  12.275  -1.029  0.00  0.00    +0.155 HD
ENDBRANCH  21  22
ENDBRANCH  19  21
ENDBRANCH  18  19
ENDBRANCH   2  18
TORSDOF 6
