REMARK  Name = ZINC57707478
REMARK  6 active torsions:
REMARK  status: ('A' for Active; 'I' for Inactive)
REMARK    1  A    between atoms: C_1  and  C_2
REMARK    2  A    between atoms: N_5  and  C_8
REMARK    3  A    between atoms: C_11  and  N_14
REMARK    4  A    between atoms: N_14  and  S_15
REMARK    5  A    between atoms: S_15  and  C_18
REMARK    6  A    between atoms: C_24  and  C_26
REMARK                            x       y       z     vdW  Elec       q    Type
REMARK                         _______ _______ _______ _____ _____    ______ ____
ROOT
ATOM      1  N   UNL     1      -2.581  -6.295   4.685  0.00  0.00    -0.096 NA
ENDROOT
BRANCH   1   5
ATOM      2  C   UNL     1      -1.081  -3.496   1.982  0.00  0.00    +0.030 A 
ATOM      3  C   UNL     1      -2.408  -3.900   1.900  0.00  0.00    +0.025 A 
ATOM      4  C   UNL     1      -2.904  -4.827   2.795  0.00  0.00    +0.028 A 
ATOM      5  C   UNL     1      -2.077  -5.356   3.777  0.00  0.00    +0.074 A 
ATOM      6  C   UNL     1      -0.751  -4.952   3.859  0.00  0.00    +0.028 A 
ATOM      7  C   UNL     1      -0.253  -4.029   2.961  0.00  0.00    +0.025 A 
BRANCH   2  12
ATOM      8  C   UNL     1      -0.045   1.525  -0.005  0.00  0.00    +0.007 C 
ATOM      9  C   UNL     1      -0.011  -0.004  -0.005  0.00  0.00    -0.011 C 
ATOM     10  C   UNL     1      -1.442  -0.546  -0.007  0.00  0.00    +0.022 C 
ATOM     11  C   UNL     1      -1.404  -2.077  -0.042  0.00  0.00    +0.105 C 
ATOM     12  N   UNL     1      -0.578  -2.556   1.075  0.00  0.00    -0.330 N 
ATOM     13  C   UNL     1       0.785  -2.029   1.222  0.00  0.00    +0.105 C 
ATOM     14  C   UNL     1       0.723  -0.498   1.244  0.00  0.00    +0.022 C 
ENDBRANCH   2  12
ENDBRANCH   1   5
BRANCH   1  15
ATOM     15  S   UNL     1      -1.594  -6.926   5.856  0.00  0.00    +0.117 S 
ATOM     16  O   UNL     1      -0.607  -7.696   5.184  0.00  0.00    -0.146 OA
ATOM     17  O   UNL     1      -1.262  -5.854   6.728  0.00  0.00    -0.146 OA
BRANCH  15  18
ATOM     18  C   UNL     1      -2.562  -8.058   6.797  0.00  0.00    +0.261 A 
ATOM     19  N   UNL     1      -3.827  -8.404   6.664  0.00  0.00    -0.119 NA
ATOM     20  N   UNL     1      -4.321  -9.248   7.463  0.00  0.00    -0.124 NA
ATOM     21  C   UNL     1      -3.608  -9.794   8.428  0.00  0.00    +0.189 A 
ATOM     22  S   UNL     1      -2.103  -9.069   8.198  0.00  0.00    -0.010 S 
ATOM     23  N   UNL     1      -3.994 -10.729   9.383  0.00  0.00    -0.263 N 
ATOM     24  C   UNL     1      -5.258 -11.197   9.396  0.00  0.00    +0.216 C 
ATOM     25  O   UNL     1      -6.059 -10.803   8.574  0.00  0.00    -0.276 OA
ATOM     26  C   UNL     1      -5.676 -12.210  10.430  0.00  0.00    +0.109 C 
ATOM     27  H   UNL     1      -3.354 -11.045  10.040  0.00  0.00    +0.157 HD
ENDBRANCH  15  18
ENDBRANCH   1  15
TORSDOF 4
