REMARK  Name = ZINC09101410
REMARK  4 active torsions:
REMARK  status: ('A' for Active; 'I' for Inactive)
REMARK    1  A    between atoms: C_5  and  C_7
REMARK    2  A    between atoms: N_9  and  C_10
REMARK    3  A    between atoms: C_10  and  C_11
REMARK    4  A    between atoms: N_14  and  C_18
REMARK                            x       y       z     vdW  Elec       q    Type
REMARK                         _______ _______ _______ _____ _____    ______ ____
ROOT
ATOM      1  C   UNL     1       3.912  -4.758  -0.062  0.00  0.00    +0.213 C 
ATOM      2  C   UNL     1       3.970  -6.295  -0.148  0.00  0.00    +0.163 C 
ATOM      3  N   UNL     1       4.657  -6.690   1.091  0.00  0.00    -0.234 N 
ATOM      4  C   UNL     1       4.956  -5.587   1.791  0.00  0.00    +0.408 C 
ATOM      5  O   UNL     1       5.530  -5.617   2.862  0.00  0.00    -0.226 OA
ATOM      6  O   UNL     1       4.567  -4.447   1.202  0.00  0.00    -0.444 OA
ENDROOT
BRANCH   3   7
ATOM      7  C   UNL     1       4.951  -8.004   1.475  0.00  0.00    +0.041 A 
ATOM      8  C   UNL     1       4.581  -9.066   0.661  0.00  0.00    +0.025 A 
ATOM      9  C   UNL     1       4.877 -10.361   1.039  0.00  0.00    +0.023 A 
ATOM     10  C   UNL     1       5.531 -10.602   2.235  0.00  0.00    +0.059 A 
ATOM     11  C   UNL     1       5.896  -9.545   3.052  0.00  0.00    +0.061 A 
ATOM     12  C   UNL     1       5.607  -8.247   2.674  0.00  0.00    +0.045 A 
ATOM     13 CL   UNL     1       6.717  -9.850   4.550  0.00  0.00    -0.082 Cl
ATOM     14 CL   UNL     1       5.895 -12.231   2.711  0.00  0.00    -0.082 Cl
ENDBRANCH   3   7
BRANCH   1  15
ATOM     15  C   UNL     1       2.460  -4.276  -0.045  0.00  0.00    +0.150 C 
BRANCH  15  18
ATOM     16  C   UNL     1       1.252  -2.160  -0.022  0.00  0.00    +0.245 C 
ATOM     17  O   UNL     1       0.211  -2.788  -0.016  0.00  0.00    -0.270 OA
ATOM     18  N   UNL     1       2.431  -2.811  -0.037  0.00  0.00    -0.308 N 
ATOM     19  H   UNL     1       3.262  -2.310  -0.042  0.00  0.00    +0.149 HD
BRANCH  16  24
ATOM     20  C   UNL     1       2.383   1.421  -0.013  0.00  0.00    +0.001 A 
ATOM     21  C   UNL     1       1.170   2.087   0.002  0.00  0.00    +0.001 A 
ATOM     22  C   UNL     1      -0.017   1.377   0.010  0.00  0.00    +0.016 A 
ATOM     23  C   UNL     1       0.002  -0.004   0.002  0.00  0.00    +0.030 A 
ATOM     24  C   UNL     1       1.223  -0.682  -0.013  0.00  0.00    +0.051 A 
ATOM     25  C   UNL     1       2.416   0.042  -0.021  0.00  0.00    +0.014 A 
ATOM     26 BR   UNL     1      -1.621  -0.974   0.013  0.00  0.00    -0.050 Br
ENDBRANCH  16  24
ENDBRANCH  15  18
ENDBRANCH   1  15
TORSDOF 4
