REMARK  Name = ZINC09713171
REMARK  8 active torsions:
REMARK  status: ('A' for Active; 'I' for Inactive)
REMARK    1  A    between atoms: C_1  and  C_2
REMARK    2  A    between atoms: C_2  and  C_3
REMARK    3  A    between atoms: C_3  and  C_28
REMARK    4  A    between atoms: N_6  and  C_10
REMARK    5  A    between atoms: C_10  and  N_65
REMARK    6  A    between atoms: C_13  and  C_16
REMARK    7  A    between atoms: N_18  and  C_19
REMARK    8  A    between atoms: C_31  and  C_34
REMARK                            x       y       z     vdW  Elec       q    Type
REMARK                         _______ _______ _______ _____ _____    ______ ____
ROOT
ATOM      1  C   UNL     1      -7.372   1.097   0.410  0.00  0.00    -0.076 C 
ATOM      2  C   UNL     1      -6.064   1.889   0.355  0.00  0.00    -0.006 C 
ATOM      3  C   UNL     1      -4.888   0.915   0.245  0.00  0.00    +0.072 C 
ATOM      4  C   UNL     1      -5.072   0.041  -0.998  0.00  0.00    -0.006 C 
ATOM      5  C   UNL     1      -6.409  -0.697  -0.904  0.00  0.00    -0.076 C 
ATOM      6  N   UNL     1      -7.502   0.296  -0.826  0.00  0.00    +0.391 N 
ATOM      7  H   UNL     1      -7.440   0.923  -1.636  0.00  0.00    -0.079 HD
ENDROOT
BRANCH   3   8
ATOM      8  C   UNL     1      -3.601   1.691   0.130  0.00  0.00    +0.220 C 
ATOM      9  O   UNL     1      -3.621   2.904   0.137  0.00  0.00    -0.275 OA
ATOM     10  N   UNL     1      -2.428   1.037   0.019  0.00  0.00    -0.285 N 
ATOM     11  H   UNL     1      -2.417   0.071  -0.063  0.00  0.00    +0.155 HD
BRANCH  10  12
ATOM     12  C   UNL     1      -1.224   1.753   0.023  0.00  0.00    +0.037 A 
ATOM     13  C   UNL     1      -0.147   1.306  -0.732  0.00  0.00    +0.027 A 
ATOM     14  C   UNL     1       1.042   2.009  -0.725  0.00  0.00    +0.051 A 
ATOM     15  C   UNL     1       1.164   3.163   0.031  0.00  0.00    +0.166 A 
ATOM     16  C   UNL     1       0.085   3.616   0.787  0.00  0.00    +0.168 A 
ATOM     17  C   UNL     1      -1.107   2.912   0.779  0.00  0.00    +0.072 A 
ATOM     18  O   UNL     1       0.455   4.759   1.435  0.00  0.00    -0.453 OA
ATOM     19  C   UNL     1       1.895   4.776   1.392  0.00  0.00    +0.466 C 
ATOM     20  O   UNL     1       2.211   4.023   0.207  0.00  0.00    -0.453 OA
ENDBRANCH  10  12
ENDBRANCH   3   8
BRANCH   6  21
ATOM     21  C   UNL     1      -8.810  -0.390  -0.848  0.00  0.00    +0.043 C 
BRANCH  21  25
ATOM     22  C   UNL     1      -8.720  -3.072  -3.416  0.00  0.00    +0.138 C 
ATOM     23  C   UNL     1      -8.937  -1.631  -2.998  0.00  0.00    +0.249 C 
ATOM     24  O   UNL     1      -9.248  -0.701  -3.712  0.00  0.00    -0.272 OA
ATOM     25  N   UNL     1      -8.712  -1.598  -1.670  0.00  0.00    -0.241 N 
ATOM     26  C   UNL     1      -8.393  -2.807  -1.194  0.00  0.00    +0.308 C 
ATOM     27  O   UNL     1      -8.149  -3.030  -0.024  0.00  0.00    -0.252 OA
ATOM     28  N   UNL     1      -8.372  -3.749  -2.155  0.00  0.00    -0.281 N 
ATOM     29  H   UNL     1      -8.166  -4.690  -2.039  0.00  0.00    +0.152 HD
BRANCH  22  30
ATOM     30  C   UNL     1      -9.984  -3.651  -3.997  0.00  0.00    -0.015 A 
ATOM     31  C   UNL     1     -10.184  -3.641  -5.365  0.00  0.00    +0.006 A 
ATOM     32  C   UNL     1     -11.342  -4.176  -5.898  0.00  0.00    +0.004 A 
ATOM     33  C   UNL     1     -12.303  -4.713  -5.063  0.00  0.00    -0.050 A 
ATOM     34  C   UNL     1     -12.106  -4.719  -3.695  0.00  0.00    +0.004 A 
ATOM     35  C   UNL     1     -10.946  -4.188  -3.162  0.00  0.00    +0.006 A 
ATOM     36  C   UNL     1     -13.568  -5.292  -5.644  0.00  0.00    +0.044 C 
ENDBRANCH  22  30
BRANCH  22  38
ATOM     37  C   UNL     1      -6.284  -2.650  -3.780  0.00  0.00    +0.007 C 
ATOM     38  C   UNL     1      -7.570  -3.179  -4.419  0.00  0.00    +0.037 C 
ENDBRANCH  22  38
ENDBRANCH  21  25
ENDBRANCH   6  21
TORSDOF 6
