REMARK  Name = ZINC17915380
REMARK  7 active torsions:
REMARK  status: ('A' for Active; 'I' for Inactive)
REMARK    1  A    between atoms: C_1  and  C_2
REMARK    2  A    between atoms: C_2  and  C_3
REMARK    3  A    between atoms: C_3  and  N_4
REMARK    4  A    between atoms: N_4  and  C_5
REMARK    5  A    between atoms: C_5  and  C_6
REMARK    6  A    between atoms: N_8  and  C_9
REMARK    7  A    between atoms: C_18  and  C_20
REMARK                            x       y       z     vdW  Elec       q    Type
REMARK                         _______ _______ _______ _____ _____    ______ ____
ROOT
ATOM      1  N   UNL     1      -2.389   0.925  -0.037  0.00  0.00    -0.287 N 
ATOM      2  C   UNL     1      -2.852   0.297  -1.136  0.00  0.00    +0.268 C 
ATOM      3  O   UNL     1      -3.808  -0.449  -1.052  0.00  0.00    -0.268 OA
ENDROOT
BRANCH   2   4
ATOM      4  C   UNL     1      -2.199   0.515  -2.442  0.00  0.00    +0.154 A 
ATOM      5  C   UNL     1      -2.767  -0.071  -3.666  0.00  0.00    +0.020 A 
ATOM      6  C   UNL     1      -3.928  -0.837  -3.666  0.00  0.00    +0.011 A 
ATOM      7  C   UNL     1      -4.403  -1.347  -4.856  0.00  0.00    +0.001 A 
ATOM      8  C   UNL     1      -3.737  -1.102  -6.050  0.00  0.00    +0.001 A 
ATOM      9  C   UNL     1      -2.587  -0.343  -6.073  0.00  0.00    +0.014 A 
ATOM     10  C   UNL     1      -2.093   0.182  -4.883  0.00  0.00    +0.050 A 
ATOM     11  C   UNL     1      -0.875   1.001  -4.817  0.00  0.00    +0.272 A 
ATOM     12  O   UNL     1      -0.240   1.256  -5.824  0.00  0.00    -0.266 OA
ATOM     13  N   UNL     1      -0.476   1.464  -3.614  0.00  0.00    -0.242 N 
ATOM     14  H   UNL     1       0.329   2.005  -3.574  0.00  0.00    +0.192 HD
ATOM     15  N   UNL     1      -1.102   1.229  -2.524  0.00  0.00    -0.166 NA
ENDBRANCH   2   4
BRANCH   1  16
ATOM     16  C   UNL     1      -2.954   0.613   1.278  0.00  0.00    +0.108 C 
BRANCH  16  18
ATOM     17  C   UNL     1      -4.645   1.297   2.985  0.00  0.00    +0.005 C 
ATOM     18  C   UNL     1      -4.055   1.622   1.612  0.00  0.00    +0.016 C 
ENDBRANCH  16  18
ENDBRANCH   1  16
BRANCH   1  19
ATOM     19  C   UNL     1      -1.319   1.919  -0.158  0.00  0.00    +0.204 C 
BRANCH  19  20
ATOM     20  C   UNL     1       0.017   1.222  -0.155  0.00  0.00    +0.235 C 
ATOM     21  O   UNL     1       0.071   0.014  -0.061  0.00  0.00    -0.274 OA
ATOM     22  N   UNL     1       1.152   1.941  -0.262  0.00  0.00    -0.282 N 
ATOM     23  H   UNL     1       1.107   2.900  -0.406  0.00  0.00    +0.155 HD
BRANCH  22  24
ATOM     24  C   UNL     1       2.397   1.304  -0.166  0.00  0.00    +0.072 A 
ATOM     25  C   UNL     1       2.561   0.020  -0.667  0.00  0.00    +0.029 A 
ATOM     26  C   UNL     1       3.789  -0.606  -0.576  0.00  0.00    +0.043 A 
ATOM     27  C   UNL     1       4.856   0.042   0.024  0.00  0.00    +0.161 A 
ATOM     28  C   UNL     1       4.695   1.323   0.530  0.00  0.00    +0.195 A 
ATOM     29  C   UNL     1       3.467   1.955   0.436  0.00  0.00    +0.182 A 
ATOM     30  F   UNL     1       3.309   3.203   0.929  0.00  0.00    -0.200 F 
ATOM     31  F   UNL     1       5.737   1.953   1.115  0.00  0.00    -0.199 F 
ATOM     32  F   UNL     1       6.054  -0.574   0.115  0.00  0.00    -0.202 F 
ENDBRANCH  22  24
ENDBRANCH  19  20
ENDBRANCH   1  19
TORSDOF 6
