REMARK  Name = ZINC56051203
REMARK  5 active torsions:
REMARK  status: ('A' for Active; 'I' for Inactive)
REMARK    1  A    between atoms: C_1  and  O_2
REMARK    2  A    between atoms: O_2  and  C_3
REMARK    3  A    between atoms: C_3  and  C_5
REMARK    4  A    between atoms: C_7  and  C_13
REMARK    5  A    between atoms: C_20  and  C_22
REMARK                            x       y       z     vdW  Elec       q    Type
REMARK                         _______ _______ _______ _____ _____    ______ ____
ROOT
ATOM      1  C   UNL     1      -1.549  -2.008  -0.250  0.00  0.00    +0.148 C 
ATOM      2  C   UNL     1      -2.692  -2.765   0.070  0.00  0.00    +0.054 C 
ATOM      3  C   UNL     1      -2.466  -4.195   0.524  0.00  0.00    +0.141 C 
ATOM      4  N   UNL     1      -1.064  -4.648   0.584  0.00  0.00    -0.314 N 
ATOM      5  C   UNL     1      -0.094  -3.780   0.238  0.00  0.00    +0.155 C 
ATOM      6  S   UNL     1       1.534  -4.305   0.307  0.00  0.00    -0.017 S 
ATOM      7  N   UNL     1      -0.344  -2.536  -0.159  0.00  0.00    -0.186 NA
ATOM      8  C   UNL     1      -3.961  -2.231  -0.024  0.00  0.00    +0.196 C 
ATOM      9  O   UNL     1      -4.122  -0.918  -0.301  0.00  0.00    -0.287 OA
ATOM     10  H   UNL     1      -0.846  -5.550   0.866  0.00  0.00    +0.149 HD
ENDROOT
BRANCH   3  11
ATOM     11  C   UNL     1      -3.062  -4.350   1.899  0.00  0.00    +0.013 A 
ATOM     12  C   UNL     1      -3.315  -3.233   2.673  0.00  0.00    +0.008 A 
ATOM     13  C   UNL     1      -3.863  -3.375   3.934  0.00  0.00    +0.001 A 
ATOM     14  C   UNL     1      -4.158  -4.634   4.423  0.00  0.00    +0.003 A 
ATOM     15  C   UNL     1      -3.907  -5.752   3.651  0.00  0.00    +0.039 A 
ATOM     16  C   UNL     1      -3.363  -5.611   2.385  0.00  0.00    +0.129 A 
ATOM     17  F   UNL     1      -3.121  -6.703   1.628  0.00  0.00    -0.205 F 
ENDBRANCH   3  11
BRANCH   8  18
ATOM     18  C   UNL     1      -5.138  -3.091   0.176  0.00  0.00    +0.057 A 
ATOM     19  C   UNL     1      -5.342  -4.207  -0.643  0.00  0.00    +0.014 A 
ATOM     20  C   UNL     1      -6.446  -5.008  -0.449  0.00  0.00    +0.001 A 
ATOM     21  C   UNL     1      -7.355  -4.712   0.554  0.00  0.00    +0.003 A 
ATOM     22  C   UNL     1      -7.164  -3.611   1.369  0.00  0.00    +0.039 A 
ATOM     23  C   UNL     1      -6.058  -2.800   1.192  0.00  0.00    +0.134 A 
ATOM     24  F   UNL     1      -5.869  -1.728   1.992  0.00  0.00    -0.205 F 
ENDBRANCH   8  18
BRANCH   1  25
ATOM     25  C   UNL     1      -1.703  -0.600  -0.702  0.00  0.00    +0.356 C 
ATOM     26  O   UNL     1      -1.729   0.299   0.113  0.00  0.00    -0.243 OA
BRANCH  25  28
ATOM     27  C   UNL     1      -1.957   1.052  -2.377  0.00  0.00    +0.280 C 
ATOM     28  O   UNL     1      -1.812  -0.322  -2.014  0.00  0.00    -0.464 OA
ENDBRANCH  25  28
ENDBRANCH   1  25
TORSDOF 4
