REMARK  Name = ZINC04028975
REMARK  11 active torsions:
REMARK  status: ('A' for Active; 'I' for Inactive)
REMARK    1  A    between atoms: C_1  and  O_2
REMARK    2  A    between atoms: O_2  and  C_3
REMARK    3  A    between atoms: C_5  and  C_13
REMARK    4  A    between atoms: C_7  and  O_11
REMARK    5  A    between atoms: C_8  and  O_9
REMARK    6  A    between atoms: O_9  and  C_10
REMARK    7  A    between atoms: O_11  and  C_12
REMARK    8  A    between atoms: C_13  and  O_15
REMARK    9  A    between atoms: O_15  and  C_16
REMARK   10  A    between atoms: C_16  and  C_17
REMARK   11  A    between atoms: C_25  and  C_28
REMARK                            x       y       z     vdW  Elec       q    Type
REMARK                         _______ _______ _______ _____ _____    ______ ____
ROOT
ATOM      1  C   UNL     1       0.076  -6.373  -1.124  0.00  0.00    +0.234 C 
ENDROOT
BRANCH   1   2
ATOM      2  C   UNL     1       0.070  -6.950  -2.541  0.00  0.00    +0.013 C 
ATOM      3  C   UNL     1      -1.269  -6.639  -3.226  0.00  0.00    +0.003 C 
ATOM      4  C   UNL     1      -2.422  -7.321  -2.490  0.00  0.00    -0.018 C 
ATOM      5  C   UNL     1      -2.155  -8.827  -2.341  0.00  0.00    -0.078 C 
ATOM      6  C   UNL     1       0.215  -8.465  -2.482  0.00  0.00    -0.062 C 
ATOM      7  C   UNL     1       1.481  -8.940  -1.762  0.00  0.00    -0.013 C 
ATOM      8  C   UNL     1       1.039 -10.232  -1.029  0.00  0.00    -0.026 C 
ATOM      9  C   UNL     1      -0.476 -10.367  -1.335  0.00  0.00    -0.075 C 
ATOM     10  N   UNL     1      -0.833  -8.969  -1.636  0.00  0.00    +0.382 N 
ATOM     11  H   UNL     1      -0.869  -8.433  -0.760  0.00  0.00    -0.081 HD
BRANCH   8  12
ATOM     12  C   UNL     1       1.801 -11.441  -1.575  0.00  0.00    -0.010 C 
ATOM     13  C   UNL     1       1.296 -12.714  -0.892  0.00  0.00    +0.004 C 
ATOM     14  C   UNL     1       2.059 -13.923  -1.438  0.00  0.00    +0.000 C 
ATOM     15  C   UNL     1       3.553 -13.752  -1.157  0.00  0.00    +0.000 C 
ATOM     16  C   UNL     1       4.058 -12.480  -1.840  0.00  0.00    +0.000 C 
ATOM     17  C   UNL     1       3.296 -11.271  -1.294  0.00  0.00    +0.004 C 
ENDBRANCH   8  12
ENDBRANCH   1   2
BRANCH   1  18
ATOM     18  O   UNL     1       0.056  -4.923  -1.192  0.00  0.00    -0.461 OA
BRANCH  18  19
ATOM     19  C   UNL     1       0.058  -4.255  -0.021  0.00  0.00    +0.339 C 
ATOM     20  O   UNL     1       0.076  -4.869   1.028  0.00  0.00    -0.245 OA
BRANCH  19  23
ATOM     21  C   UNL     1      -0.006  -0.693  -1.208  0.00  0.00    +0.166 A 
ATOM     22  C   UNL     1       0.019  -2.074  -1.219  0.00  0.00    +0.064 A 
ATOM     23  C   UNL     1       0.039  -2.781  -0.013  0.00  0.00    +0.066 A 
ATOM     24  C   UNL     1       0.041  -2.087   1.200  0.00  0.00    +0.064 A 
ATOM     25  C   UNL     1       0.023  -0.705   1.205  0.00  0.00    +0.166 A 
ATOM     26  C   UNL     1       0.002  -0.004   0.002  0.00  0.00    +0.204 A 
BRANCH  21  28
ATOM     27  C   UNL     1      -0.038  -0.774  -3.585  0.00  0.00    +0.277 C 
ATOM     28  O   UNL     1      -0.032  -0.004  -2.381  0.00  0.00    -0.491 OA
ENDBRANCH  21  28
BRANCH  26  29
ATOM     29  O   UNL     1      -0.016   1.355   0.009  0.00  0.00    -0.488 OA
ATOM     30  C   UNL     1       1.248   2.021   0.001  0.00  0.00    +0.277 C 
ENDBRANCH  26  29
BRANCH  25  31
ATOM     31  O   UNL     1       0.025  -0.030   2.385  0.00  0.00    -0.491 OA
ATOM     32  C   UNL     1       0.047  -0.813   3.581  0.00  0.00    +0.277 C 
ENDBRANCH  25  31
ENDBRANCH  19  23
ENDBRANCH  18  19
ENDBRANCH   1  18
TORSDOF 8
