REMARK  Name = ZINC31935093
REMARK  9 active torsions:
REMARK  status: ('A' for Active; 'I' for Inactive)
REMARK    1  A    between atoms: C_1  and  C_2
REMARK    2  A    between atoms: C_2  and  C_4
REMARK    3  A    between atoms: C_2  and  C_6
REMARK    4  A    between atoms: C_4  and  N_5
REMARK    5  A    between atoms: C_7  and  C_15
REMARK    6  A    between atoms: C_18  and  C_21
REMARK    7  A    between atoms: C_21  and  C_22
REMARK    8  A    between atoms: C_21  and  C_23
REMARK    9  A    between atoms: C_21  and  C_24
REMARK                            x       y       z     vdW  Elec       q    Type
REMARK                         _______ _______ _______ _____ _____    ______ ____
ROOT
ATOM      1  C   UNL     1      -2.276   3.498   0.017  0.00  0.00    +0.052 A 
ATOM      2  C   UNL     1      -1.560   4.497   0.604  0.00  0.00    +0.093 A 
ATOM      3  N   UNL     1      -0.361   4.007   0.954  0.00  0.00    -0.228 NA
ATOM      4  C   UNL     1      -0.296   2.730   0.608  0.00  0.00    +0.138 A 
ATOM      5  N   UNL     1      -1.485   2.384   0.018  0.00  0.00    -0.303 N 
ATOM      6  C   UNL     1      -1.684   1.113  -0.441  0.00  0.00    +0.093 A 
ATOM      7  C   UNL     1      -0.721   0.177  -0.312  0.00  0.00    +0.018 A 
ATOM      8  C   UNL     1       0.507   0.501   0.288  0.00  0.00    +0.005 A 
ATOM      9  C   UNL     1       0.721   1.764   0.745  0.00  0.00    +0.047 A 
ENDROOT
BRANCH   2  10
ATOM     10  C   UNL     1      -2.026   5.890   0.818  0.00  0.00    +0.002 A 
ATOM     11  C   UNL     1      -1.310   6.957   0.280  0.00  0.00    +0.010 A 
ATOM     12  C   UNL     1      -1.751   8.250   0.478  0.00  0.00    +0.005 A 
ATOM     13  C   UNL     1      -2.896   8.488   1.218  0.00  0.00    -0.042 A 
ATOM     14  C   UNL     1      -3.607   7.432   1.759  0.00  0.00    +0.005 A 
ATOM     15  C   UNL     1      -3.179   6.135   1.562  0.00  0.00    +0.010 A 
BRANCH  13  16
ATOM     16  C   UNL     1      -3.369   9.902   1.436  0.00  0.00    -0.013 C 
ATOM     17  C   UNL     1      -3.399  10.204   2.935  0.00  0.00    +0.015 C 
ATOM     18  C   UNL     1      -2.413  10.872   0.739  0.00  0.00    +0.015 C 
ATOM     19  C   UNL     1      -4.775  10.065   0.854  0.00  0.00    +0.015 C 
ENDBRANCH  13  16
ENDBRANCH   2  10
BRANCH   1  21
ATOM     20  C   UNL     1      -4.660   3.809   0.624  0.00  0.00    +0.012 C 
ATOM     21  C   UNL     1      -3.677   3.601  -0.529  0.00  0.00    +0.018 C 
BRANCH  21  22
ATOM     22  C   UNL     1      -3.762   4.787  -1.493  0.00  0.00    -0.077 C 
BRANCH  22  23
ATOM     23  N   UNL     1      -5.104   4.839  -2.087  0.00  0.00    +0.379 N 
ATOM     24  H   UNL     1      -5.166   5.691  -2.780  0.00  0.00    -0.090 HD
ATOM     25  H   UNL     1      -5.854   4.959  -1.290  0.00  0.00    -0.090 HD
ATOM     26  H   UNL     1      -5.299   3.906  -2.636  0.00  0.00    -0.090 HD
ENDBRANCH  22  23
ENDBRANCH  21  22
ENDBRANCH   1  21
TORSDOF 5
