REMARK  Name = ZINC13499502
REMARK  15 active torsions:
REMARK  status: ('A' for Active; 'I' for Inactive)
REMARK    1  A    between atoms: C_1  and  C_2
REMARK    2  A    between atoms: C_2  and  C_3
REMARK    3  A    between atoms: C_3  and  C_4
REMARK    4  A    between atoms: C_4  and  C_6
REMARK    5  A    between atoms: C_4  and  N_71
REMARK    6  A    between atoms: N_10  and  C_11
REMARK    7  A    between atoms: C_11  and  C_12
REMARK    8  A    between atoms: C_12  and  O_14
REMARK    9  A    between atoms: O_14  and  C_15
REMARK   10  A    between atoms: C_15  and  C_16
REMARK   11  A    between atoms: C_17  and  C_18
REMARK   12  A    between atoms: C_17  and  N_71
REMARK   13  A    between atoms: C_22  and  C_31
REMARK   14  A    between atoms: C_23  and  C_30
REMARK   15  A    between atoms: C_32  and  N_71
REMARK                            x       y       z     vdW  Elec       q    Type
REMARK                         _______ _______ _______ _____ _____    ______ ____
ROOT
ATOM      1  N   UNL     1      -5.429   4.297  -1.339  0.00  0.00    +0.391 N 
ATOM      2  H   UNL     1      -5.231   3.365  -1.722  0.00  0.00    -0.080 HD
ENDROOT
BRANCH   1   3
ATOM      3  C   UNL     1      -4.649   5.301  -2.092  0.00  0.00    -0.067 C 
ATOM      4  C   UNL     1      -4.980   6.731  -1.618  0.00  0.00    -0.015 C 
ATOM      5  C   UNL     1      -4.949   7.578  -2.915  0.00  0.00    -0.002 C 
ATOM      6  C   UNL     1      -5.575   6.624  -3.962  0.00  0.00    -0.002 C 
ATOM      7  C   UNL     1      -5.027   5.233  -3.582  0.00  0.00    -0.015 C 
ENDBRANCH   1   3
BRANCH   1   8
ATOM      8  C   UNL     1      -6.875   4.575  -1.475  0.00  0.00    +0.003 C 
BRANCH   8   9
ATOM      9  C   UNL     1      -7.324   5.553  -0.420  0.00  0.00    +0.139 A 
ATOM     10  N   UNL     1      -7.070   5.490   0.864  0.00  0.00    -0.115 NA
ATOM     11  N   UNL     1      -7.624   6.507   1.429  0.00  0.00    -0.023 NA
ATOM     12  N   UNL     1      -8.224   7.217   0.539  0.00  0.00    -0.043 NA
ATOM     13  N   UNL     1      -8.057   6.665  -0.615  0.00  0.00    -0.220 N 
BRANCH  13  14
ATOM     14  C   UNL     1      -8.573   7.153  -1.897  0.00  0.00    +0.267 C 
BRANCH  14  15
ATOM     15  C   UNL     1      -9.940   6.569  -2.144  0.00  0.00    +0.329 C 
ATOM     16  O   UNL     1     -10.433   5.821  -1.333  0.00  0.00    -0.249 OA
BRANCH  15  17
ATOM     17  O   UNL     1     -10.610   6.879  -3.265  0.00  0.00    -0.464 OA
BRANCH  17  18
ATOM     18  C   UNL     1     -11.921   6.279  -3.437  0.00  0.00    +0.229 C 
ATOM     19  C   UNL     1     -12.525   6.746  -4.762  0.00  0.00    +0.048 C 
ENDBRANCH  17  18
ENDBRANCH  15  17
ENDBRANCH  14  15
ENDBRANCH  13  14
ENDBRANCH   8   9
BRANCH   8  20
ATOM     20  C   UNL     1      -7.641   3.261  -1.311  0.00  0.00    -0.008 C 
BRANCH  20  22
ATOM     21  C   UNL     1      -8.126   1.044  -2.355  0.00  0.00    +0.004 C 
ATOM     22  C   UNL     1      -7.270   2.308  -2.449  0.00  0.00    -0.005 C 
ENDBRANCH  20  22
ENDBRANCH   8  20
ENDBRANCH   1   8
BRANCH   1  23
ATOM     23  C   UNL     1      -5.042   4.322   0.087  0.00  0.00    -0.036 C 
BRANCH  23  24
ATOM     24  C   UNL     1      -3.687   3.678   0.232  0.00  0.00    +0.001 A 
ATOM     25  C   UNL     1      -2.577   4.452   0.317  0.00  0.00    +0.017 A 
ATOM     26  C   UNL     1      -1.276   3.795   0.458  0.00  0.00    -0.001 A 
ATOM     27  C   UNL     1      -0.096   4.540   0.549  0.00  0.00    +0.013 A 
ATOM     28  C   UNL     1       1.103   3.897   0.679  0.00  0.00    -0.047 A 
ATOM     29  C   UNL     1       1.159   2.510   0.722  0.00  0.00    -0.046 A 
ATOM     30  C   UNL     1       0.009   1.756   0.633  0.00  0.00    +0.030 A 
ATOM     31  C   UNL     1      -1.222   2.389   0.494  0.00  0.00    +0.049 A 
ATOM     32  N   UNL     1      -2.389   1.660   0.409  0.00  0.00    -0.322 N 
ATOM     33  H   UNL     1      -2.350   0.691   0.438  0.00  0.00    +0.169 HD
ATOM     34  C   UNL     1      -3.579   2.272   0.280  0.00  0.00    +0.251 A 
ATOM     35  O   UNL     1      -4.590   1.595   0.201  0.00  0.00    -0.268 OA
ATOM     36  C   UNL     1       2.492   1.823   0.867  0.00  0.00    +0.044 C 
ATOM     37  C   UNL     1       2.374   4.700   0.778  0.00  0.00    +0.044 C 
ENDBRANCH  23  24
ENDBRANCH   1  23
TORSDOF 11
