REMARK  Name = ZINC63573521
REMARK  10 active torsions:
REMARK  status: ('A' for Active; 'I' for Inactive)
REMARK    1  A    between atoms: C_1  and  C_2
REMARK    2  A    between atoms: C_2  and  O_3
REMARK    3  A    between atoms: O_3  and  C_4
REMARK    4  A    between atoms: C_4  and  C_5
REMARK    5  A    between atoms: C_5  and  C_6
REMARK    6  A    between atoms: C_6  and  N_7
REMARK    7  A    between atoms: C_16  and  O_32
REMARK    8  A    between atoms: C_23  and  C_25
REMARK    9  A    between atoms: C_28  and  C_31
REMARK   10  A    between atoms: O_32  and  C_33
REMARK                            x       y       z     vdW  Elec       q    Type
REMARK                         _______ _______ _______ _____ _____    ______ ____
ROOT
ATOM      1  N   UNL     1       2.373  -3.995   4.243  0.00  0.00    -0.299 N 
ATOM      2  C   UNL     1       2.557  -5.324   4.362  0.00  0.00    +0.303 C 
ATOM      3  O   UNL     1       2.064  -6.082   3.548  0.00  0.00    -0.253 OA
ATOM      4  N   UNL     1       3.287  -5.815   5.383  0.00  0.00    -0.276 N 
ATOM      5  C   UNL     1       3.775  -4.909   6.428  0.00  0.00    +0.114 C 
ATOM      6  C   UNL     1       3.256  -5.379   7.799  0.00  0.00    +0.052 C 
ATOM      7  C   UNL     1       3.473  -6.871   7.855  0.00  0.00    -0.035 C 
ATOM      8  C   UNL     1       4.068  -7.638   8.759  0.00  0.00    +0.003 A 
ATOM      9  C   UNL     1       4.636  -7.337  10.082  0.00  0.00    +0.055 A 
ATOM     10  C   UNL     1       5.201  -8.376  10.755  0.00  0.00    +0.121 A 
ATOM     11  C   UNL     1       5.268  -9.687  10.261  0.00  0.00    +0.047 A 
ATOM     12  C   UNL     1       4.770 -10.076   9.059  0.00  0.00    +0.029 A 
ATOM     13  C   UNL     1       4.125  -9.040   8.241  0.00  0.00    +0.043 A 
ATOM     14  N   UNL     1       3.548  -9.120   7.080  0.00  0.00    -0.375 N 
ATOM     15  C   UNL     1       3.003  -7.804   6.745  0.00  0.00    +0.131 C 
ATOM     16  C   UNL     1       3.581  -7.256   5.442  0.00  0.00    +0.134 C 
ATOM     17  H   UNL     1       2.704  -3.396   4.931  0.00  0.00    +0.150 HD
ATOM     18  H   UNL     1       3.490  -9.916   6.529  0.00  0.00    +0.160 HD
ENDROOT
BRANCH  16  19
ATOM     19  C   UNL     1       5.072  -7.474   5.418  0.00  0.00    -0.025 A 
ATOM     20  C   UNL     1       5.639  -8.260   4.432  0.00  0.00    +0.006 A 
ATOM     21  C   UNL     1       7.007  -8.460   4.410  0.00  0.00    +0.004 A 
ATOM     22  C   UNL     1       7.807  -7.874   5.373  0.00  0.00    -0.050 A 
ATOM     23  C   UNL     1       7.239  -7.088   6.358  0.00  0.00    +0.004 A 
ATOM     24  C   UNL     1       5.872  -6.884   6.378  0.00  0.00    +0.006 A 
ATOM     25  C   UNL     1       9.298  -8.094   5.349  0.00  0.00    +0.044 C 
ENDBRANCH  16  19
BRANCH  10  26
ATOM     26  O   UNL     1       5.734  -8.129  11.981  0.00  0.00    -0.495 OA
ATOM     27  C   UNL     1       6.322  -9.235  12.668  0.00  0.00    +0.277 C 
ENDBRANCH  10  26
BRANCH   1  28
ATOM     28  C   UNL     1       1.674  -3.454   3.075  0.00  0.00    +0.108 C 
BRANCH  28  29
ATOM     29  C   UNL     1       1.601  -1.929   3.185  0.00  0.00    +0.047 C 
BRANCH  29  30
ATOM     30  C   UNL     1       0.870  -1.364   1.966  0.00  0.00    +0.161 C 
BRANCH  30  31
ATOM     31  O   UNL     1       0.802   0.059   2.068  0.00  0.00    -0.380 OA
BRANCH  31  33
ATOM     32  C   UNL     1       0.122   2.205   1.188  0.00  0.00    +0.034 C 
ATOM     33  C   UNL     1       0.135   0.690   0.973  0.00  0.00    +0.156 C 
ENDBRANCH  31  33
ENDBRANCH  30  31
ENDBRANCH  29  30
ENDBRANCH  28  29
ENDBRANCH   1  28
TORSDOF 7
