REMARK  Name = ZINC09728258
REMARK  5 active torsions:
REMARK  status: ('A' for Active; 'I' for Inactive)
REMARK    1  A    between atoms: C_4  and  C_7
REMARK    2  A    between atoms: C_7  and  C_9
REMARK    3  A    between atoms: C_7  and  N_14
REMARK    4  A    between atoms: C_15  and  C_17
REMARK    5  A    between atoms: C_17  and  N_18
REMARK                            x       y       z     vdW  Elec       q    Type
REMARK                         _______ _______ _______ _____ _____    ______ ____
ROOT
ATOM      1  C   UNL     1       1.565  -1.928  -0.025  0.00  0.00    +0.213 C 
ENDROOT
BRANCH   1   2
ATOM      2  N   UNL     1       1.246  -0.498  -0.013  0.00  0.00    -0.215 N 
ATOM      3  C   UNL     1       2.171   0.485  -0.017  0.00  0.00    +0.252 C 
ATOM      4  O   UNL     1       3.376   0.359  -0.029  0.00  0.00    -0.272 OA
ATOM      5  C   UNL     1       1.386   1.777  -0.002  0.00  0.00    +0.144 C 
ATOM      6  C   UNL     1       1.707   2.579   1.256  0.00  0.00    +0.081 C 
ATOM      7  C   UNL     1       1.100   3.980   1.101  0.00  0.00    +0.232 C 
ATOM      8  O   UNL     1       1.738   4.632   0.003  0.00  0.00    -0.492 OA
ATOM      9  C   UNL     1       1.835   3.958  -1.172  0.00  0.00    +0.126 A 
ATOM     10  C   UNL     1       1.679   2.582  -1.236  0.00  0.00    +0.027 A 
ATOM     11  C   UNL     1       1.792   1.934  -2.454  0.00  0.00    +0.010 A 
ATOM     12  C   UNL     1       2.056   2.650  -3.605  0.00  0.00    +0.001 A 
ATOM     13  C   UNL     1       2.209   4.023  -3.544  0.00  0.00    +0.004 A 
ATOM     14  C   UNL     1       2.099   4.676  -2.333  0.00  0.00    +0.046 A 
ATOM     15  N   UNL     1      -0.016   1.343   0.009  0.00  0.00    -0.281 N 
ATOM     16  C   UNL     1       0.002  -0.004   0.002  0.00  0.00    +0.310 C 
ATOM     17  O   UNL     1      -0.999  -0.694   0.008  0.00  0.00    -0.252 OA
ATOM     18  H   UNL     1      -0.801   1.913   0.016  0.00  0.00    +0.152 HD
ENDBRANCH   1   2
BRANCH   1  20
ATOM     19  N   UNL     1       1.945  -3.701  -1.706  0.00  0.00    -0.303 N 
ATOM     20  C   UNL     1       1.659  -2.409  -1.450  0.00  0.00    +0.232 C 
ATOM     21  O   UNL     1       1.479  -1.635  -2.365  0.00  0.00    -0.274 OA
ATOM     22  H   UNL     1       2.090  -4.321  -0.974  0.00  0.00    +0.150 HD
BRANCH  19  23
ATOM     23  C   UNL     1       2.037  -4.170  -3.091  0.00  0.00    +0.140 C 
BRANCH  23  27
ATOM     24  C   UNL     1       1.226  -8.361  -3.234  0.00  0.00    +0.000 A 
ATOM     25  C   UNL     1       0.732  -7.528  -4.220  0.00  0.00    +0.000 A 
ATOM     26  C   UNL     1       0.994  -6.171  -4.173  0.00  0.00    +0.006 A 
ATOM     27  C   UNL     1       1.751  -5.649  -3.142  0.00  0.00    -0.022 A 
ATOM     28  C   UNL     1       2.250  -6.483  -2.159  0.00  0.00    +0.006 A 
ATOM     29  C   UNL     1       1.983  -7.839  -2.202  0.00  0.00    +0.000 A 
ENDBRANCH  23  27
BRANCH  23  30
ATOM     30  C   UNL     1       3.424  -3.909  -3.619  0.00  0.00    +0.014 A 
ATOM     31  C   UNL     1       3.804  -3.475  -4.846  0.00  0.00    +0.013 A 
ATOM     32  C   UNL     1       5.149  -3.303  -5.110  0.00  0.00    +0.008 A 
ATOM     33  C   UNL     1       6.050  -3.574  -4.134  0.00  0.00    +0.045 A 
ATOM     34  S   UNL     1       4.995  -4.083  -2.787  0.00  0.00    -0.099 S 
ENDBRANCH  23  30
ENDBRANCH  19  23
ENDBRANCH   1  20
TORSDOF 5
