REMARK  Name = ZINC35747015
REMARK  14 active torsions:
REMARK  status: ('A' for Active; 'I' for Inactive)
REMARK    1  A    between atoms: C_1  and  O_2
REMARK    2  A    between atoms: O_2  and  C_3
REMARK    3  A    between atoms: C_8  and  C_9
REMARK    4  A    between atoms: C_18  and  C_20
REMARK    5  A    between atoms: C_20  and  N_21
REMARK    6  A    between atoms: N_21  and  C_22
REMARK    7  A    between atoms: N_21  and  C_25
REMARK    8  A    between atoms: C_22  and  C_23
REMARK    9  A    between atoms: C_25  and  C_26
REMARK   10  A    between atoms: C_26  and  C_28
REMARK   11  A    between atoms: C_26  and  O_33
REMARK   12  A    between atoms: C_28  and  O_29
REMARK   13  A    between atoms: O_29  and  C_30
REMARK   14  A    between atoms: C_30  and  C_31
REMARK                            x       y       z     vdW  Elec       q    Type
REMARK                         _______ _______ _______ _____ _____    ______ ____
ROOT
ATOM      1  C   UNL     1      -1.335  -3.110   0.084  0.00  0.00    +0.007 A 
ATOM      2  C   UNL     1      -2.637  -3.476   0.013  0.00  0.00    +0.056 A 
ATOM      3  S   UNL     1      -2.816  -4.038  -1.669  0.00  0.00    -0.076 S 
ATOM      4  C   UNL     1      -1.155  -3.771  -2.232  0.00  0.00    +0.116 A 
ATOM      5  C   UNL     1      -0.502  -3.247  -1.105  0.00  0.00    +0.080 A 
ATOM      6  C   UNL     1       0.882  -2.928  -1.283  0.00  0.00    +0.260 A 
ATOM      7  O   UNL     1       1.536  -2.472  -0.360  0.00  0.00    -0.267 OA
ATOM      8  N   UNL     1       1.451  -3.141  -2.484  0.00  0.00    -0.312 N 
ATOM      9  H   UNL     1       2.389  -2.927  -2.610  0.00  0.00    +0.170 HD
ATOM     10  C   UNL     1       0.739  -3.649  -3.522  0.00  0.00    +0.094 A 
ATOM     11  N   UNL     1      -0.523  -3.958  -3.388  0.00  0.00    -0.229 NA
ENDROOT
BRANCH   1  17
ATOM     12  C   UNL     1      -0.319  -1.251   1.407  0.00  0.00    +0.128 A 
ATOM     13  C   UNL     1       0.203  -0.757   2.590  0.00  0.00    +0.046 A 
ATOM     14  C   UNL     1       0.284  -1.571   3.705  0.00  0.00    +0.004 A 
ATOM     15  C   UNL     1      -0.155  -2.881   3.645  0.00  0.00    +0.001 A 
ATOM     16  C   UNL     1      -0.677  -3.387   2.472  0.00  0.00    +0.012 A 
ATOM     17  C   UNL     1      -0.769  -2.574   1.345  0.00  0.00    +0.025 A 
BRANCH  12  19
ATOM     18  C   UNL     1       0.078   0.888   0.448  0.00  0.00    +0.277 C 
ATOM     19  O   UNL     1      -0.400  -0.451   0.311  0.00  0.00    -0.495 OA
ENDBRANCH  12  19
ENDBRANCH   1  17
BRANCH  10  20
ATOM     20  C   UNL     1       1.419  -3.870  -4.849  0.00  0.00    -0.003 C 
BRANCH  20  21
ATOM     21  N   UNL     1       0.472  -4.489  -5.787  0.00  0.00    +0.388 N 
ATOM     22  H   UNL     1       0.066  -5.309  -5.362  0.00  0.00    -0.081 HD
BRANCH  21  23
ATOM     23  C   UNL     1       1.181  -4.873  -7.015  0.00  0.00    -0.051 C 
BRANCH  23  24
ATOM     24  C   UNL     1       2.239  -5.894  -6.686  0.00  0.00    -0.053 C 
ATOM     25  C   UNL     1       2.256  -7.045  -7.311  0.00  0.00    +0.002 C 
ENDBRANCH  23  24
ENDBRANCH  21  23
BRANCH  21  26
ATOM     26  C   UNL     1      -0.591  -3.529  -6.114  0.00  0.00    -0.044 C 
BRANCH  26  27
ATOM     27  C   UNL     1      -1.675  -4.230  -6.936  0.00  0.00    +0.124 C 
BRANCH  27  28
ATOM     28  O   UNL     1      -1.157  -4.559  -8.226  0.00  0.00    -0.391 OA
ATOM     29  H   UNL     1      -0.861  -3.794  -8.738  0.00  0.00    +0.210 HD
ENDBRANCH  27  28
BRANCH  27  30
ATOM     30  C   UNL     1      -2.878  -3.298  -7.092  0.00  0.00    +0.190 C 
BRANCH  30  31
ATOM     31  O   UNL     1      -3.935  -3.993  -7.758  0.00  0.00    -0.365 OA
BRANCH  31  32
ATOM     32  C   UNL     1      -5.113  -3.208  -7.955  0.00  0.00    +0.248 C 
BRANCH  32  33
ATOM     33  C   UNL     1      -6.131  -4.016  -8.645  0.00  0.00    -0.077 C 
ATOM     34  C   UNL     1      -6.943  -4.660  -9.196  0.00  0.00    +0.006 C 
ENDBRANCH  32  33
ENDBRANCH  31  32
ENDBRANCH  30  31
ENDBRANCH  27  30
ENDBRANCH  26  27
ENDBRANCH  21  26
ENDBRANCH  20  21
ENDBRANCH  10  20
TORSDOF 13
