REMARK  Name = ZINC34937144
REMARK  4 active torsions:
REMARK  status: ('A' for Active; 'I' for Inactive)
REMARK    1  A    between atoms: C_1  and  C_2
REMARK    2  A    between atoms: C_2  and  C_3
REMARK    3  A    between atoms: C_16  and  C_18
REMARK    4  A    between atoms: C_18  and  C_20
REMARK                            x       y       z     vdW  Elec       q    Type
REMARK                         _______ _______ _______ _____ _____    ______ ____
ROOT
ATOM      1  C   UNL     1       0.718  -0.497  -1.257  0.00  0.00    -0.006 C 
ATOM      2  C   UNL     1       0.639  -2.025  -1.327  0.00  0.00    +0.008 C 
ATOM      3  C   UNL     1       1.128  -2.508  -2.693  0.00  0.00    +0.037 C 
ATOM      4  C   UNL     1       2.507  -1.911  -2.964  0.00  0.00    -0.023 A 
ATOM      5  C   UNL     1       2.936  -0.829  -2.272  0.00  0.00    -0.004 A 
ATOM      6  S   UNL     1       4.559  -0.488  -2.903  0.00  0.00    -0.073 S 
ATOM      7  C   UNL     1       4.660  -1.792  -4.088  0.00  0.00    +0.116 A 
ATOM      8  C   UNL     1       3.419  -2.454  -3.954  0.00  0.00    +0.075 A 
ATOM      9  C   UNL     1       3.191  -3.588  -4.804  0.00  0.00    +0.260 A 
ATOM     10  O   UNL     1       2.154  -4.228  -4.766  0.00  0.00    -0.267 OA
ATOM     11  N   UNL     1       4.201  -3.901  -5.649  0.00  0.00    -0.309 N 
ATOM     12  H   UNL     1       4.089  -4.661  -6.242  0.00  0.00    +0.170 HD
ATOM     13  C   UNL     1       5.360  -3.203  -5.707  0.00  0.00    +0.129 A 
ATOM     14  N   UNL     1       5.607  -2.160  -4.945  0.00  0.00    -0.225 NA
ATOM     15  C   UNL     1       2.195  -0.080  -1.206  0.00  0.00    +0.046 C 
ENDROOT
BRANCH  13  16
ATOM     16  C   UNL     1       6.417  -3.643  -6.688  0.00  0.00    +0.143 C 
ATOM     17  C   UNL     1       7.417  -4.561  -5.983  0.00  0.00    +0.033 C 
ATOM     18 CL   UNL     1       7.278  -2.195  -7.332  0.00  0.00    -0.114 Cl
ENDBRANCH  13  16
BRANCH   1  20
ATOM     19  C   UNL     1      -0.019   1.526   0.010  0.00  0.00    +0.004 C 
ATOM     20  C   UNL     1       0.002  -0.004   0.002  0.00  0.00    +0.000 C 
ENDBRANCH   1  20
TORSDOF 2
