REMARK  Name = ZINC04691197
REMARK  7 active torsions:
REMARK  status: ('A' for Active; 'I' for Inactive)
REMARK    1  A    between atoms: C_1  and  C_2
REMARK    2  A    between atoms: C_2  and  N_3
REMARK    3  A    between atoms: N_3  and  N_4
REMARK    4  A    between atoms: C_5  and  C_7
REMARK    5  A    between atoms: C_14  and  C_15
REMARK    6  A    between atoms: N_17  and  C_18
REMARK    7  A    between atoms: C_18  and  C_19
REMARK                            x       y       z     vdW  Elec       q    Type
REMARK                         _______ _______ _______ _____ _____    ______ ____
ROOT
ATOM      1  C   UNL     1      -0.021   1.854   0.157  0.00  0.00    +0.062 C 
ATOM      2  C   UNL     1      -0.743   1.814  -1.165  0.00  0.00    +0.024 C 
ATOM      3  C   UNL     1      -2.086   1.696  -1.198  0.00  0.00    +0.087 C 
ENDROOT
BRANCH   3   4
ATOM      4  C   UNL     1      -2.803   1.445  -0.004  0.00  0.00    +0.238 C 
ATOM      5  O   UNL     1      -2.202   1.218   1.030  0.00  0.00    -0.271 OA
ATOM      6  N   UNL     1      -4.150   1.456  -0.013  0.00  0.00    -0.309 N 
ATOM      7  H   UNL     1      -4.629   1.637  -0.837  0.00  0.00    +0.149 HD
BRANCH   6   8
ATOM      8  C   UNL     1      -4.893   1.196   1.223  0.00  0.00    +0.136 C 
BRANCH   8   9
ATOM      9  C   UNL     1      -6.395   1.268   0.941  0.00  0.00    +0.135 C 
ATOM     10  C   UNL     1      -7.199   1.030   2.243  0.00  0.00    +0.035 C 
ATOM     11  C   UNL     1      -8.529   1.757   1.905  0.00  0.00    +0.031 C 
ATOM     12  C   UNL     1      -8.046   2.937   1.035  0.00  0.00    +0.160 C 
ATOM     13  O   UNL     1      -6.758   2.588   0.508  0.00  0.00    -0.375 OA
ENDBRANCH   8   9
ENDBRANCH   6   8
ENDBRANCH   3   4
BRANCH   2  14
ATOM     14  N   UNL     1      -0.036   1.899  -2.332  0.00  0.00    -0.268 N 
ATOM     15  H   UNL     1       0.930   1.984  -2.309  0.00  0.00    +0.170 HD
BRANCH  14  16
ATOM     16  N   UNL     1      -0.706   1.862  -3.562  0.00  0.00    -0.233 N 
ATOM     17  C   UNL     1      -0.009   1.946  -4.712  0.00  0.00    +0.260 C 
ATOM     18  O   UNL     1       1.201   2.053  -4.683  0.00  0.00    -0.269 OA
ATOM     19  H   UNL     1      -1.672   1.777  -3.585  0.00  0.00    +0.173 HD
BRANCH  17  20
ATOM     20  C   UNL     1      -0.717   1.907  -6.009  0.00  0.00    +0.038 A 
ATOM     21  C   UNL     1      -2.107   1.790  -6.046  0.00  0.00    +0.014 A 
ATOM     22  C   UNL     1      -2.762   1.754  -7.259  0.00  0.00    +0.021 A 
ATOM     23  C   UNL     1      -2.042   1.835  -8.440  0.00  0.00    +0.041 A 
ATOM     24  C   UNL     1      -0.662   1.951  -8.410  0.00  0.00    +0.021 A 
ATOM     25  C   UNL     1       0.003   1.994  -7.202  0.00  0.00    +0.014 A 
ATOM     26 CL   UNL     1      -2.873   1.789  -9.963  0.00  0.00    -0.084 Cl
ENDBRANCH  17  20
ENDBRANCH  14  16
ENDBRANCH   2  14
TORSDOF 6
