REMARK  Name = ZINC39555724
REMARK  4 active torsions:
REMARK  status: ('A' for Active; 'I' for Inactive)
REMARK    1  A    between atoms: C_1  and  C_2
REMARK    2  A    between atoms: C_7  and  N_8
REMARK    3  A    between atoms: C_9  and  C_11
REMARK    4  A    between atoms: C_13  and  C_25
REMARK                            x       y       z     vdW  Elec       q    Type
REMARK                         _______ _______ _______ _____ _____    ______ ____
ROOT
ATOM      1  C   UNL     1      -0.167   0.038   4.856  0.00  0.00    +0.068 A 
ATOM      2  C   UNL     1      -0.194   1.434   4.887  0.00  0.00    +0.038 A 
ATOM      3  C   UNL     1      -0.297   2.084   6.104  0.00  0.00    +0.041 A 
ATOM      4  N   UNL     1      -0.374   1.417   7.237  0.00  0.00    -0.233 NA
ATOM      5  C   UNL     1      -0.357   0.096   7.274  0.00  0.00    +0.161 A 
ATOM      6  C   UNL     1      -0.253  -0.649   6.084  0.00  0.00    +0.120 A 
ATOM      7  N   UNL     1      -0.255  -1.951   6.427  0.00  0.00    -0.230 NA
ATOM      8  C   UNL     1      -0.363  -2.067   7.722  0.00  0.00    +0.112 A 
ATOM      9  N   UNL     1      -0.430  -0.832   8.290  0.00  0.00    -0.312 N 
ATOM     10  C   UNL     1      -0.581  -0.540   9.718  0.00  0.00    +0.125 C 
ATOM     11  C   UNL     1       0.041  -1.670  10.541  0.00  0.00    +0.022 C 
ATOM     12  C   UNL     1      -1.010  -2.744  10.814  0.00  0.00    +0.002 C 
ATOM     13  C   UNL     1      -1.509  -3.345   9.504  0.00  0.00    +0.008 C 
ATOM     14  C   UNL     1      -0.392  -3.372   8.482  0.00  0.00    +0.074 C 
ATOM     15  C   UNL     1      -0.323   3.591   6.133  0.00  0.00    +0.065 C 
ENDROOT
BRANCH   1  17
ATOM     16  N   UNL     1       0.025  -0.015   2.417  0.00  0.00    -0.281 N 
ATOM     17  C   UNL     1      -0.057  -0.694   3.578  0.00  0.00    +0.250 C 
ATOM     18  O   UNL     1      -0.040  -1.910   3.573  0.00  0.00    -0.270 OA
ATOM     19  H   UNL     1       0.077   0.954   2.424  0.00  0.00    +0.155 HD
BRANCH  16  26
ATOM     20  C   UNL     1      -1.266   1.183   0.181  0.00  0.00    +0.046 C 
ATOM     21  C   UNL     1      -0.585  -0.158   0.085  0.00  0.00    -0.028 A 
ATOM     22  C   UNL     1      -0.570  -0.841  -1.116  0.00  0.00    +0.025 A 
ATOM     23  C   UNL     1       0.055  -2.072  -1.206  0.00  0.00    +0.041 A 
ATOM     24  C   UNL     1       0.667  -2.623  -0.093  0.00  0.00    +0.022 A 
ATOM     25  C   UNL     1       0.655  -1.945   1.109  0.00  0.00    +0.025 A 
ATOM     26  C   UNL     1       0.033  -0.706   1.201  0.00  0.00    +0.037 A 
ATOM     27 CL   UNL     1       0.070  -2.927  -2.716  0.00  0.00    -0.084 Cl
ENDBRANCH  16  26
ENDBRANCH   1  17
TORSDOF 2
