REMARK  Name = ZINC62038499
REMARK  10 active torsions:
REMARK  status: ('A' for Active; 'I' for Inactive)
REMARK    1  A    between atoms: C_1  and  C_2
REMARK    2  A    between atoms: C_5  and  O_32
REMARK    3  A    between atoms: C_6  and  N_8
REMARK    4  A    between atoms: C_9  and  C_11
REMARK    5  A    between atoms: C_11  and  S_12
REMARK    6  A    between atoms: S_12  and  C_13
REMARK    7  A    between atoms: C_18  and  C_23
REMARK    8  A    between atoms: C_26  and  O_30
REMARK    9  A    between atoms: C_27  and  C_29
REMARK   10  A    between atoms: O_30  and  C_31
REMARK                            x       y       z     vdW  Elec       q    Type
REMARK                         _______ _______ _______ _____ _____    ______ ____
ROOT
ATOM      1  C   UNL     1       0.535  -2.760   7.663  0.00  0.00    +0.171 A 
ATOM      2  N   UNL     1       0.544  -4.067   7.510  0.00  0.00    -0.185 NA
ATOM      3  C   UNL     1       0.651  -4.908   8.543  0.00  0.00    +0.283 A 
ATOM      4  O   UNL     1       0.656  -6.115   8.358  0.00  0.00    -0.265 OA
ATOM      5  C   UNL     1       0.765  -4.362   9.915  0.00  0.00    +0.080 A 
ATOM      6  C   UNL     1       0.891  -5.066  11.186  0.00  0.00    +0.004 A 
ATOM      7  C   UNL     1       0.981  -4.340  12.326  0.00  0.00    +0.056 A 
ATOM      8  S   UNL     1       0.899  -2.656  11.745  0.00  0.00    -0.078 S 
ATOM      9  C   UNL     1       0.749  -2.970  10.007  0.00  0.00    +0.093 A 
ATOM     10  N   UNL     1       0.641  -2.189   8.897  0.00  0.00    -0.328 N 
ATOM     11  H   UNL     1       0.636  -1.223   8.984  0.00  0.00    +0.168 HD
ENDROOT
BRANCH   6  12
ATOM     12  C   UNL     1       0.920  -6.548  11.229  0.00  0.00    -0.016 A 
ATOM     13  C   UNL     1      -0.052  -7.286  10.556  0.00  0.00    +0.012 A 
ATOM     14  C   UNL     1      -0.022  -8.664  10.598  0.00  0.00    +0.046 A 
ATOM     15  C   UNL     1       0.975  -9.316  11.311  0.00  0.00    +0.123 A 
ATOM     16  C   UNL     1       1.944  -8.585  11.983  0.00  0.00    -0.008 A 
ATOM     17  C   UNL     1       1.923  -7.206  11.939  0.00  0.00    +0.015 A 
ATOM     18  C   UNL     1       3.024  -9.297  12.755  0.00  0.00    +0.047 C 
BRANCH  15  19
ATOM     19  O   UNL     1       1.001 -10.675  11.351  0.00  0.00    -0.495 OA
ATOM     20  C   UNL     1      -0.027 -11.365  10.638  0.00  0.00    +0.277 C 
ENDBRANCH  15  19
ENDBRANCH   6  12
BRANCH   1  21
ATOM     21  S   UNL     1       0.390  -1.726   6.244  0.00  0.00    -0.078 S 
BRANCH  21  22
ATOM     22  C   UNL     1       0.279  -2.894   4.860  0.00  0.00    +0.173 C 
BRANCH  22  24
ATOM     23  N   UNL     1       0.050  -2.795   2.399  0.00  0.00    -0.282 N 
ATOM     24  C   UNL     1       0.149  -2.130   3.568  0.00  0.00    +0.228 C 
ATOM     25  O   UNL     1       0.134  -0.917   3.579  0.00  0.00    -0.275 OA
ATOM     26  H   UNL     1      -0.002  -3.763   2.395  0.00  0.00    +0.155 HD
BRANCH  23  32
ATOM     27  C   UNL     1      -1.307   1.189  -0.143  0.00  0.00    +0.044 C 
ATOM     28  C   UNL     1      -0.627  -0.153  -0.071  0.00  0.00    -0.048 A 
ATOM     29  C   UNL     1      -0.029  -0.685  -1.199  0.00  0.00    +0.007 A 
ATOM     30  C   UNL     1       0.596  -1.917  -1.139  0.00  0.00    +0.047 A 
ATOM     31  C   UNL     1       0.625  -2.622   0.054  0.00  0.00    +0.138 A 
ATOM     32  C   UNL     1       0.024  -2.086   1.191  0.00  0.00    +0.076 A 
ATOM     33  C   UNL     1      -0.597  -0.847   1.124  0.00  0.00    +0.030 A 
BRANCH  31  34
ATOM     34  O   UNL     1       1.239  -3.834   0.115  0.00  0.00    -0.505 OA
ATOM     35  H   UNL     1       2.177  -3.788   0.347  0.00  0.00    +0.292 HD
ENDBRANCH  31  34
ENDBRANCH  23  32
ENDBRANCH  22  24
ENDBRANCH  21  22
ENDBRANCH   1  21
TORSDOF 7
