REMARK  Name = ZINC20911565
REMARK  14 active torsions:
REMARK  status: ('A' for Active; 'I' for Inactive)
REMARK    1  A    between atoms: C_1  and  C_2
REMARK    2  A    between atoms: C_3  and  C_11
REMARK    3  A    between atoms: C_4  and  C_10
REMARK    4  A    between atoms: N_5  and  C_7
REMARK    5  A    between atoms: C_7  and  C_8
REMARK    6  A    between atoms: C_7  and  C_9
REMARK    7  A    between atoms: N_12  and  N_13
REMARK    8  A    between atoms: C_17  and  S_20
REMARK    9  A    between atoms: N_18  and  N_19
REMARK   10  A    between atoms: S_20  and  C_21
REMARK   11  A    between atoms: C_21  and  C_22
REMARK   12  A    between atoms: N_24  and  C_25
REMARK   13  A    between atoms: C_25  and  C_26
REMARK   14  A    between atoms: C_26  and  C_27
REMARK                            x       y       z     vdW  Elec       q    Type
REMARK                         _______ _______ _______ _____ _____    ______ ____
ROOT
ATOM      1  N   UNL     1      -1.150   2.163   0.019  0.00  0.00    -0.204 N 
ATOM      2  C   UNL     1      -0.017   1.363   0.009  0.00  0.00    +0.254 A 
ATOM      3  N   UNL     1       1.225   1.785   0.000  0.00  0.00    -0.109 NA
ATOM      4  N   UNL     1       2.063   0.663  -0.014  0.00  0.00    -0.119 NA
ATOM      5  C   UNL     1       1.307  -0.408  -0.013  0.00  0.00    +0.210 A 
ATOM      6  N   UNL     1       0.002  -0.004   0.002  0.00  0.00    -0.211 N 
ATOM      7  H   UNL     1      -2.148   1.702   0.022  0.00  0.00    +0.177 HD
ENDROOT
BRANCH   6   8
ATOM      8  N   UNL     1      -1.092  -0.822   0.009  0.00  0.00    -0.294 N 
ATOM      9  H   UNL     1      -0.962  -1.914   0.001  0.00  0.00    +0.163 HD
ATOM     10  H   UNL     1      -2.103  -0.388   0.021  0.00  0.00    +0.163 HD
ENDBRANCH   6   8
BRANCH   1  12
ATOM     11  C   UNL     1      -2.082   4.307   0.036  0.00  0.00    +0.141 C 
ATOM     12  N   UNL     1      -1.022   3.558   0.026  0.00  0.00    -0.187 NA
BRANCH  11  15
ATOM     13  C   UNL     1       0.648   5.919   0.031  0.00  0.00    +0.068 C 
ATOM     14  C   UNL     1      -0.740   6.506   0.041  0.00  0.00    +0.069 A 
ATOM     15  C   UNL     1      -1.948   5.777   0.043  0.00  0.00    +0.038 A 
ATOM     16  C   UNL     1      -2.978   6.691   0.048  0.00  0.00    +0.045 A 
ATOM     17  N   UNL     1      -2.426   7.921   0.056  0.00  0.00    -0.265 N 
ATOM     18  N   UNL     1      -1.033   7.779   0.048  0.00  0.00    -0.175 NA
ATOM     19  C   UNL     1      -4.452   6.375   0.046  0.00  0.00    +0.066 C 
BRANCH  17  20
ATOM     20  C   UNL     1      -3.158   9.190   0.066  0.00  0.00    +0.101 C 
ATOM     21  C   UNL     1      -2.781   9.987   1.317  0.00  0.00    +0.032 C 
ATOM     22  C   UNL     1      -2.795   9.998  -1.181  0.00  0.00    +0.032 C 
ENDBRANCH  17  20
ENDBRANCH  11  15
ENDBRANCH   1  12
BRANCH   5  23
ATOM     23  S   UNL     1       1.874  -2.077  -0.027  0.00  0.00    -0.075 S 
BRANCH  23  24
ATOM     24  C   UNL     1       3.682  -1.926  -0.043  0.00  0.00    +0.173 C 
BRANCH  24  25
ATOM     25  C   UNL     1       4.301  -3.300  -0.057  0.00  0.00    +0.223 C 
ATOM     26  O   UNL     1       3.592  -4.284  -0.055  0.00  0.00    -0.275 OA
ATOM     27  N   UNL     1       5.641  -3.435  -0.070  0.00  0.00    -0.314 N 
ATOM     28  H   UNL     1       6.284  -2.542  -0.072  0.00  0.00    +0.149 HD
BRANCH  27  29
ATOM     29  C   UNL     1       6.243  -4.770  -0.083  0.00  0.00    +0.109 C 
BRANCH  29  30
ATOM     30  C   UNL     1       7.768  -4.643  -0.097  0.00  0.00    +0.054 C 
BRANCH  30  31
ATOM     31  C   UNL     1       8.386  -6.017  -0.110  0.00  0.00    -0.046 A 
ATOM     32  C   UNL     1       8.687  -6.651   1.081  0.00  0.00    +0.005 A 
ATOM     33  C   UNL     1       9.249  -7.913   1.069  0.00  0.00    +0.020 A 
ATOM     34  C   UNL     1       9.522  -8.538  -0.135  0.00  0.00    +0.041 A 
ATOM     35  C   UNL     1       9.226  -7.901  -1.327  0.00  0.00    +0.020 A 
ATOM     36  C   UNL     1       8.659  -6.641  -1.314  0.00  0.00    +0.005 A 
ATOM     37 CL   UNL     1      10.234 -10.121  -0.150  0.00  0.00    -0.084 Cl
ENDBRANCH  30  31
ENDBRANCH  29  30
ENDBRANCH  27  29
ENDBRANCH  24  25
ENDBRANCH  23  24
ENDBRANCH   5  23
TORSDOF 10
