REMARK  Name = ZINC04872891
REMARK  7 active torsions:
REMARK  status: ('A' for Active; 'I' for Inactive)
REMARK    1  A    between atoms: C_1  and  C_2
REMARK    2  A    between atoms: C_2  and  C_3
REMARK    3  A    between atoms: C_3  and  C_5
REMARK    4  A    between atoms: C_3  and  N_6
REMARK    5  A    between atoms: C_7  and  N_8
REMARK    6  A    between atoms: C_9  and  C_22
REMARK    7  A    between atoms: N_24  and  C_25
REMARK                            x       y       z     vdW  Elec       q    Type
REMARK                         _______ _______ _______ _____ _____    ______ ____
ROOT
ATOM      1  N   UNL     1      -0.681   1.708   1.183  0.00  0.00    -0.310 N 
ATOM      2  C   UNL     1      -0.906   3.025   1.523  0.00  0.00    +0.110 A 
ATOM      3  C   UNL     1      -1.621   3.345   2.768  0.00  0.00    +0.075 A 
ATOM      4  C   UNL     1      -2.049   2.307   3.584  0.00  0.00    +0.033 A 
ATOM      5  C   UNL     1      -1.796   0.981   3.204  0.00  0.00    +0.083 A 
ATOM      6  C   UNL     1      -1.110   0.693   2.002  0.00  0.00    +0.150 A 
ATOM      7  N   UNL     1      -0.885  -0.572   1.670  0.00  0.00    -0.211 NA
ATOM      8  C   UNL     1      -1.289  -1.581   2.442  0.00  0.00    +0.143 A 
ATOM      9  C   UNL     1      -1.021  -2.901   2.035  0.00  0.00    +0.047 A 
ATOM     10  C   UNL     1      -1.428  -3.941   2.817  0.00  0.00    +0.005 A 
ATOM     11  C   UNL     1      -2.109  -3.682   4.014  0.00  0.00    +0.018 A 
ATOM     12  C   UNL     1      -2.360  -2.407   4.389  0.00  0.00    +0.096 A 
ATOM     13  N   UNL     1      -1.956  -1.360   3.615  0.00  0.00    -0.268 N 
ATOM     14  C   UNL     1      -2.222  -0.099   4.020  0.00  0.00    +0.268 A 
ATOM     15  O   UNL     1      -2.815   0.107   5.064  0.00  0.00    -0.267 OA
ENDROOT
BRANCH   3  16
ATOM     16  C   UNL     1      -1.875   4.740   3.144  0.00  0.00    +0.247 C 
ATOM     17  O   UNL     1      -1.406   5.644   2.477  0.00  0.00    -0.270 OA
ATOM     18  N   UNL     1      -2.626   5.020   4.227  0.00  0.00    -0.314 N 
ATOM     19  C   UNL     1      -2.878   6.414   4.602  0.00  0.00    +0.128 C 
ATOM     20  H   UNL     1      -3.049   4.203   4.830  0.00  0.00    +0.149 HD
ENDBRANCH   3  16
BRANCH   2  21
ATOM     21  N   UNL     1      -0.488   3.987   0.739  0.00  0.00    -0.344 N 
ATOM     22  H   UNL     1      -0.669   5.037   1.013  0.00  0.00    +0.144 HD
ATOM     23  H   UNL     1       0.043   3.745  -0.193  0.00  0.00    +0.144 HD
ENDBRANCH   2  21
BRANCH   1  24
ATOM     24  C   UNL     1       0.027   1.390  -0.059  0.00  0.00    +0.087 C 
ATOM     25  C   UNL     1      -0.754   1.949  -1.250  0.00  0.00    +0.031 C 
BRANCH  24  27
ATOM     26  C   UNL     1       2.207   1.580  -1.266  0.00  0.00    +0.006 C 
ATOM     27  C   UNL     1       1.423   2.015  -0.026  0.00  0.00    +0.021 C 
ENDBRANCH  24  27
ENDBRANCH   1  24
TORSDOF 4
