REMARK  Name = ZINC36071680
REMARK  18 active torsions:
REMARK  status: ('A' for Active; 'I' for Inactive)
REMARK    1  A    between atoms: C_1  and  C_2
REMARK    2  A    between atoms: C_3  and  C_31
REMARK    3  A    between atoms: C_4  and  C_21
REMARK    4  A    between atoms: C_7  and  C_12
REMARK    5  A    between atoms: C_13  and  N_15
REMARK    6  A    between atoms: N_15  and  C_16
REMARK    7  A    between atoms: C_16  and  C_17
REMARK    8  A    between atoms: C_17  and  N_18
REMARK    9  A    between atoms: N_18  and  C_19
REMARK   10  A    between atoms: N_18  and  C_20
REMARK   11  A    between atoms: C_24  and  O_29
REMARK   12  A    between atoms: C_26  and  O_27
REMARK   13  A    between atoms: O_27  and  C_28
REMARK   14  A    between atoms: O_29  and  C_30
REMARK   15  A    between atoms: C_31  and  O_33
REMARK   16  A    between atoms: O_33  and  C_34
REMARK   17  A    between atoms: C_34  and  C_35
REMARK   18  A    between atoms: C_34  and  C_36
REMARK                            x       y       z     vdW  Elec       q    Type
REMARK                         _______ _______ _______ _____ _____    ______ ____
ROOT
ATOM      1  C   UNL     1      -0.631   2.210   0.474  0.00  0.00    +0.066 C 
ATOM      2  C   UNL     1      -0.448   0.715   0.507  0.00  0.00    +0.053 C 
ATOM      3  C   UNL     1      -1.540  -0.115   0.338  0.00  0.00    +0.083 C 
ATOM      4  C   UNL     1      -1.304  -1.608   0.379  0.00  0.00    +0.153 C 
ATOM      5  N   UNL     1       0.093  -2.067   0.599  0.00  0.00    -0.267 N 
ATOM      6  C   UNL     1       0.538  -3.372   0.672  0.00  0.00    +0.048 C 
ATOM      7  C   UNL     1       1.858  -3.574   0.878  0.00  0.00    +0.072 C 
ATOM      8  S   UNL     1       2.476  -1.906   0.971  0.00  0.00    -0.060 S 
ATOM      9  C   UNL     1       1.031  -1.083   0.743  0.00  0.00    +0.166 C 
ATOM     10  N   UNL     1       0.759   0.205   0.692  0.00  0.00    -0.230 NA
ENDROOT
BRANCH   4  11
ATOM     11  C   UNL     1      -2.159  -2.183   1.479  0.00  0.00    +0.020 A 
ATOM     12  C   UNL     1      -3.296  -2.903   1.165  0.00  0.00    +0.013 A 
ATOM     13  C   UNL     1      -4.082  -3.431   2.171  0.00  0.00    +0.046 A 
ATOM     14  C   UNL     1      -3.731  -3.239   3.501  0.00  0.00    +0.124 A 
ATOM     15  C   UNL     1      -2.591  -2.517   3.818  0.00  0.00    +0.091 A 
ATOM     16  C   UNL     1      -1.801  -1.993   2.806  0.00  0.00    +0.129 A 
BRANCH  16  17
ATOM     17  O   UNL     1      -0.679  -1.290   3.114  0.00  0.00    -0.495 OA
ATOM     18  C   UNL     1      -0.313  -1.224   4.494  0.00  0.00    +0.277 C 
ENDBRANCH  16  17
BRANCH  14  19
ATOM     19  O   UNL     1      -4.504  -3.759   4.490  0.00  0.00    -0.495 OA
ATOM     20  C   UNL     1      -5.664  -4.491   4.090  0.00  0.00    +0.277 C 
ENDBRANCH  14  19
ENDBRANCH   4  11
BRANCH   6  21
ATOM     21  C   UNL     1      -0.392  -4.502   0.529  0.00  0.00    +0.091 C 
ATOM     22  C   UNL     1       0.040  -5.760   0.741  0.00  0.00    +0.239 C 
ATOM     23  O   UNL     1       1.354  -5.995   0.975  0.00  0.00    -0.271 OA
BRANCH  22  24
ATOM     24  N   UNL     1      -0.859  -6.813   0.719  0.00  0.00    -0.314 N 
ATOM     25  H   UNL     1      -1.786  -6.655   0.479  0.00  0.00    +0.149 HD
BRANCH  24  26
ATOM     26  C   UNL     1      -0.411  -8.166   1.058  0.00  0.00    +0.086 C 
BRANCH  26  27
ATOM     27  C   UNL     1      -1.558  -9.154   0.838  0.00  0.00    -0.061 C 
BRANCH  27  28
ATOM     28  N   UNL     1      -1.150 -10.488   1.296  0.00  0.00    +0.377 N 
ATOM     29  C   UNL     1      -2.294 -11.406   1.212  0.00  0.00    -0.097 C 
ATOM     30  C   UNL     1      -0.060 -10.986   0.446  0.00  0.00    -0.097 C 
ATOM     31  H   UNL     1      -0.833 -10.433   2.252  0.00  0.00    -0.083 HD
ENDBRANCH  27  28
ENDBRANCH  26  27
ENDBRANCH  24  26
ENDBRANCH  22  24
ENDBRANCH   6  21
BRANCH   3  32
ATOM     32  C   UNL     1      -2.822   0.410   0.137  0.00  0.00    +0.339 C 
ATOM     33  O   UNL     1      -3.008   1.612   0.214  0.00  0.00    -0.245 OA
BRANCH  32  34
ATOM     34  O   UNL     1      -3.854  -0.416  -0.144  0.00  0.00    -0.459 OA
BRANCH  34  35
ATOM     35  C   UNL     1      -5.153   0.173  -0.228  0.00  0.00    +0.171 C 
ATOM     36  C   UNL     1      -6.047  -0.688  -1.123  0.00  0.00    +0.052 C 
ATOM     37  C   UNL     1      -5.765   0.260   1.172  0.00  0.00    +0.052 C 
ENDBRANCH  34  35
ENDBRANCH  32  34
ENDBRANCH   3  32
TORSDOF 11
