REMARK  Name = ZINC12429500
REMARK  6 active torsions:
REMARK  status: ('A' for Active; 'I' for Inactive)
REMARK    1  A    between atoms: C_10  and  C_11
REMARK    2  A    between atoms: C_11  and  N_58
REMARK    3  A    between atoms: C_17  and  C_19
REMARK    4  A    between atoms: C_19  and  C_20
REMARK    5  A    between atoms: N_22  and  C_23
REMARK    6  A    between atoms: C_23  and  C_24
REMARK                            x       y       z     vdW  Elec       q    Type
REMARK                         _______ _______ _______ _____ _____    ______ ____
ROOT
ATOM      1  C   UNL     1       2.901   1.668  -1.684  0.00  0.00    -0.058 C 
ATOM      2  C   UNL     1       2.990   1.404  -3.188  0.00  0.00    +0.085 C 
ATOM      3  N   UNL     1       4.370   1.111  -3.563  0.00  0.00    -0.318 N 
ATOM      4  C   UNL     1       5.416   1.424  -2.791  0.00  0.00    +0.200 C 
ATOM      5  O   UNL     1       6.532   1.173  -3.193  0.00  0.00    -0.278 OA
ATOM      6  C   UNL     1       5.266   2.074  -1.444  0.00  0.00    +0.028 C 
ATOM      7  H   UNL     1       4.536   0.670  -4.411  0.00  0.00    +0.149 HD
ATOM      8  N   UNL     1       3.923   2.675  -1.335  0.00  0.00    +0.391 N 
ATOM      9  H   UNL     1       3.854   3.464  -1.988  0.00  0.00    -0.080 HD
ENDROOT
BRANCH   8  10
ATOM     10  C   UNL     1       3.700   3.169   0.043  0.00  0.00    -0.041 C 
BRANCH  10  20
ATOM     11  C   UNL     1      -1.154   1.796   0.909  0.00  0.00    +0.001 A 
ATOM     12  C   UNL     1       0.064   1.119   0.866  0.00  0.00    +0.001 A 
ATOM     13  C   UNL     1       1.224   1.780   0.603  0.00  0.00    +0.009 A 
ATOM     14  C   UNL     1       1.198   3.167   0.374  0.00  0.00    -0.017 A 
ATOM     15  C   UNL     1      -0.040   3.856   0.423  0.00  0.00    -0.018 A 
ATOM     16  C   UNL     1      -1.217   3.139   0.699  0.00  0.00    +0.008 A 
ATOM     17  C   UNL     1      -0.066   5.242   0.196  0.00  0.00    +0.008 A 
ATOM     18  C   UNL     1       1.094   5.903  -0.068  0.00  0.00    +0.001 A 
ATOM     19  C   UNL     1       2.311   5.226  -0.115  0.00  0.00    +0.002 A 
ATOM     20  C   UNL     1       2.374   3.883   0.099  0.00  0.00    -0.056 A 
ENDBRANCH  10  20
ENDBRANCH   8  10
BRANCH   6  21
ATOM     21  C   UNL     1       6.317   3.175  -1.292  0.00  0.00    +0.089 C 
BRANCH  21  22
ATOM     22  C   UNL     1       6.068   4.253  -2.315  0.00  0.00    +0.212 C 
ATOM     23  O   UNL     1       5.198   4.109  -3.148  0.00  0.00    -0.276 OA
ATOM     24  N   UNL     1       6.812   5.377  -2.305  0.00  0.00    -0.315 N 
ATOM     25  H   UNL     1       7.508   5.492  -1.639  0.00  0.00    +0.149 HD
BRANCH  24  26
ATOM     26  C   UNL     1       6.570   6.425  -3.300  0.00  0.00    +0.107 C 
BRANCH  26  27
ATOM     27  C   UNL     1       7.542   7.583  -3.068  0.00  0.00    +0.010 C 
ATOM     28  C   UNL     1       7.245   8.238  -1.716  0.00  0.00    +0.033 C 
ATOM     29  C   UNL     1       8.169   9.445  -1.529  0.00  0.00    +0.160 C 
ATOM     30  O   UNL     1       7.983  10.360  -2.611  0.00  0.00    -0.380 OA
ATOM     31  C   UNL     1       8.292   9.815  -3.896  0.00  0.00    +0.160 C 
ATOM     32  C   UNL     1       7.372   8.624  -4.178  0.00  0.00    +0.033 C 
ENDBRANCH  26  27
ENDBRANCH  24  26
ENDBRANCH  21  22
ENDBRANCH   6  21
TORSDOF 6
