REMARK  Name = ZINC20751769
REMARK  2 active torsions:
REMARK  status: ('A' for Active; 'I' for Inactive)
REMARK    1  A    between atoms: C_9  and  O_29
REMARK    2  A    between atoms: C_10  and  C_11
REMARK                            x       y       z     vdW  Elec       q    Type
REMARK                         _______ _______ _______ _____ _____    ______ ____
ROOT
ATOM      1  C   UNL     1      -2.618   3.823   0.048  0.00  0.00    +0.109 C 
ATOM      2  C   UNL     1      -3.286   3.698  -1.306  0.00  0.00    +0.029 C 
ATOM      3  C   UNL     1      -2.603   4.359  -2.509  0.00  0.00    +0.033 C 
ATOM      4  C   UNL     1      -3.804   4.691  -3.397  0.00  0.00    -0.030 C 
ATOM      5  C   UNL     1      -4.893   4.837  -2.650  0.00  0.00    -0.023 C 
ATOM      6  C   UNL     1      -4.516   4.656  -1.227  0.00  0.00    +0.049 C 
ATOM      7  C   UNL     1      -5.438   4.082  -0.223  0.00  0.00    -0.018 A 
ATOM      8  C   UNL     1      -6.806   4.221  -0.332  0.00  0.00    +0.007 A 
ATOM      9  C   UNL     1      -7.645   3.694   0.632  0.00  0.00    +0.022 A 
ATOM     10  C   UNL     1      -7.105   3.022   1.715  0.00  0.00    +0.061 A 
ATOM     11  C   UNL     1      -5.739   2.872   1.828  0.00  0.00    +0.080 A 
ATOM     12  C   UNL     1      -4.880   3.394   0.858  0.00  0.00    +0.051 A 
ATOM     13  N   UNL     1      -3.512   3.191   1.031  0.00  0.00    -0.335 N 
ATOM     14 CL   UNL     1      -5.078   2.025   3.191  0.00  0.00    -0.080 Cl
ATOM     15 CL   UNL     1      -8.151   2.365   2.935  0.00  0.00    -0.082 Cl
ATOM     16  H   UNL     1      -3.090   2.592   1.852  0.00  0.00    +0.147 HD
ENDROOT
BRANCH   1  26
ATOM     17  C   UNL     1       2.291   5.269   0.007  0.00  0.00    +0.001 A 
ATOM     18  C   UNL     1       1.070   5.941   0.023  0.00  0.00    +0.001 A 
ATOM     19  C   UNL     1      -0.106   5.258   0.031  0.00  0.00    +0.009 A 
ATOM     20  C   UNL     1      -0.094   3.852   0.024  0.00  0.00    -0.009 A 
ATOM     21  C   UNL     1       1.147   3.168   0.008  0.00  0.00    -0.017 A 
ATOM     22  C   UNL     1       2.342   3.909   0.000  0.00  0.00    +0.008 A 
ATOM     23  C   UNL     1       1.162   1.762   0.000  0.00  0.00    +0.012 A 
ATOM     24  C   UNL     1      -0.013   1.076   0.008  0.00  0.00    +0.046 A 
ATOM     25  C   UNL     1      -1.238   1.748   0.018  0.00  0.00    +0.122 A 
ATOM     26  C   UNL     1      -1.288   3.113   0.031  0.00  0.00    +0.022 A 
BRANCH  25  27
ATOM     27  O   UNL     1      -2.395   1.035   0.019  0.00  0.00    -0.506 OA
ATOM     28  H   UNL     1      -3.363   1.557   0.026  0.00  0.00    +0.292 HD
ENDBRANCH  25  27
ENDBRANCH   1  26
TORSDOF 2
