REMARK  Name = ZINC09797529
REMARK  8 active torsions:
REMARK  status: ('A' for Active; 'I' for Inactive)
REMARK    1  A    between atoms: C_7  and  C_11
REMARK    2  A    between atoms: C_11  and  C_12
REMARK    3  A    between atoms: C_12  and  C_13
REMARK    4  A    between atoms: C_13  and  C_14
REMARK    5  A    between atoms: N_16  and  C_17
REMARK    6  A    between atoms: C_20  and  N_23
REMARK    7  A    between atoms: N_23  and  S_24
REMARK    8  A    between atoms: S_24  and  C_27
REMARK                            x       y       z     vdW  Elec       q    Type
REMARK                         _______ _______ _______ _____ _____    ______ ____
ROOT
ATOM      1  C   UNL     1       4.929   1.959  -4.275  0.00  0.00    +0.033 A 
ATOM      2  C   UNL     1       5.776   0.858  -4.254  0.00  0.00    +0.025 A 
ATOM      3  C   UNL     1       5.551  -0.169  -3.359  0.00  0.00    +0.026 A 
ATOM      4  C   UNL     1       4.478  -0.101  -2.480  0.00  0.00    +0.048 A 
ATOM      5  C   UNL     1       3.628   0.997  -2.505  0.00  0.00    +0.026 A 
ATOM      6  C   UNL     1       3.857   2.026  -3.396  0.00  0.00    +0.025 A 
ENDROOT
BRANCH   1   9
ATOM      7  C   UNL     1       5.675   2.735  -6.399  0.00  0.00    +0.217 C 
ATOM      8  O   UNL     1       5.855   1.585  -6.743  0.00  0.00    -0.275 OA
ATOM      9  N   UNL     1       5.158   3.001  -5.184  0.00  0.00    -0.285 N 
ATOM     10  H   UNL     1       4.944   3.915  -4.937  0.00  0.00    +0.155 HD
BRANCH   7  11
ATOM     11  C   UNL     1       6.030   3.864  -7.331  0.00  0.00    +0.096 C 
BRANCH  11  12
ATOM     12  C   UNL     1       6.593   3.293  -8.634  0.00  0.00    +0.014 C 
BRANCH  12  13
ATOM     13  C   UNL     1       6.953   4.440  -9.581  0.00  0.00    +0.038 C 
BRANCH  13  20
ATOM     14  C   UNL     1       4.958   2.866 -13.520  0.00  0.00    +0.001 A 
ATOM     15  C   UNL     1       5.884   2.433 -14.459  0.00  0.00    +0.002 A 
ATOM     16  C   UNL     1       7.234   2.489 -14.193  0.00  0.00    +0.026 A 
ATOM     17  C   UNL     1       7.677   2.984 -12.970  0.00  0.00    +0.047 A 
ATOM     18  C   UNL     1       6.735   3.422 -12.022  0.00  0.00    +0.003 A 
ATOM     19  C   UNL     1       5.371   3.356 -12.313  0.00  0.00    +0.010 A 
ATOM     20  C   UNL     1       7.508   3.877 -10.864  0.00  0.00    -0.022 A 
ATOM     21  C   UNL     1       8.805   3.703 -11.164  0.00  0.00    +0.087 A 
ATOM     22  N   UNL     1       8.925   3.165 -12.417  0.00  0.00    -0.360 N 
ATOM     23  H   UNL     1       9.764   2.948 -12.852  0.00  0.00    +0.165 HD
ENDBRANCH  13  20
ENDBRANCH  12  13
ENDBRANCH  11  12
ENDBRANCH   7  11
ENDBRANCH   1   9
BRANCH   4  24
ATOM     24  N   UNL     1       4.250  -1.142  -1.573  0.00  0.00    -0.216 N 
ATOM     25  H   UNL     1       3.519  -1.762  -1.721  0.00  0.00    +0.174 HD
BRANCH  24  26
ATOM     26  S   UNL     1       5.228  -1.315  -0.248  0.00  0.00    +0.072 S 
ATOM     27  O   UNL     1       6.566  -1.307  -0.728  0.00  0.00    -0.150 OA
ATOM     28  O   UNL     1       4.697  -2.393   0.510  0.00  0.00    -0.150 OA
BRANCH  26  29
ATOM     29  C   UNL     1       5.037   0.135   0.734  0.00  0.00    +0.112 A 
ATOM     30  C   UNL     1       3.993   0.225   1.636  0.00  0.00    +0.032 A 
ATOM     31  C   UNL     1       3.838   1.361   2.407  0.00  0.00    +0.051 A 
ATOM     32  C   UNL     1       4.731   2.415   2.278  0.00  0.00    +0.162 A 
ATOM     33  C   UNL     1       5.781   2.324   1.373  0.00  0.00    +0.164 A 
ATOM     34  C   UNL     1       5.930   1.181   0.601  0.00  0.00    +0.078 A 
ATOM     35  O   UNL     1       6.673   3.343   1.236  0.00  0.00    -0.485 OA
ATOM     36  C   UNL     1       6.277   4.618   1.753  0.00  0.00    +0.270 C 
ATOM     37  C   UNL     1       5.688   4.407   3.154  0.00  0.00    +0.270 C 
ATOM     38  O   UNL     1       4.561   3.531   3.038  0.00  0.00    -0.485 OA
ENDBRANCH  26  29
ENDBRANCH  24  26
ENDBRANCH   4  24
TORSDOF 8
