REMARK  Name = ZINC15277516
REMARK  7 active torsions:
REMARK  status: ('A' for Active; 'I' for Inactive)
REMARK    1  A    between atoms: C_1  and  C_2
REMARK    2  A    between atoms: C_2  and  C_3
REMARK    3  A    between atoms: C_8  and  N_9
REMARK    4  A    between atoms: C_12  and  C_17
REMARK    5  A    between atoms: C_17  and  S_18
REMARK    6  A    between atoms: S_18  and  C_19
REMARK    7  A    between atoms: C_32  and  C_36
REMARK                            x       y       z     vdW  Elec       q    Type
REMARK                         _______ _______ _______ _____ _____    ______ ____
ROOT
ATOM      1  C   UNL     1      -3.758  -1.686   0.068  0.00  0.00    +0.153 C 
ENDROOT
BRANCH   1   5
ATOM      2  N   UNL     1      -7.776  -2.969  -2.219  0.00  0.00    -0.283 N 
ATOM      3  C   UNL     1      -7.148  -2.585  -1.051  0.00  0.00    +0.224 A 
ATOM      4  N   UNL     1      -5.841  -2.330  -1.049  0.00  0.00    -0.198 NA
ATOM      5  C   UNL     1      -5.238  -1.968   0.070  0.00  0.00    +0.146 A 
ATOM      6  N   UNL     1      -5.931  -1.848   1.189  0.00  0.00    -0.199 NA
ATOM      7  C   UNL     1      -7.238  -2.097   1.194  0.00  0.00    +0.217 A 
ATOM      8  N   UNL     1      -7.847  -2.466   0.072  0.00  0.00    -0.181 NA
ATOM      9  N   UNL     1      -7.960  -1.972   2.364  0.00  0.00    -0.327 N 
ATOM     10  H   UNL     1      -7.284  -2.975  -3.055  0.00  0.00    +0.155 HD
ATOM     11  H   UNL     1      -7.515  -1.703   3.182  0.00  0.00    +0.145 HD
ATOM     12  H   UNL     1      -8.913  -2.153   2.367  0.00  0.00    +0.145 HD
BRANCH   2  18
ATOM     13  C   UNL     1      -9.932  -3.103  -3.299  0.00  0.00    -0.026 A 
ATOM     14  C   UNL     1     -11.261  -3.479  -3.275  0.00  0.00    +0.005 A 
ATOM     15  C   UNL     1     -11.785  -4.099  -2.155  0.00  0.00    +0.000 A 
ATOM     16  C   UNL     1     -10.981  -4.345  -1.057  0.00  0.00    +0.002 A 
ATOM     17  C   UNL     1      -9.650  -3.975  -1.077  0.00  0.00    +0.023 A 
ATOM     18  C   UNL     1      -9.122  -3.348  -2.198  0.00  0.00    +0.037 A 
BRANCH  13  20
ATOM     19  C   UNL     1      -8.703  -3.474  -5.421  0.00  0.00    +0.009 C 
ATOM     20  C   UNL     1      -9.361  -2.428  -4.519  0.00  0.00    +0.033 C 
ENDBRANCH  13  20
ENDBRANCH   2  18
ENDBRANCH   1   5
BRANCH   1  21
ATOM     21  S   UNL     1      -2.853  -3.210   0.436  0.00  0.00    -0.079 S 
BRANCH  21  22
ATOM     22  C   UNL     1      -1.198  -2.606   0.371  0.00  0.00    +0.178 A 
ATOM     23  N   UNL     1      -1.006  -1.339   0.103  0.00  0.00    -0.223 NA
ATOM     24  C   UNL     1       0.238  -0.810   0.039  0.00  0.00    +0.079 A 
ATOM     25  C   UNL     1       0.446   0.543  -0.248  0.00  0.00    +0.028 A 
ATOM     26  C   UNL     1       1.720   1.034  -0.303  0.00  0.00    +0.002 A 
ATOM     27  C   UNL     1       2.815   0.210  -0.078  0.00  0.00    +0.001 A 
ATOM     28  C   UNL     1       2.644  -1.118   0.203  0.00  0.00    +0.015 A 
ATOM     29  C   UNL     1       1.355  -1.646   0.266  0.00  0.00    +0.065 A 
ATOM     30  C   UNL     1       1.112  -3.064   0.565  0.00  0.00    +0.268 A 
ATOM     31  O   UNL     1       2.033  -3.833   0.770  0.00  0.00    -0.267 OA
ATOM     32  N   UNL     1      -0.174  -3.483   0.604  0.00  0.00    -0.239 N 
ATOM     33  C   UNL     1      -0.458  -4.822   0.884  0.00  0.00    +0.142 A 
ATOM     34  C   UNL     1      -0.550  -5.244   2.205  0.00  0.00    +0.050 A 
ATOM     35  C   UNL     1      -0.837  -6.572   2.469  0.00  0.00    -0.046 A 
ATOM     36  C   UNL     1      -1.012  -7.437   1.397  0.00  0.00    +0.023 A 
ATOM     37  C   UNL     1      -0.901  -6.949   0.110  0.00  0.00    +0.113 A 
ATOM     38  N   UNL     1      -0.632  -5.677  -0.110  0.00  0.00    -0.237 NA
ATOM     39  C   UNL     1      -0.951  -7.069   3.887  0.00  0.00    +0.044 C 
ENDBRANCH  21  22
ENDBRANCH   1  21
TORSDOF 5
