REMARK  Name = ZINC49181565
REMARK  9 active torsions:
REMARK  status: ('A' for Active; 'I' for Inactive)
REMARK    1  A    between atoms: C_1  and  C_2
REMARK    2  A    between atoms: C_2  and  C_33
REMARK    3  A    between atoms: C_3  and  C_4
REMARK    4  A    between atoms: C_4  and  O_5
REMARK    5  A    between atoms: O_5  and  C_6
REMARK    6  A    between atoms: C_14  and  O_26
REMARK    7  A    between atoms: C_18  and  O_25
REMARK    8  A    between atoms: C_28  and  C_31
REMARK    9  A    between atoms: C_28  and  C_32
REMARK                            x       y       z     vdW  Elec       q    Type
REMARK                         _______ _______ _______ _____ _____    ______ ____
ROOT
ATOM      1  C   UNL     1       4.648  -0.030   0.733  0.00  0.00    +0.146 A 
ATOM      2  C   UNL     1       5.629  -0.322  -0.211  0.00  0.00    +0.059 A 
ATOM      3  C   UNL     1       6.908   0.249  -0.100  0.00  0.00    +0.136 A 
ATOM      4  C   UNL     1       7.212   1.085   0.961  0.00  0.00    +0.093 A 
ATOM      5  C   UNL     1       6.251   1.380   1.917  0.00  0.00    +0.143 A 
ATOM      6  C   UNL     1       4.951   0.855   1.778  0.00  0.00    +0.105 A 
ATOM      7  C   UNL     1       3.923   1.273   2.731  0.00  0.00    +0.214 C 
ATOM      8  O   UNL     1       2.760   0.985   2.542  0.00  0.00    -0.288 OA
ATOM      9  C   UNL     1       4.316   2.058   3.939  0.00  0.00    +0.231 C 
ATOM     10  C   UNL     1       4.739   1.225   5.106  0.00  0.00    +0.041 A 
ATOM     11  C   UNL     1       4.261   0.032   5.603  0.00  0.00    +0.014 A 
ATOM     12  C   UNL     1       4.891  -0.485   6.728  0.00  0.00    +0.046 A 
ATOM     13  C   UNL     1       5.955   0.174   7.322  0.00  0.00    +0.120 A 
ATOM     14  C   UNL     1       6.442   1.378   6.824  0.00  0.00    +0.091 A 
ATOM     15  C   UNL     1       5.817   1.904   5.696  0.00  0.00    +0.135 A 
ATOM     16  O   UNL     1       6.097   3.047   5.030  0.00  0.00    -0.450 OA
ATOM     17  C   UNL     1       5.577   2.914   3.675  0.00  0.00    +0.408 C 
ATOM     18  O   UNL     1       6.564   2.159   2.968  0.00  0.00    -0.449 OA
ATOM     19  O   UNL     1       7.833  -0.040  -1.050  0.00  0.00    -0.481 OA
ATOM     20  C   UNL     1       7.801  -1.352  -1.612  0.00  0.00    +0.124 C 
ATOM     21  C   UNL     1       6.399  -1.720  -2.018  0.00  0.00    +0.020 C 
ATOM     22  C   UNL     1       5.359  -1.232  -1.344  0.00  0.00    +0.015 C 
ATOM     23  C   UNL     1       8.306  -2.357  -0.575  0.00  0.00    +0.060 C 
ATOM     24  C   UNL     1       8.711  -1.397  -2.841  0.00  0.00    +0.060 C 
ENDROOT
BRANCH  13  25
ATOM     25  O   UNL     1       6.539  -0.371   8.421  0.00  0.00    -0.507 OA
ATOM     26  H   UNL     1       7.270  -0.971   8.222  0.00  0.00    +0.292 HD
ENDBRANCH  13  25
BRANCH   9  27
ATOM     27  O   UNL     1       3.235   2.905   4.334  0.00  0.00    -0.370 OA
ATOM     28  H   UNL     1       2.420   2.430   4.546  0.00  0.00    +0.211 HD
ENDBRANCH   9  27
BRANCH   1  29
ATOM     29  O   UNL     1       3.416  -0.588   0.640  0.00  0.00    -0.486 OA
BRANCH  29  30
ATOM     30  C   UNL     1       2.437   0.124  -0.120  0.00  0.00    +0.256 C 
BRANCH  30  33
ATOM     31  C   UNL     1      -0.010   1.489   0.195  0.00  0.00    +0.038 C 
ATOM     32  C   UNL     1       0.009  -0.015   0.093  0.00  0.00    -0.076 C 
ATOM     33  C   UNL     1       1.140  -0.643  -0.111  0.00  0.00    +0.012 C 
ATOM     34  C   UNL     1      -1.274  -0.795   0.225  0.00  0.00    +0.038 C 
ENDBRANCH  30  33
ENDBRANCH  29  30
ENDBRANCH   1  29
TORSDOF 5
