REMARK  Name = ZINC56940931
REMARK  7 active torsions:
REMARK  status: ('A' for Active; 'I' for Inactive)
REMARK    1  A    between atoms: C_1  and  C_2
REMARK    2  A    between atoms: N_12  and  C_13
REMARK    3  A    between atoms: C_13  and  C_15
REMARK    4  A    between atoms: N_17  and  C_18
REMARK    5  A    between atoms: C_18  and  C_19
REMARK    6  A    between atoms: C_19  and  C_21
REMARK    7  A    between atoms: C_19  and  N_26
REMARK                            x       y       z     vdW  Elec       q    Type
REMARK                         _______ _______ _______ _____ _____    ______ ____
ROOT
ATOM      1  C   UNL     1      -0.383  -2.605  -4.827  0.00  0.00    +0.301 C 
ATOM      2  O   UNL     1      -0.331  -3.816  -4.900  0.00  0.00    -0.265 OA
ATOM      3  N   UNL     1      -0.399  -1.862  -5.951  0.00  0.00    -0.309 N 
ATOM      4  H   UNL     1      -0.441  -0.894  -5.893  0.00  0.00    +0.149 HD
ENDROOT
BRANCH   1   5
ATOM      5  C   UNL     1      -0.429  -1.940  -3.493  0.00  0.00    +0.323 C 
ATOM      6  O   UNL     1      -0.481  -0.725  -3.419  0.00  0.00    -0.263 OA
BRANCH   5  18
ATOM      7  C   UNL     1       3.490  -0.202  -0.880  0.00  0.00    +0.063 C 
ATOM      8  C   UNL     1       2.413  -1.229  -0.640  0.00  0.00    +0.015 A 
ATOM      9  C   UNL     1       1.511  -1.467  -1.621  0.00  0.00    +0.046 A 
ATOM     10  C   UNL     1       0.492  -2.421  -1.428  0.00  0.00    +0.068 A 
ATOM     11  C   UNL     1       0.454  -3.132  -0.140  0.00  0.00    +0.021 A 
ATOM     12  C   UNL     1      -0.520  -4.093   0.136  0.00  0.00    +0.012 A 
ATOM     13  C   UNL     1      -0.518  -4.729   1.345  0.00  0.00    +0.001 A 
ATOM     14  C   UNL     1       0.443  -4.428   2.300  0.00  0.00    +0.002 A 
ATOM     15  C   UNL     1       1.414  -3.484   2.050  0.00  0.00    +0.026 A 
ATOM     16  C   UNL     1       1.432  -2.822   0.824  0.00  0.00    +0.048 A 
ATOM     17  N   UNL     1       2.390  -1.878   0.539  0.00  0.00    -0.358 N 
ATOM     18  N   UNL     1      -0.413  -2.673  -2.384  0.00  0.00    -0.172 NA
ATOM     19  H   UNL     1       3.063  -1.671   1.206  0.00  0.00    +0.166 HD
ENDBRANCH   5  18
ENDBRANCH   1   5
BRANCH   3  20
ATOM     20  C   UNL     1      -0.354  -2.515  -7.262  0.00  0.00    +0.094 C 
BRANCH  20  21
ATOM     21  C   UNL     1      -0.253  -1.452  -8.358  0.00  0.00    -0.020 C 
BRANCH  21  22
ATOM     22  N   UNL     1      -0.342  -2.097  -9.675  0.00  0.00    +0.385 N 
ATOM     23  C   UNL     1      -1.695  -2.677  -9.871  0.00  0.00    -0.078 C 
ATOM     24  C   UNL     1      -1.813  -2.789 -11.412  0.00  0.00    -0.020 C 
ATOM     25  C   UNL     1      -1.096  -1.512 -11.907  0.00  0.00    -0.020 C 
ATOM     26  C   UNL     1      -0.174  -1.092 -10.747  0.00  0.00    -0.078 C 
ATOM     27  H   UNL     1       0.361  -2.816  -9.759  0.00  0.00    -0.081 HD
ENDBRANCH  21  22
BRANCH  21  28
ATOM     28  C   UNL     1       1.065  -0.731  -8.239  0.00  0.00    -0.052 A 
ATOM     29  C   UNL     1       1.135   0.505  -7.626  0.00  0.00    +0.009 A 
ATOM     30  C   UNL     1       2.337   1.127  -7.535  0.00  0.00    +0.045 A 
ATOM     31  S   UNL     1       3.420  -0.047  -8.333  0.00  0.00    -0.105 S 
ATOM     32  C   UNL     1       2.200  -1.288  -8.727  0.00  0.00    +0.047 A 
ENDBRANCH  21  28
ENDBRANCH  20  21
ENDBRANCH   3  20
TORSDOF 6
