REMARK  Name = ZINC02722845
REMARK  5 active torsions:
REMARK  status: ('A' for Active; 'I' for Inactive)
REMARK    1  A    between atoms: C_1  and  C_2
REMARK    2  A    between atoms: C_5  and  N_12
REMARK    3  A    between atoms: C_8  and  C_10
REMARK    4  A    between atoms: C_8  and  C_11
REMARK    5  A    between atoms: C_13  and  C_15
REMARK                            x       y       z     vdW  Elec       q    Type
REMARK                         _______ _______ _______ _____ _____    ______ ____
ROOT
ATOM      1  C   UNL     1       3.859  -4.653  -0.059  0.00  0.00    +0.077 A 
ATOM      2  C   UNL     1       2.593  -4.148  -0.045  0.00  0.00    +0.036 A 
ATOM      3  C   UNL     1       2.393  -2.764  -0.036  0.00  0.00    +0.073 A 
ATOM      4  C   UNL     1       3.572  -1.975  -0.042  0.00  0.00    +0.116 A 
ATOM      5  S   UNL     1       4.873  -3.184  -0.060  0.00  0.00    -0.064 S 
ATOM      6  N   UNL     1       3.533  -0.659  -0.035  0.00  0.00    -0.222 NA
ATOM      7  C   UNL     1       2.372  -0.007  -0.020  0.00  0.00    +0.141 A 
ATOM      8  C   UNL     1       2.372   1.401  -0.012  0.00  0.00    +0.047 A 
ATOM      9  C   UNL     1       1.186   2.070   0.002  0.00  0.00    +0.005 A 
ATOM     10  C   UNL     1      -0.016   1.346   0.009  0.00  0.00    +0.018 A 
ATOM     11  C   UNL     1       0.002  -0.004   0.002  0.00  0.00    +0.096 A 
ATOM     12  N   UNL     1       1.185  -0.689  -0.013  0.00  0.00    -0.268 N 
ATOM     13  C   UNL     1       1.161  -2.037  -0.020  0.00  0.00    +0.267 A 
ATOM     14  O   UNL     1       0.098  -2.632  -0.012  0.00  0.00    -0.267 OA
ENDROOT
BRANCH   1  16
ATOM     15  N   UNL     1       5.596  -6.362  -0.084  0.00  0.00    -0.308 N 
ATOM     16  C   UNL     1       4.284  -6.055  -0.070  0.00  0.00    +0.251 C 
ATOM     17  O   UNL     1       3.451  -6.943  -0.067  0.00  0.00    -0.270 OA
ATOM     18  H   UNL     1       6.259  -5.654  -0.086  0.00  0.00    +0.149 HD
BRANCH  15  22
ATOM     19  C   UNL     1       6.544 -10.292   2.762  0.00  0.00    +0.007 C 
ATOM     20  C   UNL     1       6.503  -9.760   1.328  0.00  0.00    -0.012 C 
ATOM     21  C   UNL     1       6.060  -8.296   1.340  0.00  0.00    +0.025 C 
ATOM     22  C   UNL     1       6.020  -7.764  -0.094  0.00  0.00    +0.074 C 
ATOM     23  C   UNL     1       7.413  -7.870  -0.717  0.00  0.00    +0.028 C 
ATOM     24  C   UNL     1       7.856  -9.335  -0.729  0.00  0.00    -0.033 C 
ATOM     25  C   UNL     1       7.897  -9.867   0.706  0.00  0.00    +0.009 C 
ATOM     26  C   UNL     1       9.250  -9.441  -1.351  0.00  0.00    +0.011 C 
ATOM     27  C   UNL     1       6.866 -10.161  -1.551  0.00  0.00    +0.011 C 
ENDBRANCH  15  22
ENDBRANCH   1  16
TORSDOF 2
