REMARK  Name = ZINC40947868
REMARK  6 active torsions:
REMARK  status: ('A' for Active; 'I' for Inactive)
REMARK    1  A    between atoms: C_4  and  C_7
REMARK    2  A    between atoms: C_10  and  S_12
REMARK    3  A    between atoms: S_12  and  C_13
REMARK    4  A    between atoms: C_13  and  C_14
REMARK    5  A    between atoms: N_16  and  N_17
REMARK    6  A    between atoms: C_18  and  C_19
REMARK                            x       y       z     vdW  Elec       q    Type
REMARK                         _______ _______ _______ _____ _____    ______ ____
ROOT
ATOM      1  C   UNL     1       9.775  -3.582  -0.111  0.00  0.00    +0.242 C 
ATOM      2  O   UNL     1       9.569  -4.778  -0.122  0.00  0.00    -0.273 OA
ATOM      3  N   UNL     1      11.040  -3.116  -0.116  0.00  0.00    -0.206 N 
ATOM      4  H   UNL     1      11.205  -2.160  -0.107  0.00  0.00    +0.177 HD
ENDROOT
BRANCH   3   5
ATOM      5  N   UNL     1      12.116  -4.013  -0.133  0.00  0.00    -0.188 NA
ATOM      6  C   UNL     1      13.335  -3.564  -0.137  0.00  0.00    +0.140 C 
BRANCH   6   7
ATOM      7  C   UNL     1      14.466  -4.505  -0.155  0.00  0.00    +0.020 A 
ATOM      8  C   UNL     1      15.789  -4.188  -0.155  0.00  0.00    +0.093 A 
ATOM      9  N   UNL     1      16.535  -5.328  -0.175  0.00  0.00    -0.360 N 
ATOM     10  H   UNL     1      17.505  -5.356  -0.178  0.00  0.00    +0.165 HD
ATOM     11  C   UNL     1      15.715  -6.436  -0.187  0.00  0.00    +0.047 A 
ATOM     12  C   UNL     1      14.387  -5.977  -0.169  0.00  0.00    +0.008 A 
ATOM     13  C   UNL     1      13.334  -6.888  -0.171  0.00  0.00    +0.010 A 
ATOM     14  C   UNL     1      13.601  -8.240  -0.187  0.00  0.00    +0.001 A 
ATOM     15  C   UNL     1      14.912  -8.694  -0.201  0.00  0.00    +0.002 A 
ATOM     16  C   UNL     1      15.963  -7.804  -0.208  0.00  0.00    +0.026 A 
ENDBRANCH   6   7
ENDBRANCH   3   5
BRANCH   1  17
ATOM     17  C   UNL     1       8.617  -2.618  -0.093  0.00  0.00    +0.173 C 
BRANCH  17  18
ATOM     18  S   UNL     1       7.058  -3.545  -0.091  0.00  0.00    -0.088 S 
BRANCH  18  22
ATOM     19  C   UNL     1       3.695  -0.684  -0.038  0.00  0.00    +0.133 A 
ATOM     20  N   UNL     1       4.934  -0.210  -0.043  0.00  0.00    -0.140 NA
ATOM     21  N   UNL     1       5.940  -0.971  -0.057  0.00  0.00    -0.134 NA
ATOM     22  C   UNL     1       5.818  -2.294  -0.069  0.00  0.00    +0.159 A 
ATOM     23  S   UNL     1       4.034  -2.443  -0.051  0.00  0.00    -0.039 S 
BRANCH  19  27
ATOM     24  C   UNL     1      -0.017   1.379   0.010  0.00  0.00    +0.000 A 
ATOM     25  C   UNL     1       1.168   2.094   0.002  0.00  0.00    +0.001 A 
ATOM     26  C   UNL     1       2.377   1.429  -0.013  0.00  0.00    +0.010 A 
ATOM     27  C   UNL     1       2.403   0.034  -0.021  0.00  0.00    +0.009 A 
ATOM     28  C   UNL     1       1.204  -0.681  -0.013  0.00  0.00    +0.010 A 
ATOM     29  C   UNL     1       0.002  -0.004   0.002  0.00  0.00    +0.001 A 
ENDBRANCH  19  27
ENDBRANCH  18  22
ENDBRANCH  17  18
ENDBRANCH   1  17
TORSDOF 6
