REMARK  Name = ZINC37283962
REMARK  7 active torsions:
REMARK  status: ('A' for Active; 'I' for Inactive)
REMARK    1  A    between atoms: C_1  and  C_2
REMARK    2  A    between atoms: C_2  and  O_3
REMARK    3  A    between atoms: O_3  and  C_4
REMARK    4  A    between atoms: C_5  and  N_12
REMARK    5  A    between atoms: N_12  and  C_13
REMARK    6  A    between atoms: N_16  and  C_19
REMARK    7  A    between atoms: C_19  and  C_20
REMARK                            x       y       z     vdW  Elec       q    Type
REMARK                         _______ _______ _______ _____ _____    ______ ____
ROOT
ATOM      1  N   UNL     1      -1.511  -1.839  -2.413  0.00  0.00    -0.338 N 
ATOM      2  H   UNL     1      -1.398  -0.876  -2.412  0.00  0.00    +0.146 HD
ENDROOT
BRANCH   1   4
ATOM      3  C   UNL     1      -1.498  -1.850   0.006  0.00  0.00    +0.155 A 
ATOM      4  C   UNL     1      -1.586  -2.537  -1.202  0.00  0.00    +0.072 A 
ATOM      5  C   UNL     1      -1.749  -3.915  -1.202  0.00  0.00    +0.046 A 
ATOM      6  C   UNL     1      -1.823  -4.602  -0.004  0.00  0.00    +0.044 A 
ATOM      7  C   UNL     1      -1.736  -3.919   1.195  0.00  0.00    +0.039 A 
ATOM      8  C   UNL     1      -1.569  -2.546   1.202  0.00  0.00    +0.063 A 
ATOM      9 BR   UNL     1      -1.442  -1.617   2.845  0.00  0.00    -0.046 Br
ATOM     10 CL   UNL     1      -2.027  -6.326  -0.006  0.00  0.00    -0.083 Cl
BRANCH   3  11
ATOM     11  O   UNL     1      -1.339  -0.499   0.012  0.00  0.00    -0.489 OA
BRANCH  11  13
ATOM     12  C   UNL     1      -0.019   1.526   0.010  0.00  0.00    +0.048 C 
ATOM     13  C   UNL     1       0.002  -0.004   0.002  0.00  0.00    +0.226 C 
ENDBRANCH  11  13
ENDBRANCH   3  11
ENDBRANCH   1   4
BRANCH   1  14
ATOM     14  C   UNL     1      -1.604  -2.564  -3.683  0.00  0.00    +0.067 C 
ATOM     15  C   UNL     1      -0.219  -3.085  -4.077  0.00  0.00    +0.003 C 
ATOM     16  C   UNL     1      -0.307  -3.771  -5.442  0.00  0.00    -0.076 C 
ATOM     17  N   UNL     1      -0.775  -2.810  -6.448  0.00  0.00    +0.387 N 
ATOM     18  C   UNL     1      -2.131  -2.360  -6.114  0.00  0.00    -0.076 C 
ATOM     19  C   UNL     1      -2.113  -1.619  -4.776  0.00  0.00    +0.003 C 
ATOM     20  H   UNL     1      -0.153  -2.015  -6.466  0.00  0.00    -0.080 HD
BRANCH  17  21
ATOM     21  C   UNL     1      -0.784  -3.451  -7.769  0.00  0.00    +0.012 C 
BRANCH  21  22
ATOM     22  C   UNL     1      -1.137  -2.457  -8.795  0.00  0.00    -0.124 C 
ATOM     23  C   UNL     1      -1.418  -1.663  -9.614  0.00  0.00    +0.002 C 
ENDBRANCH  21  22
ENDBRANCH  17  21
ENDBRANCH   1  14
TORSDOF 6
