REMARK  Name = ZINC36309755
REMARK  15 active torsions:
REMARK  status: ('A' for Active; 'I' for Inactive)
REMARK    1  A    between atoms: C_1  and  C_2
REMARK    2  A    between atoms: C_2  and  C_3
REMARK    3  A    between atoms: C_2  and  N_4
REMARK    4  A    between atoms: N_4  and  C_5
REMARK    5  A    between atoms: N_4  and  C_17
REMARK    6  A    between atoms: C_5  and  C_6
REMARK    7  A    between atoms: C_6  and  C_8
REMARK    8  A    between atoms: C_6  and  O_16
REMARK    9  A    between atoms: C_8  and  O_9
REMARK   10  A    between atoms: O_9  and  C_10
REMARK   11  A    between atoms: C_10  and  C_11
REMARK   12  A    between atoms: C_17  and  C_18
REMARK   13  A    between atoms: C_28  and  C_30
REMARK   14  A    between atoms: C_30  and  O_31
REMARK   15  A    between atoms: O_31  and  C_32
REMARK                            x       y       z     vdW  Elec       q    Type
REMARK                         _______ _______ _______ _____ _____    ______ ____
ROOT
ATOM      1  C   UNL     1      -3.119   1.400  -0.097  0.00  0.00    +0.200 C 
ATOM      2  O   UNL     1      -2.461   2.098   0.645  0.00  0.00    -0.278 OA
ATOM      3  N   UNL     1      -4.162   1.927  -0.769  0.00  0.00    -0.292 N 
ATOM      4  C   UNL     1      -4.971   1.089  -1.667  0.00  0.00    +0.113 C 
ATOM      5  C   UNL     1      -6.394   1.002  -1.093  0.00  0.00    +0.061 C 
ATOM      6  C   UNL     1      -6.808   2.360  -0.629  0.00  0.00    -0.004 A 
ATOM      7  C   UNL     1      -6.015   3.441  -0.393  0.00  0.00    -0.014 A 
ATOM      8  C   UNL     1      -6.652   4.600   0.046  0.00  0.00    +0.013 A 
ATOM      9  C   UNL     1      -7.994   4.613   0.212  0.00  0.00    +0.046 A 
ATOM     10  S   UNL     1      -8.439   2.947  -0.255  0.00  0.00    -0.101 S 
ATOM     11  C   UNL     1      -4.510   3.346  -0.610  0.00  0.00    +0.144 C 
ENDROOT
BRANCH   1  12
ATOM     12  C   UNL     1      -2.772  -0.056  -0.268  0.00  0.00    +0.019 C 
BRANCH  12  13
ATOM     13  N   UNL     1      -1.505  -0.341   0.419  0.00  0.00    +0.389 N 
ATOM     14  H   UNL     1      -1.434   0.235   1.245  0.00  0.00    -0.081 HD
BRANCH  13  16
ATOM     15  C   UNL     1      -0.424  -1.001  -1.677  0.00  0.00    -0.014 C 
ATOM     16  C   UNL     1      -0.382  -0.048  -0.481  0.00  0.00    -0.074 C 
ATOM     17  C   UNL     1      -0.489   1.396  -0.976  0.00  0.00    -0.014 C 
ENDBRANCH  13  16
BRANCH  13  18
ATOM     18  C   UNL     1      -1.466  -1.758   0.806  0.00  0.00    -0.044 C 
BRANCH  18  19
ATOM     19  C   UNL     1      -0.232  -2.016   1.674  0.00  0.00    +0.124 C 
BRANCH  19  20
ATOM     20  O   UNL     1       0.948  -1.864   0.882  0.00  0.00    -0.391 OA
ATOM     21  H   UNL     1       0.965  -2.420   0.091  0.00  0.00    +0.210 HD
ENDBRANCH  19  20
BRANCH  19  22
ATOM     22  C   UNL     1      -0.291  -3.438   2.234  0.00  0.00    +0.189 C 
BRANCH  22  23
ATOM     23  O   UNL     1       0.798  -3.640   3.136  0.00  0.00    -0.370 OA
BRANCH  23  24
ATOM     24  C   UNL     1       0.836  -4.945   3.719  0.00  0.00    +0.234 C 
BRANCH  24  25
ATOM     25  C   UNL     1       2.018  -5.046   4.648  0.00  0.00    +0.130 A 
ATOM     26  C   UNL     1       2.014  -4.753   5.960  0.00  0.00    +0.047 A 
ATOM     27  C   UNL     1       3.325  -4.988   6.436  0.00  0.00    +0.041 A 
ATOM     28  C   UNL     1       4.051  -5.411   5.386  0.00  0.00    +0.195 A 
ATOM     29  O   UNL     1       3.253  -5.450   4.307  0.00  0.00    -0.465 OA
ENDBRANCH  24  25
ENDBRANCH  23  24
ENDBRANCH  22  23
ENDBRANCH  19  22
ENDBRANCH  18  19
ENDBRANCH  13  18
ENDBRANCH  12  13
ENDBRANCH   1  12
BRANCH  11  30
ATOM     30  C   UNL     1      -4.124   4.119  -1.873  0.00  0.00    +0.256 C 
BRANCH  30  31
ATOM     31  O   UNL     1      -4.914   3.660  -2.972  0.00  0.00    -0.490 OA
BRANCH  31  32
ATOM     32  C   UNL     1      -4.694   4.249  -4.178  0.00  0.00    +0.121 A 
ATOM     33  C   UNL     1      -3.734   5.242  -4.300  0.00  0.00    +0.048 A 
ATOM     34  C   UNL     1      -3.511   5.840  -5.526  0.00  0.00    +0.042 A 
ATOM     35  C   UNL     1      -4.247   5.447  -6.632  0.00  0.00    +0.124 A 
ATOM     36  C   UNL     1      -5.205   4.455  -6.511  0.00  0.00    +0.042 A 
ATOM     37  C   UNL     1      -5.425   3.852  -5.287  0.00  0.00    +0.048 A 
ATOM     38  F   UNL     1      -4.028   6.032  -7.830  0.00  0.00    -0.205 F 
ENDBRANCH  31  32
ENDBRANCH  30  31
ENDBRANCH  11  30
TORSDOF 13
