REMARK  Name = ZINC02967869
REMARK  10 active torsions:
REMARK  status: ('A' for Active; 'I' for Inactive)
REMARK    1  A    between atoms: C_1  and  O_2
REMARK    2  A    between atoms: O_2  and  C_3
REMARK    3  A    between atoms: C_8  and  N_9
REMARK    4  A    between atoms: C_10  and  C_12
REMARK    5  A    between atoms: C_12  and  S_13
REMARK    6  A    between atoms: S_13  and  C_14
REMARK    7  A    between atoms: C_24  and  C_29
REMARK    8  A    between atoms: C_29  and  C_30
REMARK    9  A    between atoms: N_32  and  C_33
REMARK   10  A    between atoms: C_33  and  C_34
REMARK                            x       y       z     vdW  Elec       q    Type
REMARK                         _______ _______ _______ _____ _____    ______ ____
ROOT
ATOM      1  C   UNL     1      -0.622  -7.502  -2.177  0.00  0.00    +0.169 C 
ATOM      2  N   UNL     1      -1.189  -6.774  -3.101  0.00  0.00    -0.225 NA
ATOM      3  C   UNL     1      -1.732  -7.319  -4.218  0.00  0.00    +0.077 A 
ATOM      4  C   UNL     1      -2.334  -6.522  -5.195  0.00  0.00    +0.028 A 
ATOM      5  C   UNL     1      -2.875  -7.109  -6.318  0.00  0.00    +0.002 A 
ATOM      6  C   UNL     1      -2.830  -8.485  -6.491  0.00  0.00    +0.001 A 
ATOM      7  C   UNL     1      -2.241  -9.292  -5.539  0.00  0.00    +0.013 A 
ATOM      8  C   UNL     1      -1.689  -8.716  -4.400  0.00  0.00    +0.041 A 
ATOM      9  C   UNL     1      -1.046  -9.540  -3.352  0.00  0.00    +0.139 C 
ATOM     10  N   UNL     1      -0.877 -10.830  -3.279  0.00  0.00    -0.255 NA
ATOM     11  C   UNL     1      -0.175 -11.121  -2.021  0.00  0.00    +0.202 C 
ATOM     12  C   UNL     1       0.025  -9.759  -1.390  0.00  0.00    +0.252 C 
ATOM     13  O   UNL     1       0.565  -9.512  -0.333  0.00  0.00    -0.272 OA
ATOM     14  N   UNL     1      -0.520  -8.876  -2.257  0.00  0.00    -0.200 N 
ENDROOT
BRANCH   1  15
ATOM     15  S   UNL     1       0.052  -6.692  -0.765  0.00  0.00    -0.080 S 
BRANCH  15  16
ATOM     16  C   UNL     1      -0.292  -4.936  -1.062  0.00  0.00    +0.173 C 
BRANCH  16  18
ATOM     17  N   UNL     1       0.098  -2.779   0.084  0.00  0.00    -0.282 N 
ATOM     18  C   UNL     1       0.240  -4.119   0.087  0.00  0.00    +0.228 C 
ATOM     19  O   UNL     1       0.797  -4.667   1.015  0.00  0.00    -0.275 OA
ATOM     20  H   UNL     1      -0.416  -2.347  -0.616  0.00  0.00    +0.155 HD
BRANCH  17  26
ATOM     21  C   UNL     1       0.172  -0.757   1.415  0.00  0.00    +0.141 A 
ATOM     22  C   UNL     1       0.761  -0.002   2.416  0.00  0.00    +0.047 A 
ATOM     23  C   UNL     1       1.866  -0.489   3.090  0.00  0.00    +0.004 A 
ATOM     24  C   UNL     1       2.386  -1.729   2.767  0.00  0.00    +0.002 A 
ATOM     25  C   UNL     1       1.804  -2.488   1.770  0.00  0.00    +0.027 A 
ATOM     26  C   UNL     1       0.692  -2.008   1.093  0.00  0.00    +0.076 A 
BRANCH  21  28
ATOM     27  C   UNL     1      -1.394   1.011   1.134  0.00  0.00    +0.277 C 
ATOM     28  O   UNL     1      -0.915  -0.280   0.751  0.00  0.00    -0.493 OA
ENDBRANCH  21  28
ENDBRANCH  17  26
ENDBRANCH  16  18
ENDBRANCH  15  16
ENDBRANCH   1  15
BRANCH  11  29
ATOM     29  C   UNL     1      -1.035 -12.011  -1.120  0.00  0.00    +0.132 C 
BRANCH  29  30
ATOM     30  C   UNL     1      -1.194 -13.367  -1.759  0.00  0.00    +0.216 C 
ATOM     31  O   UNL     1      -0.672 -13.598  -2.830  0.00  0.00    -0.276 OA
ATOM     32  N   UNL     1      -1.917 -14.322  -1.142  0.00  0.00    -0.308 N 
ATOM     33  H   UNL     1      -2.334 -14.137  -0.286  0.00  0.00    +0.149 HD
BRANCH  32  34
ATOM     34  C   UNL     1      -2.072 -15.639  -1.763  0.00  0.00    +0.178 C 
BRANCH  34  35
ATOM     35  C   UNL     1      -2.919 -16.516  -0.876  0.00  0.00    +0.122 A 
ATOM     36  C   UNL     1      -4.258 -16.630  -0.930  0.00  0.00    +0.046 A 
ATOM     37  C   UNL     1      -4.631 -17.553   0.074  0.00  0.00    +0.041 A 
ATOM     38  C   UNL     1      -3.498 -17.948   0.681  0.00  0.00    +0.195 A 
ATOM     39  O   UNL     1      -2.463 -17.321   0.098  0.00  0.00    -0.466 OA
ENDBRANCH  34  35
ENDBRANCH  32  34
ENDBRANCH  29  30
ENDBRANCH  11  29
TORSDOF 9
