REMARK  Name = ZINC04789083
REMARK  12 active torsions:
REMARK  status: ('A' for Active; 'I' for Inactive)
REMARK    1  A    between atoms: C_1  and  C_2
REMARK    2  A    between atoms: C_2  and  C_3
REMARK    3  A    between atoms: C_2  and  C_4
REMARK    4  A    between atoms: C_4  and  N_5
REMARK    5  A    between atoms: C_7  and  C_20
REMARK    6  A    between atoms: N_15  and  C_19
REMARK    7  A    between atoms: N_22  and  C_23
REMARK    8  A    between atoms: C_23  and  C_24
REMARK    9  A    between atoms: C_24  and  N_65
REMARK   10  A    between atoms: C_25  and  N_65
REMARK   11  A    between atoms: C_26  and  C_27
REMARK   12  A    between atoms: C_26  and  N_65
REMARK                            x       y       z     vdW  Elec       q    Type
REMARK                         _______ _______ _______ _____ _____    ______ ____
ROOT
ATOM      1  N   UNL     1      -4.810   0.829   0.245  0.00  0.00    -0.313 N 
ATOM      2  C   UNL     1      -3.650   1.519   0.140  0.00  0.00    +0.103 A 
ATOM      3  C   UNL     1      -2.447   0.870   0.130  0.00  0.00    +0.063 A 
ATOM      4  C   UNL     1      -2.437  -0.594   0.227  0.00  0.00    +0.026 A 
ATOM      5  C   UNL     1      -1.384  -1.612   0.254  0.00  0.00    +0.009 A 
ATOM      6  C   UNL     1       0.010  -1.563   0.183  0.00  0.00    +0.010 A 
ATOM      7  C   UNL     1       0.736  -2.720   0.231  0.00  0.00    +0.001 A 
ATOM      8  C   UNL     1       0.098  -3.947   0.348  0.00  0.00    +0.002 A 
ATOM      9  C   UNL     1      -1.275  -4.019   0.419  0.00  0.00    +0.026 A 
ATOM     10  C   UNL     1      -2.035  -2.853   0.373  0.00  0.00    +0.050 A 
ATOM     11  N   UNL     1      -3.393  -2.623   0.422  0.00  0.00    -0.339 N 
ATOM     12  C   UNL     1      -3.650  -1.267   0.338  0.00  0.00    +0.116 A 
ATOM     13  C   UNL     1      -4.844  -0.511   0.341  0.00  0.00    +0.276 A 
ATOM     14  O   UNL     1      -5.918  -1.081   0.433  0.00  0.00    -0.265 OA
ATOM     15  C   UNL     1      -4.417  -3.664   0.544  0.00  0.00    +0.149 C 
ENDROOT
BRANCH   3  16
ATOM     16  C   UNL     1      -1.187   1.624   0.017  0.00  0.00    +0.246 C 
ATOM     17  O   UNL     1      -0.133   1.031  -0.112  0.00  0.00    -0.270 OA
ATOM     18  N   UNL     1      -1.202   2.971   0.056  0.00  0.00    -0.313 N 
ATOM     19  H   UNL     1      -2.048   3.446   0.090  0.00  0.00    +0.149 HD
BRANCH  18  20
ATOM     20  C   UNL     1       0.058   3.718   0.053  0.00  0.00    +0.086 C 
BRANCH  20  21
ATOM     21  C   UNL     1      -0.238   5.218   0.109  0.00  0.00    -0.060 C 
BRANCH  21  23
ATOM     22  C   UNL     1       1.734   5.798  -1.169  0.00  0.00    -0.096 C 
ATOM     23  N   UNL     1       1.042   5.956   0.127  0.00  0.00    +0.382 N 
ATOM     24  H   UNL     1       1.637   5.575   0.872  0.00  0.00    -0.082 HD
BRANCH  23  25
ATOM     25  C   UNL     1       0.795   7.389   0.396  0.00  0.00    -0.043 C 
BRANCH  25  26
ATOM     26  C   UNL     1       2.117   8.075   0.628  0.00  0.00    -0.064 A 
ATOM     27  C   UNL     1       2.646   8.143   1.903  0.00  0.00    +0.002 A 
ATOM     28  C   UNL     1       3.861   8.768   2.115  0.00  0.00    +0.000 A 
ATOM     29  C   UNL     1       4.542   9.333   1.052  0.00  0.00    +0.000 A 
ATOM     30  C   UNL     1       4.010   9.269  -0.222  0.00  0.00    +0.000 A 
ATOM     31  C   UNL     1       2.798   8.640  -0.434  0.00  0.00    +0.002 A 
ENDBRANCH  25  26
ENDBRANCH  23  25
ENDBRANCH  21  23
ENDBRANCH  20  21
ENDBRANCH  18  20
ENDBRANCH   3  16
BRANCH   1  32
ATOM     32  C   UNL     1      -6.074   1.569   0.253  0.00  0.00    +0.128 C 
BRANCH  32  34
ATOM     33  C   UNL     1      -6.924   0.348  -1.754  0.00  0.00    +0.009 C 
ATOM     34  C   UNL     1      -6.583   1.725  -1.181  0.00  0.00    +0.003 C 
ATOM     35  C   UNL     1      -7.835   2.604  -1.185  0.00  0.00    +0.009 C 
ENDBRANCH  32  34
ENDBRANCH   1  32
TORSDOF 8
