REMARK  Name = ZINC36209427
REMARK  7 active torsions:
REMARK  status: ('A' for Active; 'I' for Inactive)
REMARK    1  A    between atoms: C_1  and  C_2
REMARK    2  A    between atoms: C_14  and  C_15
REMARK    3  A    between atoms: C_15  and  O_17
REMARK    4  A    between atoms: O_17  and  C_18
REMARK    5  A    between atoms: C_18  and  C_19
REMARK    6  A    between atoms: N_21  and  C_22
REMARK    7  A    between atoms: C_23  and  C_31
REMARK                            x       y       z     vdW  Elec       q    Type
REMARK                         _______ _______ _______ _____ _____    ______ ____
ROOT
ATOM      1  C   UNL     1       0.056  -0.438   4.900  0.00  0.00    +0.328 C 
ENDROOT
BRANCH   1   2
ATOM      2  C   UNL     1       0.081  -1.531   5.937  0.00  0.00    +0.255 C 
ATOM      3  O   UNL     1       0.094  -2.694   5.592  0.00  0.00    -0.272 OA
ATOM      4  N   UNL     1       0.090  -1.217   7.247  0.00  0.00    -0.277 N 
ATOM      5  H   UNL     1       0.079  -0.287   7.524  0.00  0.00    +0.155 HD
BRANCH   4   6
ATOM      6  C   UNL     1       0.113  -2.224   8.201  0.00  0.00    +0.084 A 
ATOM      7  C   UNL     1       0.119  -2.090   9.581  0.00  0.00    +0.068 A 
ATOM      8  C   UNL     1       0.145  -3.312  10.366  0.00  0.00    -0.023 A 
ATOM      9  C   UNL     1       0.161  -4.442   9.628  0.00  0.00    -0.004 A 
ATOM     10  S   UNL     1       0.133  -3.884   7.950  0.00  0.00    -0.077 S 
ATOM     11  C   UNL     1       0.190  -5.850  10.139  0.00  0.00    +0.043 C 
ATOM     12  C   UNL     1       0.581  -5.815  11.624  0.00  0.00    +0.005 C 
ATOM     13  C   UNL     1      -0.270  -4.760  12.336  0.00  0.00    +0.005 C 
ATOM     14  C   UNL     1       0.154  -3.360  11.887  0.00  0.00    +0.037 C 
BRANCH   7  15
ATOM     15  C   UNL     1       0.100  -0.771  10.221  0.00  0.00    +0.244 C 
ATOM     16  O   UNL     1      -0.962  -0.242  10.493  0.00  0.00    -0.270 OA
ATOM     17  N   UNL     1       1.258  -0.144  10.507  0.00  0.00    -0.325 N 
ATOM     18  H   UNL     1       2.104  -0.566  10.290  0.00  0.00    +0.145 HD
ATOM     19  H   UNL     1       1.246   0.728  10.931  0.00  0.00    +0.145 HD
ENDBRANCH   7  15
ENDBRANCH   4   6
ENDBRANCH   1   2
BRANCH   1  20
ATOM     20  O   UNL     1       0.051  -1.019   3.595  0.00  0.00    -0.451 OA
BRANCH  20  21
ATOM     21  C   UNL     1       0.029  -0.170   2.547  0.00  0.00    +0.347 C 
ATOM     22  O   UNL     1       0.014   1.032   2.737  0.00  0.00    -0.244 OA
BRANCH  21  36
ATOM     23  C   UNL     1      -0.018   1.503   0.010  0.00  0.00    +0.046 C 
ATOM     24  C   UNL     1       0.002  -0.004   0.002  0.00  0.00    -0.015 A 
ATOM     25  C   UNL     1       0.005  -0.697  -1.210  0.00  0.00    +0.076 A 
ATOM     26  C   UNL     1       0.025  -2.108  -1.113  0.00  0.00    +0.116 A 
ATOM     27  N   UNL     1       0.029  -2.877  -2.190  0.00  0.00    -0.226 NA
ATOM     28  C   UNL     1       0.015  -2.383  -3.404  0.00  0.00    +0.114 A 
ATOM     29  N   UNL     1      -0.007  -1.045  -3.625  0.00  0.00    -0.296 N 
ATOM     30  C   UNL     1      -0.009  -0.170  -2.591  0.00  0.00    +0.263 A 
ATOM     31  O   UNL     1      -0.023   1.030  -2.796  0.00  0.00    -0.267 OA
ATOM     32  C   UNL     1      -0.029  -0.753  -5.070  0.00  0.00    +0.127 C 
ATOM     33  C   UNL     1       0.429  -2.053  -5.763  0.00  0.00    +0.029 C 
ATOM     34  C   UNL     1       0.020  -3.124  -4.729  0.00  0.00    +0.076 C 
ATOM     35  S   UNL     1       0.039  -2.395   0.639  0.00  0.00    -0.062 S 
ATOM     36  C   UNL     1       0.023  -0.694   1.179  0.00  0.00    +0.102 A 
ENDBRANCH  21  36
ENDBRANCH  20  21
ENDBRANCH   1  20
TORSDOF 6
