REMARK  Name = ZINC09348039
REMARK  9 active torsions:
REMARK  status: ('A' for Active; 'I' for Inactive)
REMARK    1  A    between atoms: C_1  and  C_2
REMARK    2  A    between atoms: C_5  and  S_8
REMARK    3  A    between atoms: S_8  and  N_11
REMARK    4  A    between atoms: C_14  and  C_17
REMARK    5  A    between atoms: N_19  and  C_20
REMARK    6  A    between atoms: C_20  and  C_22
REMARK    7  A    between atoms: C_20  and  C_23
REMARK    8  A    between atoms: N_25  and  C_26
REMARK    9  A    between atoms: C_28  and  C_37
REMARK                            x       y       z     vdW  Elec       q    Type
REMARK                         _______ _______ _______ _____ _____    ______ ____
ROOT
ATOM      1  C   UNL     1      -1.187   1.624   0.017  0.00  0.00    +0.217 C 
ATOM      2  O   UNL     1      -1.204   2.837   0.023  0.00  0.00    -0.275 OA
ATOM      3  N   UNL     1      -0.011   0.966   0.007  0.00  0.00    -0.304 N 
ATOM      4  H   UNL     1       0.002  -0.004   0.002  0.00  0.00    +0.149 HD
ENDROOT
BRANCH   1   8
ATOM      5  N   UNL     1      -4.987   0.096  -1.056  0.00  0.00    -0.177 NA
ATOM      6  C   UNL     1      -4.972   1.044   0.066  0.00  0.00    +0.110 C 
ATOM      7  C   UNL     1      -3.658   1.831   0.029  0.00  0.00    +0.030 C 
ATOM      8  C   UNL     1      -2.482   0.853   0.018  0.00  0.00    +0.077 C 
ATOM      9  C   UNL     1      -2.556  -0.023  -1.235  0.00  0.00    +0.030 C 
ATOM     10  C   UNL     1      -3.857  -0.831  -1.212  0.00  0.00    +0.110 C 
BRANCH   5  11
ATOM     11  S   UNL     1      -6.253   0.071  -2.123  0.00  0.00    +0.061 S 
ATOM     12  O   UNL     1      -6.273  -1.228  -2.699  0.00  0.00    -0.153 OA
ATOM     13  O   UNL     1      -7.371   0.619  -1.439  0.00  0.00    -0.153 OA
BRANCH  11  18
ATOM     14  C   UNL     1      -4.905   3.911  -6.578  0.00  0.00    +0.044 C 
ATOM     15  C   UNL     1      -5.242   2.952  -5.465  0.00  0.00    -0.050 A 
ATOM     16  C   UNL     1      -4.868   1.625  -5.560  0.00  0.00    +0.005 A 
ATOM     17  C   UNL     1      -5.176   0.745  -4.540  0.00  0.00    +0.029 A 
ATOM     18  C   UNL     1      -5.859   1.192  -3.424  0.00  0.00    +0.105 A 
ATOM     19  C   UNL     1      -6.237   2.519  -3.331  0.00  0.00    +0.029 A 
ATOM     20  C   UNL     1      -5.925   3.400  -4.350  0.00  0.00    +0.005 A 
ENDBRANCH  11  18
ENDBRANCH   5  11
ENDBRANCH   1   8
BRANCH   3  21
ATOM     21  C   UNL     1       1.248   1.716  -0.001  0.00  0.00    +0.156 C 
ATOM     22  C   UNL     1       1.635   2.077   1.435  0.00  0.00    +0.038 C 
BRANCH  21  23
ATOM     23  C   UNL     1       2.332   0.870  -0.616  0.00  0.00    +0.238 C 
ATOM     24  O   UNL     1       2.079  -0.250  -1.009  0.00  0.00    -0.273 OA
ATOM     25  N   UNL     1       3.584   1.356  -0.730  0.00  0.00    -0.269 N 
ATOM     26  H   UNL     1       3.787   2.251  -0.415  0.00  0.00    +0.156 HD
BRANCH  25  27
ATOM     27  C   UNL     1       4.587   0.574  -1.299  0.00  0.00    +0.130 A 
ATOM     28  C   UNL     1       4.448  -0.694  -1.774  0.00  0.00    +0.068 A 
ATOM     29  C   UNL     1       5.691  -1.109  -2.260  0.00  0.00    +0.062 A 
ATOM     30  N   UNL     1       6.552  -0.140  -2.080  0.00  0.00    -0.169 NA
ATOM     31  N   UNL     1       5.888   0.935  -1.476  0.00  0.00    -0.200 N 
ATOM     32  C   UNL     1       6.459   2.160  -1.118  0.00  0.00    +0.156 A 
ATOM     33  C   UNL     1       7.823   2.235  -0.862  0.00  0.00    +0.048 A 
ATOM     34  C   UNL     1       8.376   3.453  -0.509  0.00  0.00    +0.005 A 
ATOM     35  C   UNL     1       7.541   4.559  -0.425  0.00  0.00    +0.020 A 
ATOM     36  C   UNL     1       6.194   4.412  -0.693  0.00  0.00    +0.113 A 
ATOM     37  N   UNL     1       5.697   3.238  -1.032  0.00  0.00    -0.236 NA
ATOM     38  C   UNL     1       5.991  -2.449  -2.881  0.00  0.00    +0.067 C 
ENDBRANCH  25  27
ENDBRANCH  21  23
ENDBRANCH   3  21
TORSDOF 6
