REMARK  Name = ZINC29851546
REMARK  7 active torsions:
REMARK  status: ('A' for Active; 'I' for Inactive)
REMARK    1  A    between atoms: C_3  and  C_6
REMARK    2  A    between atoms: C_6  and  N_7
REMARK    3  A    between atoms: C_11  and  C_13
REMARK    4  A    between atoms: C_13  and  N_14
REMARK    5  A    between atoms: N_17  and  C_20
REMARK    6  A    between atoms: C_23  and  C_29
REMARK    7  A    between atoms: C_25  and  N_26
REMARK                            x       y       z     vdW  Elec       q    Type
REMARK                         _______ _______ _______ _____ _____    ______ ____
ROOT
ATOM      1  N   UNL     1       2.138   1.472   1.171  0.00  0.00    +0.387 N 
ATOM      2  C   UNL     1       1.419   1.992  -0.001  0.00  0.00    -0.059 C 
ATOM      3  C   UNL     1      -0.018   1.465   0.010  0.00  0.00    +0.086 C 
ATOM      4  N   UNL     1       0.002  -0.004   0.002  0.00  0.00    -0.332 N 
ATOM      5  C   UNL     1       0.721  -0.525   1.173  0.00  0.00    +0.086 C 
ATOM      6  C   UNL     1       2.158   0.003   1.162  0.00  0.00    -0.059 C 
ATOM      7  H   UNL     1       1.600   1.799   2.072  0.00  0.00    -0.081 HD
ENDROOT
BRANCH   4   8
ATOM      8  C   UNL     1      -1.294  -0.522  -0.061  0.00  0.00    +0.060 A 
ATOM      9  C   UNL     1      -2.210  -0.228   0.941  0.00  0.00    +0.026 A 
ATOM     10  C   UNL     1      -3.490  -0.742   0.876  0.00  0.00    +0.014 A 
ATOM     11  C   UNL     1      -3.860  -1.548  -0.186  0.00  0.00    +0.057 A 
ATOM     12  C   UNL     1      -2.951  -1.842  -1.184  0.00  0.00    +0.047 A 
ATOM     13  C   UNL     1      -1.670  -1.327  -1.128  0.00  0.00    +0.148 A 
BRANCH  11  14
ATOM     14  C   UNL     1      -5.258  -2.106  -0.254  0.00  0.00    +0.417 C 
ATOM     15  F   UNL     1      -5.988  -1.673   0.859  0.00  0.00    -0.166 F 
ATOM     16  F   UNL     1      -5.883  -1.659  -1.423  0.00  0.00    -0.166 F 
ATOM     17  F   UNL     1      -5.203  -3.504  -0.260  0.00  0.00    -0.166 F 
ENDBRANCH  11  14
BRANCH  13  18
ATOM     18  N   UNL     1      -0.699  -1.638  -2.201  0.00  0.00    +0.058 N 
ATOM     19  O   UNL     1      -1.030  -2.344  -3.136  0.00  0.00    -0.126 OA
ATOM     20  O   UNL     1       0.431  -1.187  -2.148  0.00  0.00    -0.126 OA
ENDBRANCH  13  18
ENDBRANCH   4   8
BRANCH   1  21
ATOM     21  C   UNL     1       3.501   2.017   1.237  0.00  0.00    +0.019 C 
BRANCH  21  26
ATOM     22  N   UNL     1       5.654   6.261   1.915  0.00  0.00    -0.294 N 
ATOM     23  C   UNL     1       4.517   5.544   1.816  0.00  0.00    +0.306 C 
ATOM     24  O   UNL     1       3.439   6.096   1.930  0.00  0.00    -0.252 OA
ATOM     25  N   UNL     1       4.574   4.217   1.589  0.00  0.00    -0.242 N 
ATOM     26  C   UNL     1       3.437   3.501   1.490  0.00  0.00    +0.204 C 
ATOM     27  O   UNL     1       2.362   4.051   1.604  0.00  0.00    -0.277 OA
ATOM     28  H   UNL     1       6.629   5.762   1.812  0.00  0.00    +0.151 HD
ATOM     29  H   UNL     1       5.549   3.718   1.486  0.00  0.00    +0.159 HD
BRANCH  22  30
ATOM     30  C   UNL     1       5.592   7.703   2.162  0.00  0.00    +0.148 C 
BRANCH  30  33
ATOM     31  C   UNL     1       9.029   9.219   1.528  0.00  0.00    +0.008 A 
ATOM     32  C   UNL     1       7.764   8.750   1.229  0.00  0.00    +0.013 A 
ATOM     33  C   UNL     1       6.990   8.262   2.229  0.00  0.00    +0.007 A 
ATOM     34  S   UNL     1       8.059   8.446   3.647  0.00  0.00    -0.100 S 
ATOM     35  C   UNL     1       9.463   9.167   2.812  0.00  0.00    +0.045 A 
ENDBRANCH  30  33
ENDBRANCH  22  30
ENDBRANCH  21  26
ENDBRANCH   1  21
TORSDOF 7
