REMARK  Name = ZINC36880928
REMARK  6 active torsions:
REMARK  status: ('A' for Active; 'I' for Inactive)
REMARK    1  A    between atoms: C_1  and  C_2
REMARK    2  A    between atoms: C_2  and  C_3
REMARK    3  A    between atoms: C_3  and  N_4
REMARK    4  A    between atoms: N_7  and  C_8
REMARK    5  A    between atoms: C_11  and  N_14
REMARK    6  A    between atoms: N_14  and  C_15
REMARK                            x       y       z     vdW  Elec       q    Type
REMARK                         _______ _______ _______ _____ _____    ______ ____
ROOT
ATOM      1  C   UNL     1      -3.812  -4.785   0.013  0.00  0.00    +0.074 C 
ATOM      2  C   UNL     1      -4.328  -4.931  -1.420  0.00  0.00    +0.021 C 
ATOM      3  C   UNL     1      -3.293  -5.681  -2.261  0.00  0.00    -0.014 C 
ATOM      4  C   UNL     1      -3.056  -7.068  -1.662  0.00  0.00    -0.072 C 
ATOM      5  C   UNL     1      -2.540  -6.923  -0.229  0.00  0.00    -0.014 C 
ATOM      6  C   UNL     1      -3.575  -6.173   0.613  0.00  0.00    +0.021 C 
ENDROOT
BRANCH   1  10
ATOM      7  N   UNL     1      -1.413  -1.998   0.005  0.00  0.00    -0.299 N 
ATOM      8  C   UNL     1      -2.571  -2.688   0.012  0.00  0.00    +0.300 C 
ATOM      9  O   UNL     1      -3.632  -2.095   0.025  0.00  0.00    -0.253 OA
ATOM     10  N   UNL     1      -2.553  -4.036   0.005  0.00  0.00    -0.297 N 
ATOM     11  H   UNL     1      -0.567  -2.472  -0.006  0.00  0.00    +0.150 HD
ATOM     12  H   UNL     1      -1.707  -4.509  -0.006  0.00  0.00    +0.151 HD
BRANCH   7  13
ATOM     13  C   UNL     1      -1.433  -0.534   0.013  0.00  0.00    +0.105 C 
BRANCH  13  15
ATOM     14  C   UNL     1      -0.019   1.526   0.010  0.00  0.00    +0.005 C 
ATOM     15  C   UNL     1       0.002  -0.004   0.002  0.00  0.00    +0.015 C 
ENDBRANCH  13  15
ENDBRANCH   7  13
ENDBRANCH   1  10
BRANCH   4  16
ATOM     16  N   UNL     1      -2.063  -7.788  -2.469  0.00  0.00    +0.379 N 
ATOM     17  C   UNL     1      -1.924  -9.161  -1.965  0.00  0.00    -0.100 C 
ATOM     18  H   UNL     1      -2.365  -7.812  -3.432  0.00  0.00    -0.086 HD
ATOM     19  H   UNL     1      -1.173  -7.315  -2.408  0.00  0.00    -0.086 HD
ENDBRANCH   4  16
TORSDOF 4
