REMARK  Name = ZINC13498571
REMARK  14 active torsions:
REMARK  status: ('A' for Active; 'I' for Inactive)
REMARK    1  A    between atoms: C_1  and  C_2
REMARK    2  A    between atoms: C_7  and  C_14
REMARK    3  A    between atoms: C_14  and  N_66
REMARK    4  A    between atoms: C_15  and  C_16
REMARK    5  A    between atoms: C_15  and  N_66
REMARK    6  A    between atoms: C_16  and  C_17
REMARK    7  A    between atoms: C_17  and  O_18
REMARK    8  A    between atoms: C_19  and  C_21
REMARK    9  A    between atoms: C_19  and  C_33
REMARK   10  A    between atoms: C_19  and  N_66
REMARK   11  A    between atoms: N_25  and  C_26
REMARK   12  A    between atoms: C_26  and  C_27
REMARK   13  A    between atoms: C_33  and  C_34
REMARK   14  A    between atoms: C_33  and  C_35
REMARK                            x       y       z     vdW  Elec       q    Type
REMARK                         _______ _______ _______ _____ _____    ______ ____
ROOT
ATOM      1  N   UNL     1       5.538   2.122  -1.575  0.00  0.00    +0.389 N 
ATOM      2  H   UNL     1       5.620   2.837  -0.842  0.00  0.00    -0.080 HD
ENDROOT
BRANCH   1   3
ATOM      3  C   UNL     1       5.957   0.817  -1.021  0.00  0.00    -0.037 C 
BRANCH   3  10
ATOM      4  C   UNL     1       2.672  -0.366   6.151  0.00  0.00    +0.044 C 
ATOM      5  C   UNL     1       3.134  -0.295   4.718  0.00  0.00    -0.048 A 
ATOM      6  C   UNL     1       2.493  -1.058   3.751  0.00  0.00    +0.004 A 
ATOM      7  C   UNL     1       2.896  -1.009   2.447  0.00  0.00    +0.010 A 
ATOM      8  C   UNL     1       3.963  -0.182   2.082  0.00  0.00    -0.001 A 
ATOM      9  C   UNL     1       4.421  -0.105   0.693  0.00  0.00    +0.017 A 
ATOM     10  C   UNL     1       5.461   0.714   0.399  0.00  0.00    +0.001 A 
ATOM     11  C   UNL     1       6.085   1.466   1.417  0.00  0.00    +0.251 A 
ATOM     12  O   UNL     1       7.021   2.192   1.132  0.00  0.00    -0.268 OA
ATOM     13  N   UNL     1       5.668   1.406   2.694  0.00  0.00    -0.322 N 
ATOM     14  H   UNL     1       6.116   1.940   3.369  0.00  0.00    +0.169 HD
ATOM     15  C   UNL     1       4.615   0.593   3.059  0.00  0.00    +0.049 A 
ATOM     16  C   UNL     1       4.188   0.526   4.381  0.00  0.00    +0.029 A 
ENDBRANCH   3  10
ENDBRANCH   1   3
BRANCH   1  17
ATOM     17  C   UNL     1       6.412   2.494  -2.707  0.00  0.00    -0.075 C 
BRANCH  17  18
ATOM     18  C   UNL     1       7.853   2.607  -2.206  0.00  0.00    +0.009 C 
BRANCH  18  19
ATOM     19  C   UNL     1       8.748   3.121  -3.336  0.00  0.00    +0.154 C 
BRANCH  19  20
ATOM     20  O   UNL     1      10.094   3.227  -2.867  0.00  0.00    -0.395 OA
ATOM     21  H   UNL     1      10.718   3.547  -3.533  0.00  0.00    +0.209 HD
ENDBRANCH  19  20
ENDBRANCH  18  19
ENDBRANCH  17  18
ENDBRANCH   1  17
BRANCH   1  22
ATOM     22  C   UNL     1       4.132   2.052  -2.023  0.00  0.00    +0.006 C 
BRANCH  22  23
ATOM     23  C   UNL     1       3.240   1.962  -0.812  0.00  0.00    +0.139 A 
ATOM     24  N   UNL     1       3.348   2.660   0.293  0.00  0.00    -0.115 NA
ATOM     25  N   UNL     1       2.405   2.291   1.089  0.00  0.00    -0.023 NA
ATOM     26  N   UNL     1       1.695   1.381   0.520  0.00  0.00    -0.044 NA
ATOM     27  N   UNL     1       2.176   1.153  -0.655  0.00  0.00    -0.226 N 
BRANCH  27  28
ATOM     28  C   UNL     1       1.665   0.189  -1.633  0.00  0.00    +0.182 C 
BRANCH  28  29
ATOM     29  C   UNL     1       0.640   0.860  -2.511  0.00  0.00    -0.026 A 
ATOM     30  C   UNL     1       1.034   1.486  -3.679  0.00  0.00    +0.005 A 
ATOM     31  C   UNL     1       0.095   2.101  -4.485  0.00  0.00    +0.000 A 
ATOM     32  C   UNL     1      -1.238   2.096  -4.120  0.00  0.00    +0.000 A 
ATOM     33  C   UNL     1      -1.633   1.466  -2.954  0.00  0.00    +0.000 A 
ATOM     34  C   UNL     1      -0.694   0.850  -2.149  0.00  0.00    +0.005 A 
ENDBRANCH  28  29
ENDBRANCH  27  28
ENDBRANCH  22  23
BRANCH  22  35
ATOM     35  C   UNL     1       3.794   3.319  -2.812  0.00  0.00    -0.024 C 
ATOM     36  C   UNL     1       4.533   4.512  -2.203  0.00  0.00    +0.006 C 
ATOM     37  C   UNL     1       4.226   3.142  -4.269  0.00  0.00    +0.006 C 
ENDBRANCH  22  35
ENDBRANCH   1  22
TORSDOF 11
