REMARK  Name = ZINC05804303
REMARK  3 active torsions:
REMARK  status: ('A' for Active; 'I' for Inactive)
REMARK    1  A    between atoms: C_1  and  C_2
REMARK    2  A    between atoms: C_7  and  N_8
REMARK    3  A    between atoms: C_12  and  C_13
REMARK                            x       y       z     vdW  Elec       q    Type
REMARK                         _______ _______ _______ _____ _____    ______ ____
ROOT
ATOM      1  N   UNL     1       1.255   2.090  -0.275  0.00  0.00    -0.223 N 
ATOM      2  C   UNL     1       2.193   1.160  -0.348  0.00  0.00    +0.263 C 
ATOM      3  O   UNL     1       3.338   1.429  -0.657  0.00  0.00    -0.269 OA
ATOM      4  C   UNL     1       1.774  -0.226  -0.036  0.00  0.00    +0.079 C 
ATOM      5  C   UNL     1       2.504  -1.368  -0.029  0.00  0.00    +0.048 C 
ATOM      6  S   UNL     1       0.042   0.021   0.328  0.00  0.00    -0.061 S 
ATOM      7  C   UNL     1      -0.013   1.787   0.067  0.00  0.00    +0.125 C 
ATOM      8  S   UNL     1      -1.355   2.841   0.209  0.00  0.00    -0.027 S 
ENDROOT
BRANCH   1  15
ATOM      9  C   UNL     1       1.014   2.994  -2.963  0.00  0.00    +0.045 C 
ATOM     10  C   UNL     1       1.484   3.902  -1.856  0.00  0.00    -0.029 A 
ATOM     11  C   UNL     1       1.813   5.215  -2.133  0.00  0.00    +0.005 A 
ATOM     12  C   UNL     1       2.245   6.050  -1.119  0.00  0.00    +0.000 A 
ATOM     13  C   UNL     1       2.350   5.573   0.175  0.00  0.00    +0.002 A 
ATOM     14  C   UNL     1       2.018   4.263   0.459  0.00  0.00    +0.024 A 
ATOM     15  C   UNL     1       1.588   3.421  -0.558  0.00  0.00    +0.045 A 
ENDBRANCH   1  15
BRANCH   5  16
ATOM     16  C   UNL     1       3.968  -1.306  -0.153  0.00  0.00    +0.065 A 
ATOM     17  C   UNL     1       4.706  -2.488  -0.271  0.00  0.00    +0.028 A 
ATOM     18  C   UNL     1       6.082  -2.412  -0.387  0.00  0.00    +0.004 A 
ATOM     19  C   UNL     1       6.680  -1.159  -0.382  0.00  0.00    +0.020 A 
ATOM     20  C   UNL     1       5.890  -0.029  -0.261  0.00  0.00    +0.111 A 
ATOM     21  N   UNL     1       4.581  -0.125  -0.158  0.00  0.00    -0.256 NA
ENDBRANCH   5  16
TORSDOF 2
