REMARK  Name = ZINC55156836
REMARK  8 active torsions:
REMARK  status: ('A' for Active; 'I' for Inactive)
REMARK    1  A    between atoms: C_1  and  C_2
REMARK    2  A    between atoms: C_2  and  C_4
REMARK    3  A    between atoms: C_2  and  N_15
REMARK    4  A    between atoms: N_9  and  C_10
REMARK    5  A    between atoms: C_10  and  C_11
REMARK    6  A    between atoms: N_15  and  C_16
REMARK    7  A    between atoms: C_21  and  O_22
REMARK    8  A    between atoms: O_22  and  C_23
REMARK                            x       y       z     vdW  Elec       q    Type
REMARK                         _______ _______ _______ _____ _____    ______ ____
ROOT
ATOM      1  C   UNL     1      -0.019   1.526   0.010  0.00  0.00    +0.038 C 
ATOM      2  C   UNL     1       0.002  -0.004   0.002  0.00  0.00    +0.154 C 
ENDROOT
BRANCH   2   3
ATOM      3  C   UNL     1       0.707  -0.490  -1.238  0.00  0.00    +0.240 C 
ATOM      4  O   UNL     1       1.704  -1.174  -1.140  0.00  0.00    -0.273 OA
ATOM      5  N   UNL     1       0.231  -0.164  -2.456  0.00  0.00    -0.239 N 
ATOM      6  C   UNL     1       0.862  -0.599  -3.565  0.00  0.00    +0.306 C 
ATOM      7  O   UNL     1       1.860  -1.285  -3.466  0.00  0.00    -0.252 OA
ATOM      8  N   UNL     1       0.385  -0.273  -4.782  0.00  0.00    -0.291 N 
ATOM      9  H   UNL     1      -0.566   0.383  -2.534  0.00  0.00    +0.159 HD
ATOM     10  H   UNL     1      -0.412   0.274  -4.861  0.00  0.00    +0.151 HD
BRANCH   8  11
ATOM     11  C   UNL     1       1.071  -0.745  -5.988  0.00  0.00    +0.219 C 
BRANCH  11  12
ATOM     12  C   UNL     1       0.331  -0.239  -7.227  0.00  0.00    +0.405 C 
ATOM     13  F   UNL     1       0.312   1.160  -7.220  0.00  0.00    -0.169 F 
ATOM     14  F   UNL     1       0.986  -0.690  -8.378  0.00  0.00    -0.169 F 
ATOM     15  F   UNL     1      -0.982  -0.723  -7.217  0.00  0.00    -0.169 F 
ENDBRANCH  11  12
ENDBRANCH   8  11
ENDBRANCH   2   3
BRANCH   2  16
ATOM     16  N   UNL     1       0.711  -0.489   1.189  0.00  0.00    -0.330 N 
ATOM     17  H   UNL     1       1.654  -0.707   1.135  0.00  0.00    +0.147 HD
BRANCH  16  18
ATOM     18  C   UNL     1       0.026  -0.639   2.400  0.00  0.00    +0.071 A 
ATOM     19  C   UNL     1      -1.325  -0.334   2.478  0.00  0.00    +0.042 A 
ATOM     20  C   UNL     1      -2.000  -0.482   3.676  0.00  0.00    +0.020 A 
ATOM     21  C   UNL     1      -1.330  -0.935   4.798  0.00  0.00    +0.019 A 
ATOM     22  C   UNL     1       0.017  -1.241   4.728  0.00  0.00    +0.048 A 
ATOM     23  C   UNL     1       0.698  -1.100   3.530  0.00  0.00    +0.141 A 
ATOM     24 BR   UNL     1      -3.841  -0.065   3.780  0.00  0.00    -0.050 Br
BRANCH  23  25
ATOM     25  O   UNL     1       2.021  -1.407   3.458  0.00  0.00    -0.493 OA
ATOM     26  C   UNL     1       2.645  -1.874   4.656  0.00  0.00    +0.277 C 
ENDBRANCH  23  25
ENDBRANCH  16  18
ENDBRANCH   2  16
TORSDOF 6
