REMARK  Name = ZINC13126632
REMARK  6 active torsions:
REMARK  status: ('A' for Active; 'I' for Inactive)
REMARK    1  A    between atoms: C_1  and  C_2
REMARK    2  A    between atoms: C_3  and  N_9
REMARK    3  A    between atoms: C_4  and  C_8
REMARK    4  A    between atoms: N_5  and  C_7
REMARK    5  A    between atoms: C_10  and  C_11
REMARK    6  A    between atoms: C_20  and  O_21
REMARK                            x       y       z     vdW  Elec       q    Type
REMARK                         _______ _______ _______ _____ _____    ______ ____
ROOT
ATOM      1  C   UNL     1       1.105   0.271  -4.469  0.00  0.00    +0.042 A 
ATOM      2  C   UNL     1       2.355   0.515  -5.189  0.00  0.00    -0.006 A 
ATOM      3  C   UNL     1       3.599   0.324  -4.576  0.00  0.00    +0.009 A 
ATOM      4  C   UNL     1       4.742   0.561  -5.281  0.00  0.00    +0.001 A 
ATOM      5  C   UNL     1       4.688   0.992  -6.604  0.00  0.00    +0.001 A 
ATOM      6  C   UNL     1       3.494   1.188  -7.231  0.00  0.00    +0.008 A 
ATOM      7  C   UNL     1       2.297   0.952  -6.534  0.00  0.00    -0.017 A 
ATOM      8  C   UNL     1       1.046   1.143  -7.148  0.00  0.00    +0.012 A 
ATOM      9  C   UNL     1      -0.106   0.913  -6.466  0.00  0.00    +0.046 A 
ATOM     10  C   UNL     1      -0.102   0.476  -5.142  0.00  0.00    +0.126 A 
ENDROOT
BRANCH   1  12
ATOM     11  N   UNL     1      -0.005  -0.401  -2.449  0.00  0.00    -0.251 NA
ATOM     12  C   UNL     1       1.119  -0.183  -3.075  0.00  0.00    +0.123 C 
BRANCH  11  15
ATOM     13  C   UNL     1      -0.018   1.503   0.010  0.00  0.00    +0.070 C 
ATOM     14  C   UNL     1       0.002  -0.004   0.002  0.00  0.00    +0.085 A 
ATOM     15  C   UNL     1       0.008  -0.826  -1.145  0.00  0.00    +0.107 A 
ATOM     16  C   UNL     1       0.029  -2.133  -0.713  0.00  0.00    +0.061 A 
ATOM     17  N   UNL     1       0.035  -2.111   0.637  0.00  0.00    -0.269 N 
ATOM     18  N   UNL     1       0.023  -0.776   1.056  0.00  0.00    -0.174 NA
ATOM     19  C   UNL     1       0.056  -3.285   1.514  0.00  0.00    +0.172 C 
ATOM     20  C   UNL     1       0.042  -3.362  -1.585  0.00  0.00    +0.067 C 
ENDBRANCH  11  15
ENDBRANCH   1  12
BRANCH  10  21
ATOM     21  O   UNL     1      -1.277   0.253  -4.501  0.00  0.00    -0.506 OA
ATOM     22  H   UNL     1      -1.627   1.028  -4.042  0.00  0.00    +0.292 HD
ENDBRANCH  10  21
TORSDOF 3
