REMARK  Name = ZINC00167799
REMARK  5 active torsions:
REMARK  status: ('A' for Active; 'I' for Inactive)
REMARK    1  A    between atoms: N_9  and  C_10
REMARK    2  A    between atoms: C_10  and  C_11
REMARK    3  A    between atoms: C_11  and  C_13
REMARK    4  A    between atoms: C_11  and  O_22
REMARK    5  A    between atoms: C_16  and  N_19
REMARK                            x       y       z     vdW  Elec       q    Type
REMARK                         _______ _______ _______ _____ _____    ______ ____
ROOT
ATOM      1  C   UNL     1      -1.233   2.643  -2.289  0.00  0.00    +0.162 C 
ENDROOT
BRANCH   1   2
ATOM      2  C   UNL     1      -1.258   3.871  -3.162  0.00  0.00    -0.018 A 
ATOM      3  C   UNL     1      -0.115   4.632  -3.317  0.00  0.00    +0.008 A 
ATOM      4  C   UNL     1      -0.137   5.756  -4.121  0.00  0.00    +0.033 A 
ATOM      5  C   UNL     1      -1.305   6.125  -4.763  0.00  0.00    +0.126 A 
ATOM      6  C   UNL     1      -2.450   5.366  -4.603  0.00  0.00    +0.033 A 
ATOM      7  C   UNL     1      -2.426   4.239  -3.803  0.00  0.00    +0.008 A 
BRANCH   5   8
ATOM      8  N   UNL     1      -1.330   7.331  -5.620  0.00  0.00    +0.056 N 
ATOM      9  O   UNL     1      -2.359   7.655  -6.185  0.00  0.00    -0.126 OA
ATOM     10  O   UNL     1      -0.321   7.999  -5.761  0.00  0.00    -0.126 OA
ENDBRANCH   5   8
ENDBRANCH   1   2
BRANCH   1  11
ATOM     11  O   UNL     1       0.040   2.004  -2.401  0.00  0.00    -0.386 OA
ATOM     12  H   UNL     1       0.784   2.561  -2.133  0.00  0.00    +0.210 HD
ENDBRANCH   1  11
BRANCH   1  13
ATOM     13  C   UNL     1      -1.474   3.047  -0.833  0.00  0.00    +0.141 C 
BRANCH  13  22
ATOM     14  C   UNL     1       2.189  -0.189   0.162  0.00  0.00    +0.000 A 
ATOM     15  C   UNL     1       2.248   1.192   0.186  0.00  0.00    +0.002 A 
ATOM     16  C   UNL     1       1.089   1.938   0.138  0.00  0.00    +0.023 A 
ATOM     17  C   UNL     1      -0.151   1.304   0.065  0.00  0.00    +0.033 A 
ATOM     18  C   UNL     1      -0.198  -0.084   0.035  0.00  0.00    -0.025 A 
ATOM     19  C   UNL     1       0.963  -0.826   0.086  0.00  0.00    +0.005 A 
ATOM     20  C   UNL     1      -1.653  -0.500  -0.063  0.00  0.00    +0.056 C 
ATOM     21  C   UNL     1      -2.356   0.809  -0.492  0.00  0.00    +0.110 C 
ATOM     22  N   UNL     1      -1.439   1.851   0.019  0.00  0.00    -0.327 N 
ENDBRANCH  13  22
ENDBRANCH   1  13
TORSDOF 5
