REMARK  Name = ZINC36207312
REMARK  17 active torsions:
REMARK  status: ('A' for Active; 'I' for Inactive)
REMARK    1  A    between atoms: C_1  and  C_2
REMARK    2  A    between atoms: C_2  and  C_3
REMARK    3  A    between atoms: C_9  and  C_18
REMARK    4  A    between atoms: C_13  and  C_14
REMARK    5  A    between atoms: C_14  and  O_16
REMARK    6  A    between atoms: O_16  and  C_17
REMARK    7  A    between atoms: C_18  and  N_19
REMARK    8  A    between atoms: N_19  and  C_20
REMARK    9  A    between atoms: N_19  and  C_32
REMARK   10  A    between atoms: C_20  and  C_21
REMARK   11  A    between atoms: C_21  and  C_23
REMARK   12  A    between atoms: C_21  and  O_31
REMARK   13  A    between atoms: C_23  and  O_24
REMARK   14  A    between atoms: O_24  and  C_25
REMARK   15  A    between atoms: C_25  and  C_26
REMARK   16  A    between atoms: C_32  and  C_33
REMARK   17  A    between atoms: C_32  and  C_34
REMARK                            x       y       z     vdW  Elec       q    Type
REMARK                         _______ _______ _______ _____ _____    ______ ____
ROOT
ATOM      1  C   UNL     1      -4.345  -2.307   4.572  0.00  0.00    -0.003 C 
ENDROOT
BRANCH   1   8
ATOM      2  C   UNL     1      -0.834  -4.627   0.801  0.00  0.00    -0.012 A 
ATOM      3  C   UNL     1      -1.580  -3.998   1.799  0.00  0.00    +0.076 A 
ATOM      4  C   UNL     1      -1.113  -3.172   2.936  0.00  0.00    +0.260 A 
ATOM      5  O   UNL     1       0.073  -2.955   3.106  0.00  0.00    -0.267 OA
ATOM      6  N   UNL     1      -2.036  -2.665   3.778  0.00  0.00    -0.312 N 
ATOM      7  H   UNL     1      -1.747  -2.121   4.527  0.00  0.00    +0.170 HD
ATOM      8  C   UNL     1      -3.359  -2.899   3.598  0.00  0.00    +0.094 A 
ATOM      9  N   UNL     1      -3.804  -3.623   2.607  0.00  0.00    -0.229 NA
ATOM     10  C   UNL     1      -2.981  -4.168   1.720  0.00  0.00    +0.116 A 
ATOM     11  S   UNL     1      -3.188  -5.184   0.279  0.00  0.00    -0.062 S 
ATOM     12  C   UNL     1      -1.468  -5.346  -0.171  0.00  0.00    +0.102 A 
BRANCH   2  14
ATOM     13  C   UNL     1       1.079  -3.281  -0.024  0.00  0.00    +0.009 C 
ATOM     14  C   UNL     1       0.669  -4.508   0.793  0.00  0.00    +0.034 C 
ENDBRANCH   2  14
BRANCH  12  15
ATOM     15  C   UNL     1      -0.883  -6.071  -1.300  0.00  0.00    +0.346 C 
ATOM     16  O   UNL     1       0.323  -6.080  -1.459  0.00  0.00    -0.244 OA
BRANCH  15  17
ATOM     17  O   UNL     1      -1.682  -6.730  -2.165  0.00  0.00    -0.464 OA
ATOM     18  C   UNL     1      -1.044  -7.416  -3.244  0.00  0.00    +0.280 C 
ENDBRANCH  15  17
ENDBRANCH  12  15
ENDBRANCH   1   8
BRANCH   1  19
ATOM     19  N   UNL     1      -5.712  -2.542   4.088  0.00  0.00    +0.388 N 
ATOM     20  H   UNL     1      -5.752  -3.429   3.610  0.00  0.00    -0.081 HD
BRANCH  19  21
ATOM     21  C   UNL     1      -6.094  -1.468   3.160  0.00  0.00    -0.074 C 
ATOM     22  C   UNL     1      -6.013  -0.120   3.878  0.00  0.00    -0.014 C 
ATOM     23  C   UNL     1      -5.141  -1.466   1.963  0.00  0.00    -0.014 C 
ENDBRANCH  19  21
BRANCH  19  24
ATOM     24  C   UNL     1      -6.639  -2.557   5.227  0.00  0.00    -0.044 C 
BRANCH  24  25
ATOM     25  C   UNL     1      -8.034  -2.958   4.744  0.00  0.00    +0.124 C 
BRANCH  25  26
ATOM     26  O   UNL     1      -8.583  -1.906   3.947  0.00  0.00    -0.391 OA
ATOM     27  H   UNL     1      -8.617  -1.050   4.395  0.00  0.00    +0.210 HD
ENDBRANCH  25  26
BRANCH  25  28
ATOM     28  C   UNL     1      -8.940  -3.208   5.952  0.00  0.00    +0.189 C 
BRANCH  28  29
ATOM     29  O   UNL     1     -10.207  -3.694   5.504  0.00  0.00    -0.370 OA
BRANCH  29  30
ATOM     30  C   UNL     1     -11.133  -3.962   6.560  0.00  0.00    +0.234 C 
BRANCH  30  31
ATOM     31  C   UNL     1     -12.427  -4.467   5.977  0.00  0.00    +0.130 A 
ATOM     32  C   UNL     1     -12.735  -5.755   5.743  0.00  0.00    +0.047 A 
ATOM     33  C   UNL     1     -14.038  -5.772   5.196  0.00  0.00    +0.041 A 
ATOM     34  C   UNL     1     -14.449  -4.493   5.129  0.00  0.00    +0.195 A 
ATOM     35  O   UNL     1     -13.472  -3.707   5.608  0.00  0.00    -0.465 OA
ENDBRANCH  30  31
ENDBRANCH  29  30
ENDBRANCH  28  29
ENDBRANCH  25  28
ENDBRANCH  24  25
ENDBRANCH  19  24
ENDBRANCH   1  19
TORSDOF 13
