REMARK  Name = ZINC39672682
REMARK  8 active torsions:
REMARK  status: ('A' for Active; 'I' for Inactive)
REMARK    1  A    between atoms: C_1  and  C_2
REMARK    2  A    between atoms: C_4  and  C_32
REMARK    3  A    between atoms: C_5  and  C_31
REMARK    4  A    between atoms: C_6  and  S_9
REMARK    5  A    between atoms: C_7  and  C_8
REMARK    6  A    between atoms: S_9  and  N_12
REMARK    7  A    between atoms: C_15  and  C_18
REMARK    8  A    between atoms: C_23  and  C_26
REMARK                            x       y       z     vdW  Elec       q    Type
REMARK                         _______ _______ _______ _____ _____    ______ ____
ROOT
ATOM      1  N   UNL     1       1.617  -2.804   3.335  0.00  0.00    -0.177 NA
ATOM      2  C   UNL     1       2.232  -4.110   3.061  0.00  0.00    +0.110 C 
ATOM      3  C   UNL     1       2.840  -4.651   4.358  0.00  0.00    +0.030 C 
ATOM      4  C   UNL     1       3.803  -3.612   4.937  0.00  0.00    +0.078 C 
ATOM      5  C   UNL     1       3.036  -2.328   5.262  0.00  0.00    +0.030 C 
ATOM      6  C   UNL     1       2.432  -1.759   3.969  0.00  0.00    +0.110 C 
ENDROOT
BRANCH   4   7
ATOM      7  C   UNL     1       4.429  -4.154   6.196  0.00  0.00    +0.222 C 
ATOM      8  O   UNL     1       4.134  -5.263   6.591  0.00  0.00    -0.275 OA
ATOM      9  N   UNL     1       5.316  -3.408   6.883  0.00  0.00    -0.264 N 
ATOM     10  C   UNL     1       5.893  -3.908   8.043  0.00  0.00    +0.165 A 
ATOM     11  N   UNL     1       6.767  -3.339   8.849  0.00  0.00    -0.223 NA
ATOM     12  C   UNL     1       7.221  -3.970   9.934  0.00  0.00    +0.095 A 
ATOM     13  C   UNL     1       6.762  -5.237  10.207  0.00  0.00    +0.078 A 
ATOM     14  S   UNL     1       5.640  -5.488   8.838  0.00  0.00    -0.060 S 
ATOM     15  H   UNL     1       5.552  -2.522   6.567  0.00  0.00    +0.157 HD
BRANCH  12  16
ATOM     16  C   UNL     1       8.193  -3.321  10.820  0.00  0.00    +0.071 C 
ATOM     17  N   UNL     1       8.723  -3.821  11.903  0.00  0.00    -0.258 NA
ATOM     18  C   UNL     1       9.588  -2.983  12.508  0.00  0.00    +0.107 C 
ATOM     19  C   UNL     1       9.712  -1.826  11.862  0.00  0.00    -0.001 C 
ATOM     20  C   UNL     1       8.793  -1.938  10.659  0.00  0.00    +0.086 C 
ENDBRANCH  12  16
ENDBRANCH   4   7
BRANCH   1  21
ATOM     21  S   UNL     1       0.037  -2.514   2.930  0.00  0.00    +0.061 S 
ATOM     22  O   UNL     1      -0.410  -1.460   3.772  0.00  0.00    -0.153 OA
ATOM     23  O   UNL     1      -0.609  -3.778   2.882  0.00  0.00    -0.153 OA
BRANCH  21  29
ATOM     24  C   UNL     1      -0.250  -3.191  -2.245  0.00  0.00    +0.044 C 
ATOM     25  C   UNL     1      -0.107  -2.250  -1.077  0.00  0.00    -0.045 A 
ATOM     26  C   UNL     1       0.017  -0.891  -1.296  0.00  0.00    +0.007 A 
ATOM     27  C   UNL     1       0.148  -0.027  -0.224  0.00  0.00    -0.045 A 
ATOM     28  C   UNL     1       0.154  -0.523   1.066  0.00  0.00    -0.021 A 
ATOM     29  C   UNL     1       0.029  -1.882   1.285  0.00  0.00    +0.112 A 
ATOM     30  C   UNL     1      -0.106  -2.745   0.214  0.00  0.00    -0.021 A 
ATOM     31  C   UNL     1      -0.248  -4.226   0.453  0.00  0.00    +0.046 C 
ATOM     32  C   UNL     1       0.298   0.418   2.234  0.00  0.00    +0.046 C 
ATOM     33  C   UNL     1       0.284   1.455  -0.463  0.00  0.00    +0.044 C 
ENDBRANCH  21  29
ENDBRANCH   1  21
TORSDOF 4
