REMARK  Name = ZINC58623015
REMARK  11 active torsions:
REMARK  status: ('A' for Active; 'I' for Inactive)
REMARK    1  A    between atoms: C_1  and  C_2
REMARK    2  A    between atoms: C_2  and  C_3
REMARK    3  A    between atoms: C_3  and  C_4
REMARK    4  A    between atoms: C_6  and  C_9
REMARK    5  A    between atoms: C_9  and  C_10
REMARK    6  A    between atoms: C_9  and  S_11
REMARK    7  A    between atoms: S_11  and  C_14
REMARK    8  A    between atoms: C_14  and  C_15
REMARK    9  A    between atoms: C_20  and  O_21
REMARK   10  A    between atoms: O_21  and  C_22
REMARK   11  A    between atoms: C_22  and  C_23
REMARK                            x       y       z     vdW  Elec       q    Type
REMARK                         _______ _______ _______ _____ _____    ______ ____
ROOT
ATOM      1  S   UNL     1       0.469  -6.470   2.815  0.00  0.00    -0.016 S 
ATOM      2  O   UNL     1       1.413  -6.880   1.836  0.00  0.00    -0.173 OA
ATOM      3  O   UNL     1       0.938  -5.947   4.050  0.00  0.00    -0.173 OA
ENDROOT
BRANCH   1   4
ATOM      4  C   UNL     1      -0.646  -5.253   2.063  0.00  0.00    +0.216 C 
ATOM      5  C   UNL     1      -1.363  -5.888   0.870  0.00  0.00    +0.042 C 
BRANCH   4   8
ATOM      6  C   UNL     1       0.762  -2.018   1.233  0.00  0.00    +0.172 A 
ATOM      7  N   UNL     1      -0.167  -2.811   1.778  0.00  0.00    -0.194 NA
ATOM      8  C   UNL     1       0.151  -4.063   1.595  0.00  0.00    +0.251 A 
ATOM      9  O   UNL     1       1.306  -4.108   0.921  0.00  0.00    -0.336 OA
ATOM     10  N   UNL     1       1.685  -2.759   0.690  0.00  0.00    -0.061 NA
BRANCH   6  11
ATOM     11  C   UNL     1       0.742  -0.511   1.242  0.00  0.00    +0.079 C 
BRANCH  11  13
ATOM     12  C   UNL     1      -0.019   1.526   0.010  0.00  0.00    +0.004 C 
ATOM     13  C   UNL     1       0.002  -0.004   0.002  0.00  0.00    +0.004 C 
ENDBRANCH  11  13
ENDBRANCH   6  11
ENDBRANCH   4   8
ENDBRANCH   1   4
BRANCH   1  14
ATOM     14  C   UNL     1      -0.636  -7.865   3.166  0.00  0.00    +0.205 C 
BRANCH  14  15
ATOM     15  C   UNL     1       0.149  -8.980   3.805  0.00  0.00    +0.015 A 
ATOM     16  C   UNL     1       0.747  -9.945   3.016  0.00  0.00    +0.009 A 
ATOM     17  C   UNL     1       1.467 -10.969   3.602  0.00  0.00    +0.001 A 
ATOM     18  C   UNL     1       1.593 -11.031   4.978  0.00  0.00    +0.004 A 
ATOM     19  C   UNL     1       0.998 -10.069   5.770  0.00  0.00    +0.046 A 
ATOM     20  C   UNL     1       0.279  -9.037   5.185  0.00  0.00    +0.125 A 
BRANCH  20  21
ATOM     21  O   UNL     1      -0.303  -8.086   5.962  0.00  0.00    -0.492 OA
BRANCH  21  22
ATOM     22  C   UNL     1      -0.128  -8.207   7.375  0.00  0.00    +0.225 C 
ATOM     23  C   UNL     1      -0.848  -7.055   8.079  0.00  0.00    +0.048 C 
ENDBRANCH  21  22
ENDBRANCH  20  21
ENDBRANCH  14  15
ENDBRANCH   1  14
TORSDOF 8
