REMARK  Name = ZINC03021033
REMARK  4 active torsions:
REMARK  status: ('A' for Active; 'I' for Inactive)
REMARK    1  A    between atoms: C_5  and  C_7
REMARK    2  A    between atoms: N_9  and  N_10
REMARK    3  A    between atoms: C_11  and  C_13
REMARK    4  A    between atoms: C_16  and  N_18
REMARK                            x       y       z     vdW  Elec       q    Type
REMARK                         _______ _______ _______ _____ _____    ______ ____
ROOT
ATOM      1  N   UNL     1       0.835   5.633   0.025  0.00  0.00    -0.228 N 
ATOM      2  C   UNL     1       1.436   4.427   0.013  0.00  0.00    +0.296 C 
ATOM      3  O   UNL     1       2.651   4.352   0.002  0.00  0.00    -0.265 OA
ATOM      4  H   UNL     1      -0.133   5.692   0.034  0.00  0.00    +0.173 HD
ENDROOT
BRANCH   2   5
ATOM      5  C   UNL     1       0.627   3.204   0.013  0.00  0.00    +0.193 A 
ATOM      6  C   UNL     1       1.105   1.925   0.002  0.00  0.00    +0.057 A 
ATOM      7  C   UNL     1      -0.013   1.076   0.008  0.00  0.00    +0.076 A 
ATOM      8  C   UNL     1      -1.110   1.864   0.017  0.00  0.00    +0.280 A 
ATOM      9  O   UNL     1      -0.721   3.145   0.026  0.00  0.00    -0.429 OA
BRANCH   8  10
ATOM     10  N   UNL     1      -2.512   1.389   0.019  0.00  0.00    +0.093 N 
ATOM     11  O   UNL     1      -2.751   0.194   0.013  0.00  0.00    -0.123 OA
ATOM     12  O   UNL     1      -3.428   2.192   0.027  0.00  0.00    -0.123 OA
ENDBRANCH   8  10
ENDBRANCH   2   5
BRANCH   1  15
ATOM     13  C   UNL     1       1.007   8.007   0.037  0.00  0.00    +0.261 C 
ATOM     14  O   UNL     1      -0.206   8.081   0.048  0.00  0.00    -0.269 OA
ATOM     15  N   UNL     1       1.608   6.801   0.025  0.00  0.00    -0.230 N 
ATOM     16  H   UNL     1       2.576   6.742   0.016  0.00  0.00    +0.173 HD
BRANCH  13  21
ATOM     17  C   UNL     1       3.971  10.312   0.024  0.00  0.00    +0.001 A 
ATOM     18  C   UNL     1       3.351  11.549   0.036  0.00  0.00    +0.001 A 
ATOM     19  C   UNL     1       1.972  11.638   0.049  0.00  0.00    +0.016 A 
ATOM     20  C   UNL     1       1.203  10.491   0.049  0.00  0.00    +0.030 A 
ATOM     21  C   UNL     1       1.822   9.240   0.036  0.00  0.00    +0.052 A 
ATOM     22  C   UNL     1       3.216   9.158   0.029  0.00  0.00    +0.014 A 
ATOM     23 BR   UNL     1      -0.684  10.614   0.067  0.00  0.00    -0.050 Br
ENDBRANCH  13  21
ENDBRANCH   1  15
TORSDOF 4
