REMARK  Name = ZINC01319821
REMARK  3 active torsions:
REMARK  status: ('A' for Active; 'I' for Inactive)
REMARK    1  A    between atoms: C_5  and  S_8
REMARK    2  A    between atoms: S_8  and  N_11
REMARK    3  A    between atoms: C_16  and  C_19
REMARK                            x       y       z     vdW  Elec       q    Type
REMARK                         _______ _______ _______ _____ _____    ______ ____
ROOT
ATOM      1  C   UNL     1      -0.017   1.376   0.010  0.00  0.00    +0.047 A 
ATOM      2  C   UNL     1       1.178   2.094   0.002  0.00  0.00    +0.056 A 
ATOM      3  C   UNL     1       2.381   1.400  -0.004  0.00  0.00    +0.128 A 
ATOM      4  C   UNL     1       2.396   0.021  -0.021  0.00  0.00    +0.060 A 
ATOM      5  C   UNL     1       1.207  -0.685  -0.018  0.00  0.00    +0.125 A 
ATOM      6  C   UNL     1       0.002  -0.004   0.002  0.00  0.00    +0.069 A 
ATOM      7 CL   UNL     1      -1.491  -0.889   0.017  0.00  0.00    -0.081 Cl
ATOM      8  S   UNL     1       3.904   2.296   0.030  0.00  0.00    +0.062 S 
ATOM      9  O   UNL     1       4.659   1.876  -1.098  0.00  0.00    -0.153 OA
ATOM     10  O   UNL     1       4.401   2.220   1.360  0.00  0.00    -0.153 OA
ATOM     11  N   UNL     1       3.468   3.884  -0.238  0.00  0.00    -0.170 NA
ATOM     12  C   UNL     1       2.229   4.335   0.427  0.00  0.00    +0.163 C 
ATOM     13  N   UNL     1       1.125   3.485  -0.012  0.00  0.00    -0.326 N 
ATOM     14  H   UNL     1       3.996   4.475  -0.798  0.00  0.00    +0.150 HD
ATOM     15  H   UNL     1       0.315   3.911  -0.331  0.00  0.00    +0.148 HD
ENDROOT
BRANCH  12  16
ATOM     16  C   UNL     1       2.393   4.225   1.945  0.00  0.00    +0.033 C 
ATOM     17  C   UNL     1       1.139   4.774   2.669  0.00  0.00    +0.015 C 
ATOM     18  C   UNL     1       1.692   5.967   3.511  0.00  0.00    +0.012 C 
ATOM     19  C   UNL     1       2.781   6.529   2.526  0.00  0.00    +0.015 C 
ATOM     20  C   UNL     1       3.547   5.153   2.441  0.00  0.00    +0.018 C 
ATOM     21  C   UNL     1       3.669   4.830   3.935  0.00  0.00    -0.027 C 
ATOM     22  C   UNL     1       2.582   5.298   4.566  0.00  0.00    -0.027 C 
ENDBRANCH  12  16
BRANCH   5  23
ATOM     23  S   UNL     1       1.226  -2.447  -0.037  0.00  0.00    +0.057 S 
ATOM     24  O   UNL     1       0.324  -2.851  -1.059  0.00  0.00    -0.153 OA
ATOM     25  O   UNL     1       2.591  -2.839  -0.028  0.00  0.00    -0.153 OA
BRANCH  23  26
ATOM     26  N   UNL     1       0.577  -2.960   1.397  0.00  0.00    -0.203 NA
ATOM     27  H   UNL     1       0.275  -2.311   2.052  0.00  0.00    +0.144 HD
ATOM     28  H   UNL     1       0.498  -3.909   1.582  0.00  0.00    +0.144 HD
ENDBRANCH  23  26
ENDBRANCH   5  23
TORSDOF 3
