REMARK  Name = ZINC39628512
REMARK  12 active torsions:
REMARK  status: ('A' for Active; 'I' for Inactive)
REMARK    1  A    between atoms: C_1  and  C_2
REMARK    2  A    between atoms: C_2  and  C_3
REMARK    3  A    between atoms: C_3  and  C_4
REMARK    4  A    between atoms: C_4  and  C_5
REMARK    5  A    between atoms: C_5  and  C_6
REMARK    6  A    between atoms: C_6  and  C_7
REMARK    7  A    between atoms: C_11  and  C_20
REMARK    8  A    between atoms: N_22  and  C_23
REMARK    9  A    between atoms: C_23  and  C_24
REMARK   10  A    between atoms: C_24  and  C_25
REMARK   11  A    between atoms: C_25  and  N_26
REMARK   12  A    between atoms: C_31  and  C_33
REMARK                            x       y       z     vdW  Elec       q    Type
REMARK                         _______ _______ _______ _____ _____    ______ ____
ROOT
ATOM      1  C   UNL     1      -4.401  -4.666  -0.016  0.00  0.00    +0.216 C 
ATOM      2  O   UNL     1      -5.351  -3.915   0.052  0.00  0.00    -0.276 OA
ATOM      3  N   UNL     1      -4.593  -6.000   0.014  0.00  0.00    -0.300 N 
ATOM      4  C   UNL     1      -3.566  -7.066  -0.050  0.00  0.00    +0.121 C 
ATOM      5  C   UNL     1      -4.055  -8.139   0.949  0.00  0.00    +0.100 C 
ATOM      6  C   UNL     1      -5.573  -7.915   1.053  0.00  0.00    -0.004 C 
ATOM      7  C   UNL     1      -5.878  -6.731   0.124  0.00  0.00    +0.115 C 
ATOM      8  C   UNL     1      -5.958  -7.565   2.487  0.00  0.00    -0.010 C 
ATOM      9  C   UNL     1      -7.478  -7.403   2.578  0.00  0.00    -0.082 C 
ATOM     10  N   UNL     1      -8.130  -8.652   2.165  0.00  0.00    +0.379 N 
ATOM     11  C   UNL     1      -7.830  -8.932   0.756  0.00  0.00    -0.082 C 
ATOM     12  C   UNL     1      -6.325  -9.159   0.589  0.00  0.00    -0.010 C 
ATOM     13  H   UNL     1      -7.793  -9.411   2.737  0.00  0.00    -0.086 HD
ATOM     14  H   UNL     1      -9.129  -8.563   2.284  0.00  0.00    -0.086 HD
ENDROOT
BRANCH   5  15
ATOM     15  C   UNL     1      -3.762  -9.520   0.421  0.00  0.00    +0.218 C 
ATOM     16  O   UNL     1      -3.749  -9.722  -0.775  0.00  0.00    -0.275 OA
ATOM     17  N   UNL     1      -3.513 -10.530   1.278  0.00  0.00    -0.315 N 
ATOM     18  H   UNL     1      -3.523 -10.368   2.234  0.00  0.00    +0.149 HD
BRANCH  17  19
ATOM     19  C   UNL     1      -3.227 -11.872   0.765  0.00  0.00    +0.102 C 
BRANCH  19  20
ATOM     20  C   UNL     1      -2.983 -12.825   1.937  0.00  0.00    +0.000 C 
BRANCH  20  21
ATOM     21  C   UNL     1      -2.685 -14.227   1.401  0.00  0.00    -0.077 C 
BRANCH  21  22
ATOM     22  N   UNL     1      -2.450 -15.141   2.526  0.00  0.00    +0.381 N 
ATOM     23  C   UNL     1      -3.681 -15.271   3.314  0.00  0.00    -0.078 C 
ATOM     24  C   UNL     1      -3.420 -16.159   4.533  0.00  0.00    -0.019 C 
ATOM     25  C   UNL     1      -2.965 -17.543   4.062  0.00  0.00    -0.003 C 
ATOM     26  C   UNL     1      -1.723 -17.388   3.180  0.00  0.00    -0.016 C 
ATOM     27  C   UNL     1      -2.047 -16.455   2.011  0.00  0.00    -0.072 C 
ATOM     28  C   UNL     1      -0.809 -16.298   1.127  0.00  0.00    -0.013 C 
ATOM     29  H   UNL     1      -1.716 -14.771   3.112  0.00  0.00    -0.081 HD
ENDBRANCH  21  22
ENDBRANCH  20  21
ENDBRANCH  19  20
ENDBRANCH  17  19
ENDBRANCH   5  15
BRANCH   1  30
ATOM     30  C   UNL     1      -3.006  -4.107  -0.133  0.00  0.00    +0.096 C 
BRANCH  30  31
ATOM     31  C   UNL     1      -3.068  -2.579  -0.145  0.00  0.00    +0.009 C 
BRANCH  31  32
ATOM     32  C   UNL     1      -1.652  -2.012  -0.264  0.00  0.00    +0.000 C 
BRANCH  32  33
ATOM     33  C   UNL     1      -1.714  -0.483  -0.276  0.00  0.00    -0.000 C 
BRANCH  33  35
ATOM     34  C   UNL     1      -0.360   1.613  -0.406  0.00  0.00    +0.004 C 
ATOM     35  C   UNL     1      -0.298   0.084  -0.395  0.00  0.00    -0.003 C 
ENDBRANCH  33  35
ENDBRANCH  32  33
ENDBRANCH  31  32
ENDBRANCH  30  31
ENDBRANCH   1  30
TORSDOF 10
