REMARK  Name = ZINC36065906
REMARK  11 active torsions:
REMARK  status: ('A' for Active; 'I' for Inactive)
REMARK    1  A    between atoms: C_1  and  C_2
REMARK    2  A    between atoms: C_2  and  C_3
REMARK    3  A    between atoms: C_2  and  C_4
REMARK    4  A    between atoms: C_4  and  N_5
REMARK    5  A    between atoms: C_6  and  C_8
REMARK    6  A    between atoms: C_11  and  C_13
REMARK    7  A    between atoms: C_13  and  N_14
REMARK    8  A    between atoms: N_14  and  C_15
REMARK    9  A    between atoms: N_14  and  C_25
REMARK   10  A    between atoms: C_15  and  C_16
REMARK   11  A    between atoms: C_25  and  C_26
REMARK                            x       y       z     vdW  Elec       q    Type
REMARK                         _______ _______ _______ _____ _____    ______ ____
ROOT
ATOM      1  N   UNL     1      -3.511   0.354  -7.130  0.00  0.00    +0.391 N 
ATOM      2  H   UNL     1      -2.620  -0.030  -6.854  0.00  0.00    -0.080 HD
ENDROOT
BRANCH   1   3
ATOM      3  C   UNL     1      -4.048   1.178  -6.038  0.00  0.00    +0.020 C 
BRANCH   3   7
ATOM      4  C   UNL     1      -3.585  -0.567  -2.897  0.00  0.00    +0.163 A 
ATOM      5  C   UNL     1      -4.847  -0.966  -3.215  0.00  0.00    +0.230 A 
ATOM      6  O   UNL     1      -5.159  -0.383  -4.384  0.00  0.00    -0.449 OA
ATOM      7  C   UNL     1      -4.113   0.358  -4.775  0.00  0.00    +0.179 A 
ATOM      8  N   UNL     1      -3.165   0.261  -3.892  0.00  0.00    -0.210 NA
BRANCH   4  10
ATOM      9  N   UNL     1      -1.575  -0.474  -1.509  0.00  0.00    -0.310 N 
ATOM     10  C   UNL     1      -2.820  -0.954  -1.698  0.00  0.00    +0.266 C 
ATOM     11  O   UNL     1      -3.313  -1.706  -0.879  0.00  0.00    -0.268 OA
ATOM     12  H   UNL     1      -1.182   0.126  -2.162  0.00  0.00    +0.149 HD
BRANCH   9  13
ATOM     13  C   UNL     1      -0.815  -0.858  -0.317  0.00  0.00    +0.107 C 
BRANCH  13  15
ATOM     14  C   UNL     1       0.378   1.336  -0.241  0.00  0.00    +0.009 C 
ATOM     15  C   UNL     1       0.556  -0.180  -0.346  0.00  0.00    -0.000 C 
ATOM     16  C   UNL     1       1.396  -0.678   0.832  0.00  0.00    +0.009 C 
ENDBRANCH  13  15
ENDBRANCH   9  13
ENDBRANCH   4  10
ENDBRANCH   3   7
ENDBRANCH   1   3
BRANCH   1  17
ATOM     17  C   UNL     1      -3.336   1.185  -8.329  0.00  0.00    -0.042 C 
BRANCH  17  18
ATOM     18  C   UNL     1      -2.273   2.222  -8.071  0.00  0.00    -0.060 A 
ATOM     19  C   UNL     1      -2.634   3.492  -7.663  0.00  0.00    +0.005 A 
ATOM     20  C   UNL     1      -1.663   4.447  -7.425  0.00  0.00    +0.050 A 
ATOM     21  C   UNL     1      -0.324   4.131  -7.595  0.00  0.00    +0.166 A 
ATOM     22  C   UNL     1       0.039   2.852  -8.006  0.00  0.00    +0.166 A 
ATOM     23  C   UNL     1      -0.939   1.898  -8.238  0.00  0.00    +0.051 A 
ATOM     24  O   UNL     1       1.400   2.793  -8.099  0.00  0.00    -0.453 OA
ATOM     25  C   UNL     1       1.842   4.163  -8.137  0.00  0.00    +0.466 C 
ATOM     26  O   UNL     1       0.809   4.875  -7.431  0.00  0.00    -0.453 OA
ENDBRANCH  17  18
ENDBRANCH   1  17
BRANCH   1  27
ATOM     27  C   UNL     1      -4.446  -0.739  -7.424  0.00  0.00    -0.039 C 
BRANCH  27  28
ATOM     28  C   UNL     1      -3.841  -1.653  -8.458  0.00  0.00    -0.029 A 
ATOM     29  C   UNL     1      -4.293  -1.614  -9.764  0.00  0.00    +0.007 A 
ATOM     30  C   UNL     1      -3.739  -2.451 -10.713  0.00  0.00    +0.039 A 
ATOM     31  C   UNL     1      -2.730  -3.331 -10.357  0.00  0.00    +0.126 A 
ATOM     32  C   UNL     1      -2.276  -3.371  -9.050  0.00  0.00    +0.076 A 
ATOM     33  C   UNL     1      -2.829  -2.528  -8.101  0.00  0.00    +0.127 A 
ATOM     34  F   UNL     1      -2.383  -2.562  -6.826  0.00  0.00    -0.205 F 
ATOM     35  F   UNL     1      -2.189  -4.150 -11.286  0.00  0.00    -0.205 F 
ENDBRANCH  27  28
ENDBRANCH   1  27
TORSDOF 9
