REMARK  Name = ZINC20706623
REMARK  2 active torsions:
REMARK  status: ('A' for Active; 'I' for Inactive)
REMARK    1  A    between atoms: C_4  and  O_25
REMARK    2  A    between atoms: C_5  and  C_7
REMARK                            x       y       z     vdW  Elec       q    Type
REMARK                         _______ _______ _______ _____ _____    ______ ____
ROOT
ATOM      1  C   UNL     1      -3.686   2.356   0.001  0.00  0.00    +0.108 C 
ATOM      2  C   UNL     1      -3.531   3.619   0.822  0.00  0.00    +0.029 C 
ATOM      3  C   UNL     1      -4.700   4.610   0.844  0.00  0.00    +0.033 C 
ATOM      4  C   UNL     1      -3.969   5.939   1.056  0.00  0.00    -0.030 C 
ATOM      5  C   UNL     1      -2.733   5.843   0.606  0.00  0.00    -0.023 C 
ATOM      6  C   UNL     1      -2.538   4.502   0.003  0.00  0.00    +0.049 C 
ATOM      7  C   UNL     1      -1.235   3.802   0.018  0.00  0.00    -0.017 A 
ATOM      8  C   UNL     1      -0.041   4.492   0.014  0.00  0.00    +0.026 A 
ATOM      9  C   UNL     1       1.163   3.813   0.009  0.00  0.00    +0.043 A 
ATOM     10  C   UNL     1       1.167   2.429   0.004  0.00  0.00    +0.041 A 
ATOM     11  C   UNL     1      -0.021   1.732   0.012  0.00  0.00    +0.063 A 
ATOM     12  C   UNL     1      -1.246   2.405   0.021  0.00  0.00    +0.050 A 
ATOM     13  N   UNL     1      -2.406   1.633   0.074  0.00  0.00    -0.335 N 
ATOM     14 CL   UNL     1       0.002  -0.004   0.002  0.00  0.00    -0.082 Cl
ATOM     15 CL   UNL     1       2.661   4.690   0.010  0.00  0.00    -0.083 Cl
ATOM     16  H   UNL     1      -2.398   0.537   0.165  0.00  0.00    +0.147 HD
ENDROOT
BRANCH   1  21
ATOM     17  C   UNL     1      -5.508  -0.291   1.982  0.00  0.00    +0.001 A 
ATOM     18  C   UNL     1      -6.822  -0.059   1.617  0.00  0.00    +0.004 A 
ATOM     19  C   UNL     1      -7.124   0.955   0.728  0.00  0.00    +0.046 A 
ATOM     20  C   UNL     1      -6.108   1.740   0.202  0.00  0.00    +0.122 A 
ATOM     21  C   UNL     1      -4.791   1.505   0.571  0.00  0.00    +0.014 A 
ATOM     22  C   UNL     1      -4.494   0.487   1.456  0.00  0.00    +0.009 A 
BRANCH  20  23
ATOM     23  O   UNL     1      -6.402   2.738  -0.672  0.00  0.00    -0.506 OA
ATOM     24  H   UNL     1      -5.596   3.360  -1.089  0.00  0.00    +0.292 HD
ENDBRANCH  20  23
ENDBRANCH   1  21
TORSDOF 2
