REMARK  Name = ZINC20679578
REMARK  3 active torsions:
REMARK  status: ('A' for Active; 'I' for Inactive)
REMARK    1  A    between atoms: C_3  and  O_27
REMARK    2  A    between atoms: C_6  and  C_7
REMARK    3  A    between atoms: C_17  and  N_24
REMARK                            x       y       z     vdW  Elec       q    Type
REMARK                         _______ _______ _______ _____ _____    ______ ____
ROOT
ATOM      1  C   UNL     1      -2.375   3.718  -0.026  0.00  0.00    +0.105 C 
ATOM      2  C   UNL     1      -2.964   3.686   1.369  0.00  0.00    +0.029 C 
ATOM      3  C   UNL     1      -2.086   4.160   2.532  0.00  0.00    +0.033 C 
ATOM      4  C   UNL     1      -2.633   3.321   3.690  0.00  0.00    -0.030 C 
ATOM      5  C   UNL     1      -3.168   2.199   3.221  0.00  0.00    -0.023 C 
ATOM      6  C   UNL     1      -2.995   2.172   1.748  0.00  0.00    +0.051 C 
ATOM      7  C   UNL     1      -3.970   1.527   0.842  0.00  0.00    +0.014 A 
ATOM      8  C   UNL     1      -4.743   0.459   1.249  0.00  0.00    +0.132 A 
ATOM      9  C   UNL     1      -5.636  -0.134   0.378  0.00  0.00    +0.036 A 
ATOM     10  C   UNL     1      -5.754   0.348  -0.913  0.00  0.00    +0.042 A 
ATOM     11  C   UNL     1      -4.990   1.418  -1.327  0.00  0.00    +0.145 A 
ATOM     12  C   UNL     1      -4.088   2.033  -0.454  0.00  0.00    +0.069 A 
ATOM     13  N   UNL     1      -3.377   3.134  -0.932  0.00  0.00    -0.334 N 
ATOM     14  F   UNL     1      -5.115   1.878  -2.592  0.00  0.00    -0.204 F 
ATOM     15  H   UNL     1      -3.534   3.566  -1.931  0.00  0.00    +0.147 HD
ENDROOT
BRANCH   1  21
ATOM     16  C   UNL     1      -1.150   1.581  -0.466  0.00  0.00    +0.009 A 
ATOM     17  C   UNL     1       0.010   0.831  -0.500  0.00  0.00    +0.046 A 
ATOM     18  C   UNL     1       1.219   1.410  -0.144  0.00  0.00    +0.117 A 
ATOM     19  C   UNL     1       1.260   2.739   0.251  0.00  0.00    +0.046 A 
ATOM     20  C   UNL     1       0.096   3.483   0.289  0.00  0.00    +0.009 A 
ATOM     21  C   UNL     1      -1.108   2.904  -0.067  0.00  0.00    -0.027 A 
BRANCH  18  22
ATOM     22  O   UNL     1       2.362   0.676  -0.182  0.00  0.00    -0.507 OA
ATOM     23  H   UNL     1       3.321   1.136   0.101  0.00  0.00    +0.292 HD
ENDBRANCH  18  22
ENDBRANCH   1  21
BRANCH   8  24
ATOM     24  N   UNL     1      -4.613  -0.056   2.631  0.00  0.00    +0.057 N 
ATOM     25  O   UNL     1      -3.514  -0.329   3.078  0.00  0.00    -0.126 OA
ATOM     26  O   UNL     1      -5.606  -0.207   3.320  0.00  0.00    -0.126 OA
ENDBRANCH   8  24
TORSDOF 3
