REMARK  Name = ZINC05286586
REMARK  6 active torsions:
REMARK  status: ('A' for Active; 'I' for Inactive)
REMARK    1  A    between atoms: C_10  and  C_12
REMARK    2  A    between atoms: C_12  and  S_13
REMARK    3  A    between atoms: S_13  and  C_14
REMARK    4  A    between atoms: C_14  and  S_15
REMARK    5  A    between atoms: S_15  and  C_16
REMARK    6  A    between atoms: C_16  and  C_17
REMARK                            x       y       z     vdW  Elec       q    Type
REMARK                         _______ _______ _______ _____ _____    ______ ____
ROOT
ATOM      1  C   UNL     1       0.072   1.024  -2.849  0.00  0.00    +0.139 C 
ENDROOT
BRANCH   1   2
ATOM      2  S   UNL     1      -0.890   1.687  -1.462  0.00  0.00    -0.140 S 
BRANCH   2   3
ATOM      3  C   UNL     1      -0.013   1.086   0.008  0.00  0.00    +0.169 C 
BRANCH   3  13
ATOM      4  C   UNL     1      -1.337   2.002   6.376  0.00  0.00    +0.002 A 
ATOM      5  C   UNL     1      -2.155   2.562   5.405  0.00  0.00    +0.002 A 
ATOM      6  C   UNL     1      -1.880   2.373   4.066  0.00  0.00    +0.028 A 
ATOM      7  C   UNL     1      -0.781   1.618   3.688  0.00  0.00    +0.076 A 
ATOM      8  C   UNL     1       0.050   1.048   4.666  0.00  0.00    +0.089 A 
ATOM      9  C   UNL     1      -0.241   1.250   6.017  0.00  0.00    +0.030 A 
ATOM     10  N   UNL     1       1.032   0.373   4.012  0.00  0.00    -0.235 NA
ATOM     11  C   UNL     1       0.862   0.481   2.729  0.00  0.00    +0.207 A 
ATOM     12  N   UNL     1      -0.242   1.246   2.466  0.00  0.00    -0.268 N 
ATOM     13  C   UNL     1      -0.718   1.572   1.248  0.00  0.00    +0.243 C 
ATOM     14  O   UNL     1      -1.711   2.254   1.150  0.00  0.00    -0.271 OA
ENDBRANCH   3  13
ENDBRANCH   2   3
ENDBRANCH   1   2
BRANCH   1  15
ATOM     15  S   UNL     1      -0.263  -0.750  -3.025  0.00  0.00    -0.140 S 
BRANCH  15  16
ATOM     16  C   UNL     1      -1.915  -0.813  -3.771  0.00  0.00    +0.169 C 
BRANCH  16  17
ATOM     17  C   UNL     1      -2.321  -2.250  -3.973  0.00  0.00    +0.243 C 
ATOM     18  O   UNL     1      -1.572  -3.141  -3.648  0.00  0.00    -0.271 OA
ATOM     19  N   UNL     1      -3.518  -2.542  -4.518  0.00  0.00    -0.268 N 
ATOM     20  C   UNL     1      -4.467  -1.643  -4.926  0.00  0.00    +0.207 A 
ATOM     21  N   UNL     1      -5.497  -2.272  -5.407  0.00  0.00    -0.235 NA
ATOM     22  C   UNL     1      -5.294  -3.614  -5.333  0.00  0.00    +0.089 A 
ATOM     23  C   UNL     1      -4.025  -3.809  -4.764  0.00  0.00    +0.076 A 
ATOM     24  C   UNL     1      -3.545  -5.094  -4.564  0.00  0.00    +0.028 A 
ATOM     25  C   UNL     1      -4.316  -6.179  -4.926  0.00  0.00    +0.002 A 
ATOM     26  C   UNL     1      -5.570  -5.993  -5.490  0.00  0.00    +0.002 A 
ATOM     27  C   UNL     1      -6.062  -4.723  -5.695  0.00  0.00    +0.030 A 
ENDBRANCH  16  17
ENDBRANCH  15  16
ENDBRANCH   1  15
TORSDOF 6
