REMARK  Name = ZINC09700577
REMARK  10 active torsions:
REMARK  status: ('A' for Active; 'I' for Inactive)
REMARK    1  A    between atoms: C_1  and  C_2
REMARK    2  A    between atoms: C_5  and  O_35
REMARK    3  A    between atoms: C_6  and  N_8
REMARK    4  A    between atoms: C_9  and  C_11
REMARK    5  A    between atoms: C_11  and  C_12
REMARK    6  A    between atoms: C_18  and  C_20
REMARK    7  A    between atoms: N_25  and  C_27
REMARK    8  A    between atoms: C_30  and  O_33
REMARK    9  A    between atoms: O_33  and  C_34
REMARK   10  A    between atoms: O_35  and  C_36
REMARK                            x       y       z     vdW  Elec       q    Type
REMARK                         _______ _______ _______ _____ _____    ______ ____
ROOT
ATOM      1  C   UNL     1      -4.304   3.709   6.064  0.00  0.00    +0.059 A 
ATOM      2  C   UNL     1      -4.582   4.957   6.515  0.00  0.00    +0.072 A 
ATOM      3  S   UNL     1      -5.123   4.595   8.179  0.00  0.00    -0.060 S 
ATOM      4  C   UNL     1      -4.923   2.871   8.112  0.00  0.00    +0.165 A 
ATOM      5  N   UNL     1      -4.481   2.691   6.883  0.00  0.00    -0.229 NA
ATOM      6  N   UNL     1      -5.167   1.925   9.100  0.00  0.00    -0.264 N 
ATOM      7  C   UNL     1      -5.623   2.313  10.308  0.00  0.00    +0.224 C 
ATOM      8  O   UNL     1      -5.820   3.488  10.532  0.00  0.00    -0.275 OA
ATOM      9  H   UNL     1      -5.009   0.985   8.921  0.00  0.00    +0.157 HD
ENDROOT
BRANCH   7  10
ATOM     10  C   UNL     1      -5.887   1.286  11.379  0.00  0.00    +0.102 C 
ATOM     11  C   UNL     1      -6.978   0.286  10.931  0.00  0.00    +0.110 C 
ATOM     12  C   UNL     1      -8.263   0.872  11.473  0.00  0.00    +0.221 C 
ATOM     13  O   UNL     1      -9.377   0.554  11.114  0.00  0.00    -0.275 OA
ATOM     14  N   UNL     1      -7.991   1.796  12.411  0.00  0.00    -0.271 N 
ATOM     15  C   UNL     1      -6.544   1.936  12.617  0.00  0.00    +0.127 C 
BRANCH  14  16
ATOM     16  C   UNL     1      -8.963   2.531  13.102  0.00  0.00    +0.036 A 
ATOM     17  C   UNL     1     -10.309   2.249  12.915  0.00  0.00    +0.027 A 
ATOM     18  C   UNL     1     -11.267   2.970  13.601  0.00  0.00    +0.047 A 
ATOM     19  C   UNL     1     -10.884   3.983  14.469  0.00  0.00    +0.120 A 
ATOM     20  C   UNL     1      -9.539   4.268  14.652  0.00  0.00    +0.047 A 
ATOM     21  C   UNL     1      -8.580   3.544  13.971  0.00  0.00    +0.027 A 
BRANCH  19  22
ATOM     22  O   UNL     1     -11.827   4.696  15.139  0.00  0.00    -0.495 OA
ATOM     23  C   UNL     1     -13.193   4.349  14.902  0.00  0.00    +0.277 C 
ENDBRANCH  19  22
ENDBRANCH  14  16
ENDBRANCH   7  10
BRANCH   1  24
ATOM     24  C   UNL     1      -3.797   3.492   4.662  0.00  0.00    +0.152 C 
BRANCH  24  26
ATOM     25  N   UNL     1      -1.858   2.418   3.565  0.00  0.00    -0.282 N 
ATOM     26  C   UNL     1      -2.499   2.728   4.709  0.00  0.00    +0.223 C 
ATOM     27  O   UNL     1      -2.030   2.394   5.776  0.00  0.00    -0.275 OA
ATOM     28  H   UNL     1      -2.199   2.739   2.715  0.00  0.00    +0.155 HD
BRANCH  25  34
ATOM     29  C   UNL     1       2.286   1.092   5.856  0.00  0.00    +0.044 C 
ATOM     30  C   UNL     1       1.327   0.967   4.700  0.00  0.00    -0.048 A 
ATOM     31  C   UNL     1       1.591   0.074   3.678  0.00  0.00    +0.007 A 
ATOM     32  C   UNL     1       0.712  -0.049   2.618  0.00  0.00    +0.048 A 
ATOM     33  C   UNL     1      -0.432   0.731   2.573  0.00  0.00    +0.141 A 
ATOM     34  C   UNL     1      -0.699   1.630   3.602  0.00  0.00    +0.076 A 
ATOM     35  C   UNL     1       0.185   1.744   4.665  0.00  0.00    +0.030 A 
BRANCH  33  36
ATOM     36  O   UNL     1      -1.296   0.615   1.528  0.00  0.00    -0.493 OA
ATOM     37  C   UNL     1      -0.957  -0.328   0.509  0.00  0.00    +0.277 C 
ENDBRANCH  33  36
ENDBRANCH  25  34
ENDBRANCH  24  26
ENDBRANCH   1  24
TORSDOF 7
