REMARK  Name = ZINC11814731
REMARK  12 active torsions:
REMARK  status: ('A' for Active; 'I' for Inactive)
REMARK    1  A    between atoms: C_1  and  C_2
REMARK    2  A    between atoms: C_2  and  C_3
REMARK    3  A    between atoms: C_2  and  C_4
REMARK    4  A    between atoms: C_4  and  C_5
REMARK    5  A    between atoms: C_5  and  C_7
REMARK    6  A    between atoms: C_5  and  N_28
REMARK    7  A    between atoms: C_17  and  C_19
REMARK    8  A    between atoms: C_20  and  C_21
REMARK    9  A    between atoms: C_29  and  C_31
REMARK   10  A    between atoms: C_31  and  N_66
REMARK   11  A    between atoms: C_32  and  N_66
REMARK   12  A    between atoms: C_33  and  N_66
REMARK                            x       y       z     vdW  Elec       q    Type
REMARK                         _______ _______ _______ _____ _____    ______ ____
ROOT
ATOM      1  C   UNL     1       0.813  -0.489  -1.172  0.00  0.00    +0.154 A 
ATOM      2  N   UNL     1       0.440  -0.488  -2.424  0.00  0.00    -0.132 NA
ATOM      3  N   UNL     1       1.387  -0.956  -3.158  0.00  0.00    -0.134 NA
ATOM      4  C   UNL     1       2.407  -1.267  -2.409  0.00  0.00    +0.135 A 
ATOM      5  N   UNL     1       2.066  -1.001  -1.127  0.00  0.00    -0.312 N 
ATOM      6  C   UNL     1       2.848  -1.256   0.083  0.00  0.00    +0.144 C 
ATOM      7  C   UNL     1       4.344  -1.187  -0.238  0.00  0.00    +0.129 C 
ATOM      8  N   UNL     1       4.776  -2.483  -0.784  0.00  0.00    -0.296 N 
ATOM      9  C   UNL     1       4.131  -2.996  -1.995  0.00  0.00    +0.116 C 
ATOM     10  C   UNL     1       3.735  -1.805  -2.873  0.00  0.00    +0.095 C 
ATOM     11  C   UNL     1       5.750  -3.189  -0.178  0.00  0.00    +0.240 C 
ATOM     12  O   UNL     1       6.280  -2.755   0.828  0.00  0.00    -0.271 OA
ENDROOT
BRANCH  11  13
ATOM     13  C   UNL     1       6.172  -4.478  -0.729  0.00  0.00    +0.068 C 
ATOM     14  C   UNL     1       7.147  -5.184  -0.123  0.00  0.00    +0.014 C 
BRANCH  14  15
ATOM     15  C   UNL     1       7.571  -6.480  -0.677  0.00  0.00    -0.007 A 
ATOM     16  C   UNL     1       6.964  -6.982  -1.833  0.00  0.00    +0.009 A 
ATOM     17  C   UNL     1       7.367  -8.197  -2.346  0.00  0.00    +0.001 A 
ATOM     18  C   UNL     1       8.368  -8.920  -1.721  0.00  0.00    +0.001 A 
ATOM     19  C   UNL     1       8.974  -8.431  -0.578  0.00  0.00    +0.020 A 
ATOM     20  C   UNL     1       8.587  -7.214  -0.054  0.00  0.00    +0.048 A 
ATOM     21 CL   UNL     1       9.353  -6.598   1.377  0.00  0.00    -0.083 Cl
ENDBRANCH  14  15
ENDBRANCH  11  13
BRANCH   1  22
ATOM     22  C   UNL     1       0.002  -0.004   0.002  0.00  0.00    +0.141 C 
BRANCH  22  23
ATOM     23  N   UNL     1      -1.368  -0.510  -0.108  0.00  0.00    -0.307 N 
ATOM     24  C   UNL     1      -2.124  -0.655   0.999  0.00  0.00    +0.197 C 
ATOM     25  O   UNL     1      -1.669  -0.367   2.085  0.00  0.00    -0.278 OA
ATOM     26  H   UNL     1      -1.732  -0.741  -0.977  0.00  0.00    +0.149 HD
BRANCH  24  27
ATOM     27  C   UNL     1      -3.534  -1.176   0.885  0.00  0.00    +0.018 C 
BRANCH  27  30
ATOM     28  C   UNL     1      -4.309   0.103   2.789  0.00  0.00    -0.096 C 
ATOM     29  C   UNL     1      -5.420  -1.961   2.184  0.00  0.00    -0.096 C 
ATOM     30  N   UNL     1      -4.122  -1.256   2.239  0.00  0.00    +0.382 N 
ATOM     31  H   UNL     1      -3.484  -1.779   2.850  0.00  0.00    -0.082 HD
ENDBRANCH  27  30
ENDBRANCH  24  27
ENDBRANCH  22  23
BRANCH  22  32
ATOM     32  C   UNL     1      -0.019   1.526   0.010  0.00  0.00    +0.033 C 
BRANCH  32  34
ATOM     33  C   UNL     1       0.073   1.619   2.506  0.00  0.00    +0.007 C 
ATOM     34  C   UNL     1      -0.735   2.019   1.269  0.00  0.00    -0.015 C 
ATOM     35  C   UNL     1      -0.866   3.543   1.217  0.00  0.00    +0.007 C 
ENDBRANCH  32  34
ENDBRANCH  22  32
ENDBRANCH   1  22
TORSDOF 8
