REMARK  Name = ZINC29690940
REMARK  13 active torsions:
REMARK  status: ('A' for Active; 'I' for Inactive)
REMARK    1  A    between atoms: C_1  and  C_2
REMARK    2  A    between atoms: C_4  and  C_33
REMARK    3  A    between atoms: C_5  and  C_32
REMARK    4  A    between atoms: C_6  and  S_9
REMARK    5  A    between atoms: C_7  and  C_8
REMARK    6  A    between atoms: S_9  and  N_12
REMARK    7  A    between atoms: C_15  and  C_18
REMARK    8  A    between atoms: N_20  and  C_21
REMARK    9  A    between atoms: C_21  and  C_22
REMARK   10  A    between atoms: C_22  and  C_24
REMARK   11  A    between atoms: C_22  and  N_29
REMARK   12  A    between atoms: N_29  and  C_30
REMARK   13  A    between atoms: N_29  and  C_31
REMARK                            x       y       z     vdW  Elec       q    Type
REMARK                         _______ _______ _______ _____ _____    ______ ____
ROOT
ATOM      1  N   UNL     1      -3.526   2.328   1.665  0.00  0.00    -0.177 NA
ATOM      2  C   UNL     1      -4.152   1.334   0.783  0.00  0.00    +0.110 C 
ATOM      3  C   UNL     1      -3.138   0.225   0.490  0.00  0.00    +0.030 C 
ATOM      4  C   UNL     1      -1.857   0.846  -0.072  0.00  0.00    +0.077 C 
ATOM      5  C   UNL     1      -1.250   1.794   0.965  0.00  0.00    +0.030 C 
ATOM      6  C   UNL     1      -2.244   2.922   1.263  0.00  0.00    +0.110 C 
ENDROOT
BRANCH   4   7
ATOM      7  C   UNL     1      -0.868  -0.246  -0.392  0.00  0.00    +0.216 C 
ATOM      8  O   UNL     1      -1.160  -1.406  -0.191  0.00  0.00    -0.276 OA
ATOM      9  N   UNL     1       0.337   0.066  -0.907  0.00  0.00    -0.316 N 
ATOM     10  H   UNL     1       0.602   1.118  -1.090  0.00  0.00    +0.149 HD
BRANCH   9  11
ATOM     11  C   UNL     1       1.296  -0.995  -1.225  0.00  0.00    +0.096 C 
BRANCH  11  12
ATOM     12  C   UNL     1       2.524  -0.387  -1.904  0.00  0.00    +0.016 C 
BRANCH  12  13
ATOM     13  C   UNL     1       3.556  -1.461  -2.131  0.00  0.00    +0.093 A 
ATOM     14  C   UNL     1       3.892  -1.991  -3.322  0.00  0.00    +0.043 A 
ATOM     15  C   UNL     1       4.895  -2.955  -3.072  0.00  0.00    +0.041 A 
ATOM     16  C   UNL     1       5.106  -2.964  -1.744  0.00  0.00    +0.195 A 
ATOM     17  O   UNL     1       4.293  -2.057  -1.179  0.00  0.00    -0.469 OA
ENDBRANCH  12  13
BRANCH  12  18
ATOM     18  N   UNL     1       3.090   0.662  -1.045  0.00  0.00    +0.384 N 
ATOM     19  C   UNL     1       3.535   0.106   0.240  0.00  0.00    -0.096 C 
ATOM     20  C   UNL     1       4.188   1.363  -1.724  0.00  0.00    -0.096 C 
ATOM     21  H   UNL     1       2.296   1.395  -0.840  0.00  0.00    -0.082 HD
ENDBRANCH  12  18
ENDBRANCH  11  12
ENDBRANCH   9  11
ENDBRANCH   4   7
BRANCH   1  22
ATOM     22  S   UNL     1      -4.251   2.771   3.087  0.00  0.00    +0.061 S 
ATOM     23  O   UNL     1      -3.856   4.111   3.344  0.00  0.00    -0.153 OA
ATOM     24  O   UNL     1      -5.615   2.385   2.984  0.00  0.00    -0.153 OA
BRANCH  22  30
ATOM     25  C   UNL     1      -1.057   2.161   7.179  0.00  0.00    +0.044 C 
ATOM     26  C   UNL     1      -2.063   1.560   6.232  0.00  0.00    -0.045 A 
ATOM     27  C   UNL     1      -2.431   0.234   6.364  0.00  0.00    +0.007 A 
ATOM     28  C   UNL     1      -3.355  -0.318   5.496  0.00  0.00    -0.045 A 
ATOM     29  C   UNL     1      -3.910   0.457   4.495  0.00  0.00    -0.021 A 
ATOM     30  C   UNL     1      -3.543   1.783   4.363  0.00  0.00    +0.112 A 
ATOM     31  C   UNL     1      -2.616   2.333   5.228  0.00  0.00    -0.021 A 
ATOM     32  C   UNL     1      -2.211   3.777   5.080  0.00  0.00    +0.046 C 
ATOM     33  C   UNL     1      -4.917  -0.144   3.548  0.00  0.00    +0.046 C 
ATOM     34  C   UNL     1      -3.755  -1.763   5.640  0.00  0.00    +0.044 C 
ENDBRANCH  22  30
ENDBRANCH   1  22
TORSDOF 7
