REMARK  Name = ZINC50398319
REMARK  3 active torsions:
REMARK  status: ('A' for Active; 'I' for Inactive)
REMARK    1  A    between atoms: C_3  and  N_10
REMARK    2  A    between atoms: C_6  and  C_7
REMARK    3  A    between atoms: N_13  and  C_14
REMARK                            x       y       z     vdW  Elec       q    Type
REMARK                         _______ _______ _______ _____ _____    ______ ____
ROOT
ATOM      1  N   UNL     1       3.573   2.130  -0.021  0.00  0.00    -0.269 N 
ATOM      2  C   UNL     1       4.748   1.477   0.066  0.00  0.00    +0.304 C 
ATOM      3  O   UNL     1       4.771   0.262   0.060  0.00  0.00    -0.252 OA
ATOM      4  N   UNL     1       5.900   2.172   0.161  0.00  0.00    -0.288 N 
ATOM      5  H   UNL     1       3.559   3.097  -0.093  0.00  0.00    +0.156 HD
ATOM      6  H   UNL     1       5.882   3.142   0.166  0.00  0.00    +0.151 HD
ENDROOT
BRANCH   4   7
ATOM      7  C   UNL     1       7.178   1.462   0.255  0.00  0.00    +0.160 C 
ATOM      8  C   UNL     1       8.204   2.355   0.957  0.00  0.00    +0.033 C 
ATOM      9  C   UNL     1       9.589   1.715   0.802  0.00  0.00    +0.021 C 
ATOM     10  C   UNL     1       9.993   1.774  -0.672  0.00  0.00    +0.104 C 
ATOM     11  N   UNL     1       8.929   1.244  -1.514  0.00  0.00    -0.314 N 
ATOM     12  C   UNL     1       7.661   1.118  -1.125  0.00  0.00    +0.233 C 
ATOM     13  O   UNL     1       6.854   0.702  -1.928  0.00  0.00    -0.274 OA
ATOM     14  H   UNL     1       9.158   0.966  -2.415  0.00  0.00    +0.149 HD
ENDBRANCH   4   7
BRANCH   1  17
ATOM     15  C   UNL     1       1.098  -0.456   0.763  0.00  0.00    +0.017 A 
ATOM     16  C   UNL     1       2.274   0.250   0.747  0.00  0.00    +0.024 A 
ATOM     17  C   UNL     1       2.377   1.416  -0.006  0.00  0.00    +0.035 A 
ATOM     18  C   UNL     1       1.288   1.871  -0.745  0.00  0.00    +0.024 A 
ATOM     19  C   UNL     1       0.109   1.171  -0.733  0.00  0.00    +0.017 A 
ATOM     20  C   UNL     1       0.001  -0.003   0.022  0.00  0.00    +0.063 A 
BRANCH  20  21
ATOM     21  C   UNL     1      -1.262  -0.758   0.037  0.00  0.00    +0.387 C 
ATOM     22  O   UNL     1      -1.355  -1.783   0.698  0.00  0.00    -0.241 OA
ATOM     23  O   UNL     1      -2.220  -0.360  -0.612  0.00  0.00    -0.241 OA
ENDBRANCH  20  21
ENDBRANCH   1  17
TORSDOF 3
