REMARK  Name = ZINC50846805
REMARK  2 active torsions:
REMARK  status: ('A' for Active; 'I' for Inactive)
REMARK    1  A    between atoms: C_6  and  C_7
REMARK    2  A    between atoms: C_11  and  N_13
REMARK                            x       y       z     vdW  Elec       q    Type
REMARK                         _______ _______ _______ _____ _____    ______ ____
ROOT
ATOM      1  C   UNL     1      -1.270  -0.765   0.011  0.00  0.00    +0.162 A 
ATOM      2  N   UNL     1      -1.232  -2.089   0.009  0.00  0.00    -0.232 NA
ATOM      3  C   UNL     1      -2.349  -2.811   0.018  0.00  0.00    +0.050 A 
ATOM      4  C   UNL     1      -3.561  -2.164   0.034  0.00  0.00    +0.013 A 
ATOM      5  C   UNL     1      -3.572  -0.763   0.032  0.00  0.00    +0.123 A 
ATOM      6  N   UNL     1      -2.420  -0.105   0.025  0.00  0.00    -0.213 NA
ATOM      7  C   UNL     1      -4.875  -2.895   0.061  0.00  0.00    +0.040 C 
ATOM      8  C   UNL     1      -4.686  -4.350  -0.367  0.00  0.00    +0.005 C 
ATOM      9  C   UNL     1      -3.542  -4.954   0.456  0.00  0.00    +0.006 C 
ATOM     10  C   UNL     1      -2.231  -4.311   0.008  0.00  0.00    +0.056 C 
ENDROOT
BRANCH   1  16
ATOM     11  C   UNL     1      -0.017   1.390   0.010  0.00  0.00    +0.012 A 
ATOM     12  C   UNL     1       1.170   2.093   0.002  0.00  0.00    +0.016 A 
ATOM     13  C   UNL     1       2.378   1.418  -0.013  0.00  0.00    +0.018 A 
ATOM     14  C   UNL     1       2.402   0.034  -0.021  0.00  0.00    +0.016 A 
ATOM     15  C   UNL     1       1.221  -0.680  -0.013  0.00  0.00    +0.012 A 
ATOM     16  C   UNL     1       0.002  -0.004   0.002  0.00  0.00    +0.019 A 
ATOM     17 BR   UNL     1       4.001   2.389  -0.024  0.00  0.00    -0.050 Br
ENDBRANCH   1  16
BRANCH   5  18
ATOM     18  N   UNL     1      -4.773  -0.072   0.042  0.00  0.00    -0.343 N 
ATOM     19  H   UNL     1      -5.613  -0.558   0.050  0.00  0.00    +0.144 HD
ATOM     20  H   UNL     1      -4.775   0.898   0.041  0.00  0.00    +0.144 HD
ENDBRANCH   5  18
TORSDOF 2
