REMARK  Name = ZINC64131556
REMARK  9 active torsions:
REMARK  status: ('A' for Active; 'I' for Inactive)
REMARK    1  A    between atoms: C_1  and  C_2
REMARK    2  A    between atoms: C_11  and  C_13
REMARK    3  A    between atoms: N_15  and  C_16
REMARK    4  A    between atoms: C_16  and  C_17
REMARK    5  A    between atoms: C_17  and  C_18
REMARK    6  A    between atoms: C_17  and  C_19
REMARK    7  A    between atoms: N_20  and  C_21
REMARK    8  A    between atoms: C_21  and  C_22
REMARK    9  A    between atoms: C_22  and  C_23
REMARK                            x       y       z     vdW  Elec       q    Type
REMARK                         _______ _______ _______ _____ _____    ______ ____
ROOT
ATOM      1  C   UNL     1       0.408   1.815  -0.142  0.00  0.00    +0.014 C 
ATOM      2  C   UNL     1       0.405   0.293   0.021  0.00  0.00    +0.044 C 
ATOM      3  C   UNL     1       0.777  -0.342  -1.293  0.00  0.00    +0.028 A 
ATOM      4  C   UNL     1       0.388   0.059  -2.581  0.00  0.00    +0.126 A 
ATOM      5  N   UNL     1       0.799  -0.630  -3.638  0.00  0.00    -0.221 NA
ATOM      6  C   UNL     1       1.571  -1.691  -3.514  0.00  0.00    +0.224 A 
ATOM      7  N   UNL     1       1.970  -2.105  -2.326  0.00  0.00    -0.229 NA
ATOM      8  C   UNL     1       1.605  -1.461  -1.230  0.00  0.00    +0.106 A 
ATOM      9  S   UNL     1       1.983  -1.712   0.490  0.00  0.00    -0.092 S 
ATOM     10  C   UNL     1       1.394  -0.096   1.143  0.00  0.00    +0.146 C 
ATOM     11  N   UNL     1      -0.425   1.170  -2.749  0.00  0.00    -0.328 N 
ATOM     12  H   UNL     1      -0.796   1.621  -1.974  0.00  0.00    +0.147 HD
ENDROOT
BRANCH  10  13
ATOM     13  C   UNL     1       0.689  -0.264   2.464  0.00  0.00    +0.227 C 
ATOM     14  O   UNL     1      -0.435  -0.720   2.498  0.00  0.00    -0.275 OA
ATOM     15  N   UNL     1       1.306   0.092   3.608  0.00  0.00    -0.314 N 
ATOM     16  H   UNL     1       2.204   0.456   3.581  0.00  0.00    +0.149 HD
BRANCH  15  17
ATOM     17  C   UNL     1       0.620  -0.071   4.892  0.00  0.00    +0.107 C 
BRANCH  17  18
ATOM     18  C   UNL     1       1.534   0.405   6.023  0.00  0.00    -0.000 C 
ATOM     19  C   UNL     1       0.774   0.351   7.350  0.00  0.00    +0.009 C 
ATOM     20  C   UNL     1       2.762  -0.504   6.102  0.00  0.00    +0.009 C 
ENDBRANCH  17  18
ENDBRANCH  15  17
ENDBRANCH  10  13
BRANCH  11  21
ATOM     21  C   UNL     1      -0.722   1.664  -4.096  0.00  0.00    +0.107 C 
BRANCH  21  22
ATOM     22  C   UNL     1      -1.632   2.890  -4.000  0.00  0.00    +0.052 C 
BRANCH  22  23
ATOM     23  C   UNL     1      -1.938   3.398  -5.385  0.00  0.00    -0.040 C 
ATOM     24  C   UNL     1      -3.024   3.106  -6.137  0.00  0.00    -0.001 A 
ATOM     25  C   UNL     1      -4.199   2.260  -5.900  0.00  0.00    +0.010 A 
ATOM     26  C   UNL     1      -5.142   2.162  -6.864  0.00  0.00    +0.001 A 
ATOM     27  C   UNL     1      -5.026   2.847  -8.082  0.00  0.00    +0.002 A 
ATOM     28  C   UNL     1      -3.975   3.643  -8.373  0.00  0.00    +0.026 A 
ATOM     29  C   UNL     1      -2.924   3.819  -7.431  0.00  0.00    +0.043 A 
ATOM     30  N   UNL     1      -1.820   4.524  -7.477  0.00  0.00    -0.380 N 
ATOM     31  C   UNL     1      -1.096   4.343  -6.214  0.00  0.00    +0.144 C 
ATOM     32  H   UNL     1      -1.531   5.077  -8.220  0.00  0.00    +0.160 HD
ENDBRANCH  22  23
ENDBRANCH  21  22
ENDBRANCH  11  21
TORSDOF 6
