REMARK  Name = ZINC13571125
REMARK  3 active torsions:
REMARK  status: ('A' for Active; 'I' for Inactive)
REMARK    1  A    between atoms: C_1  and  C_2
REMARK    2  A    between atoms: C_2  and  C_4
REMARK    3  A    between atoms: C_5  and  C_16
REMARK                            x       y       z     vdW  Elec       q    Type
REMARK                         _______ _______ _______ _____ _____    ______ ____
ROOT
ATOM      1  C   UNL     1      -0.107  -0.707  -1.223  0.00  0.00    +0.090 A 
ATOM      2  C   UNL     1      -0.200  -2.108  -1.236  0.00  0.00    +0.007 A 
ATOM      3  C   UNL     1      -0.311  -2.783  -2.535  0.00  0.00    +0.007 A 
ATOM      4  C   UNL     1      -0.407  -4.178  -2.606  0.00  0.00    +0.010 A 
ATOM      5  C   UNL     1      -0.510  -4.791  -3.823  0.00  0.00    +0.001 A 
ATOM      6  C   UNL     1      -0.520  -4.040  -4.991  0.00  0.00    +0.002 A 
ATOM      7  C   UNL     1      -0.427  -2.667  -4.944  0.00  0.00    +0.026 A 
ATOM      8  C   UNL     1      -0.321  -2.019  -3.716  0.00  0.00    +0.050 A 
ATOM      9  N   UNL     1      -0.228  -0.643  -3.663  0.00  0.00    -0.321 N 
ATOM     10  H   UNL     1      -0.237  -0.138  -4.492  0.00  0.00    +0.169 HD
ATOM     11  C   UNL     1      -0.130   0.017  -2.497  0.00  0.00    +0.260 A 
ATOM     12  O   UNL     1      -0.055   1.232  -2.499  0.00  0.00    -0.267 OA
ENDROOT
BRANCH   2  13
ATOM     13  C   UNL     1      -0.187  -2.880   0.020  0.00  0.00    -0.016 A 
ATOM     14  C   UNL     1       0.872  -3.750   0.299  0.00  0.00    +0.010 A 
ATOM     15  C   UNL     1       0.879  -4.468   1.475  0.00  0.00    +0.020 A 
ATOM     16  C   UNL     1      -0.161  -4.330   2.380  0.00  0.00    +0.041 A 
ATOM     17  C   UNL     1      -1.214  -3.471   2.110  0.00  0.00    +0.020 A 
ATOM     18  C   UNL     1      -1.230  -2.742   0.941  0.00  0.00    +0.010 A 
ATOM     19 CL   UNL     1      -0.145  -5.239   3.859  0.00  0.00    -0.084 Cl
ENDBRANCH   2  13
BRANCH   1  21
ATOM     20  C   UNL     1      -0.045   1.502   0.014  0.00  0.00    +0.092 C 
ATOM     21  C   UNL     1       0.002  -0.004   0.002  0.00  0.00    +0.166 C 
ATOM     22  O   UNL     1       0.134  -0.615   1.043  0.00  0.00    -0.292 OA
ENDBRANCH   1  21
TORSDOF 2
