REMARK  Name = ZINC10161542
REMARK  11 active torsions:
REMARK  status: ('A' for Active; 'I' for Inactive)
REMARK    1  A    between atoms: C_1  and  C_2
REMARK    2  A    between atoms: C_7  and  C_8
REMARK    3  A    between atoms: N_10  and  N_11
REMARK    4  A    between atoms: C_12  and  C_14
REMARK    5  A    between atoms: C_14  and  N_15
REMARK    6  A    between atoms: N_22  and  C_23
REMARK    7  A    between atoms: C_23  and  C_24
REMARK    8  A    between atoms: C_24  and  C_25
REMARK    9  A    between atoms: C_24  and  C_26
REMARK   10  A    between atoms: N_27  and  C_30
REMARK   11  A    between atoms: C_30  and  C_31
REMARK                            x       y       z     vdW  Elec       q    Type
REMARK                         _______ _______ _______ _____ _____    ______ ____
ROOT
ATOM      1  N   UNL     1       2.151   3.420   2.472  0.00  0.00    -0.250 N 
ATOM      2  C   UNL     1       1.095   3.462   1.633  0.00  0.00    +0.283 A 
ATOM      3  O   UNL     1       0.953   4.399   0.868  0.00  0.00    -0.265 OA
ATOM      4  C   UNL     1       0.158   2.407   1.652  0.00  0.00    +0.151 A 
ATOM      5  C   UNL     1       0.345   1.351   2.534  0.00  0.00    +0.168 A 
ATOM      6  N   UNL     1      -0.668   0.500   2.353  0.00  0.00    -0.218 NA
ATOM      7  C   UNL     1      -1.471   0.956   1.426  0.00  0.00    +0.202 A 
ATOM      8  N   UNL     1      -1.002   2.129   0.957  0.00  0.00    -0.324 N 
ATOM      9  N   UNL     1       1.449   1.366   3.371  0.00  0.00    -0.272 N 
ATOM     10  C   UNL     1       2.320   2.392   3.321  0.00  0.00    +0.334 A 
ATOM     11  O   UNL     1       3.283   2.388   4.063  0.00  0.00    -0.246 OA
ENDROOT
BRANCH   1  12
ATOM     12  C   UNL     1       3.128   4.511   2.458  0.00  0.00    +0.227 C 
BRANCH  12  14
ATOM     13  N   UNL     1       3.460   6.682   3.596  0.00  0.00    -0.233 N 
ATOM     14  C   UNL     1       2.707   5.576   3.438  0.00  0.00    +0.249 C 
ATOM     15  O   UNL     1       1.691   5.436   4.085  0.00  0.00    -0.272 OA
ATOM     16  H   UNL     1       4.273   6.794   3.078  0.00  0.00    +0.173 HD
BRANCH  13  19
ATOM     17  C   UNL     1       3.822   8.778   4.665  0.00  0.00    +0.260 C 
ATOM     18  O   UNL     1       4.840   8.918   4.016  0.00  0.00    -0.269 OA
ATOM     19  N   UNL     1       3.069   7.672   4.507  0.00  0.00    -0.230 N 
ATOM     20  H   UNL     1       2.256   7.560   5.025  0.00  0.00    +0.173 HD
BRANCH  17  27
ATOM     21  C   UNL     1       5.576  11.020   5.183  0.00  0.00    +0.044 C 
ATOM     22  C   UNL     1       4.247  10.908   5.885  0.00  0.00    -0.038 A 
ATOM     23  C   UNL     1       3.856  11.879   6.784  0.00  0.00    +0.004 A 
ATOM     24  C   UNL     1       2.636  11.778   7.428  0.00  0.00    +0.000 A 
ATOM     25  C   UNL     1       1.800  10.704   7.177  0.00  0.00    +0.001 A 
ATOM     26  C   UNL     1       2.177   9.730   6.276  0.00  0.00    +0.013 A 
ATOM     27  C   UNL     1       3.409   9.823   5.627  0.00  0.00    +0.041 A 
ENDBRANCH  17  27
ENDBRANCH  13  19
ENDBRANCH  12  14
ENDBRANCH   1  12
BRANCH   8  28
ATOM     28  C   UNL     1      -1.612   2.956  -0.088  0.00  0.00    +0.126 C 
BRANCH  28  29
ATOM     29  C   UNL     1      -0.967   2.631  -1.437  0.00  0.00    +0.003 C 
ATOM     30  C   UNL     1       0.508   3.037  -1.408  0.00  0.00    +0.009 C 
ATOM     31  C   UNL     1      -1.687   3.401  -2.545  0.00  0.00    +0.009 C 
ENDBRANCH  28  29
ENDBRANCH   8  28
BRANCH   9  32
ATOM     32  C   UNL     1       1.669   0.265   4.311  0.00  0.00    +0.163 C 
BRANCH  32  33
ATOM     33  C   UNL     1       0.989   0.577   5.619  0.00  0.00    -0.028 A 
ATOM     34  C   UNL     1       1.676   1.249   6.613  0.00  0.00    +0.005 A 
ATOM     35  C   UNL     1       1.051   1.540   7.811  0.00  0.00    +0.000 A 
ATOM     36  C   UNL     1      -0.259   1.149   8.019  0.00  0.00    +0.000 A 
ATOM     37  C   UNL     1      -0.945   0.472   7.027  0.00  0.00    +0.000 A 
ATOM     38  C   UNL     1      -0.321   0.186   5.828  0.00  0.00    +0.005 A 
ENDBRANCH  32  33
ENDBRANCH   9  32
TORSDOF 8
