REMARK  Name = ZINC36628764
REMARK  5 active torsions:
REMARK  status: ('A' for Active; 'I' for Inactive)
REMARK    1  A    between atoms: C_4  and  C_15
REMARK    2  A    between atoms: C_6  and  S_7
REMARK    3  A    between atoms: S_7  and  N_10
REMARK    4  A    between atoms: N_17  and  N_18
REMARK    5  A    between atoms: C_19  and  C_21
REMARK                            x       y       z     vdW  Elec       q    Type
REMARK                         _______ _______ _______ _____ _____    ______ ____
ROOT
ATOM      1  C   UNL     1       3.694  -0.687  -0.038  0.00  0.00    +0.262 C 
ATOM      2  O   UNL     1       4.738  -0.063  -0.046  0.00  0.00    -0.269 OA
ATOM      3  N   UNL     1       3.715  -2.034  -0.046  0.00  0.00    -0.230 N 
ATOM      4  H   UNL     1       2.883  -2.532  -0.040  0.00  0.00    +0.173 HD
ENDROOT
BRANCH   1   8
ATOM      5  C   UNL     1      -0.017   1.380   0.010  0.00  0.00    +0.030 A 
ATOM      6  C   UNL     1       1.168   2.094   0.002  0.00  0.00    +0.022 A 
ATOM      7  C   UNL     1       2.378   1.429  -0.013  0.00  0.00    +0.053 A 
ATOM      8  C   UNL     1       2.404   0.032  -0.021  0.00  0.00    +0.058 A 
ATOM      9  C   UNL     1       1.204  -0.681  -0.013  0.00  0.00    +0.043 A 
ATOM     10  C   UNL     1       0.002  -0.004   0.002  0.00  0.00    +0.106 A 
ATOM     11 CL   UNL     1       3.864   2.327  -0.024  0.00  0.00    -0.083 Cl
BRANCH  10  12
ATOM     12  S   UNL     1      -1.513  -0.903   0.012  0.00  0.00    +0.061 S 
ATOM     13  O   UNL     1      -1.222  -2.184   0.553  0.00  0.00    -0.153 OA
ATOM     14  O   UNL     1      -2.493  -0.043   0.577  0.00  0.00    -0.153 OA
BRANCH  12  15
ATOM     15  N   UNL     1      -1.949  -1.145  -1.567  0.00  0.00    -0.177 NA
ATOM     16  C   UNL     1      -2.779  -0.239  -2.375  0.00  0.00    +0.109 C 
ATOM     17  C   UNL     1      -2.941  -0.885  -3.768  0.00  0.00    +0.018 C 
ATOM     18  C   UNL     1      -2.664  -2.386  -3.489  0.00  0.00    +0.018 C 
ATOM     19  C   UNL     1      -1.564  -2.300  -2.398  0.00  0.00    +0.109 C 
ENDBRANCH  12  15
ENDBRANCH  10  12
ENDBRANCH   1   8
BRANCH   3  20
ATOM     20  N   UNL     1       4.939  -2.716  -0.062  0.00  0.00    -0.234 N 
ATOM     21  C   UNL     1       4.960  -4.064  -0.070  0.00  0.00    +0.235 C 
ATOM     22  O   UNL     1       3.919  -4.686  -0.062  0.00  0.00    -0.274 OA
ATOM     23  H   UNL     1       5.771  -2.218  -0.068  0.00  0.00    +0.173 HD
BRANCH  21  24
ATOM     24  C   UNL     1       6.276  -4.797  -0.087  0.00  0.00    +0.049 C 
ATOM     25  C   UNL     1       7.060  -4.408  -1.343  0.00  0.00    +0.019 C 
ATOM     26  C   UNL     1       8.397  -5.152  -1.360  0.00  0.00    -0.009 C 
ATOM     27  C   UNL     1       8.140  -6.661  -1.366  0.00  0.00    +0.007 C 
ATOM     28  C   UNL     1       7.357  -7.050  -0.110  0.00  0.00    -0.009 C 
ATOM     29  C   UNL     1       6.020  -6.305  -0.093  0.00  0.00    +0.019 C 
ATOM     30  C   UNL     1       8.166  -6.674   1.133  0.00  0.00    +0.007 C 
ATOM     31  C   UNL     1       8.422  -5.166   1.138  0.00  0.00    -0.009 C 
ATOM     32  C   UNL     1       9.206  -4.777  -0.117  0.00  0.00    +0.007 C 
ATOM     33  C   UNL     1       7.086  -4.421   1.156  0.00  0.00    +0.019 C 
ENDBRANCH  21  24
ENDBRANCH   3  20
TORSDOF 5
