REMARK  Name = ZINC40815766
REMARK  5 active torsions:
REMARK  status: ('A' for Active; 'I' for Inactive)
REMARK    1  A    between atoms: C_1  and  C_2
REMARK    2  A    between atoms: C_6  and  C_7
REMARK    3  A    between atoms: N_19  and  N_20
REMARK    4  A    between atoms: C_21  and  C_23
REMARK    5  A    between atoms: C_23  and  C_24
REMARK                            x       y       z     vdW  Elec       q    Type
REMARK                         _______ _______ _______ _____ _____    ______ ____
ROOT
ATOM      1  C   UNL     1       0.546   1.438   0.014  0.00  0.00    +0.048 C 
ATOM      2  C   UNL     1       0.194  -0.028   0.004  0.00  0.00    +0.009 A 
ATOM      3  C   UNL     1       0.037  -0.846  -1.122  0.00  0.00    +0.042 A 
ATOM      4  C   UNL     1      -0.282  -2.107  -0.674  0.00  0.00    +0.115 A 
ATOM      5  O   UNL     1      -0.318  -2.074   0.656  0.00  0.00    -0.454 OA
ATOM      6  C   UNL     1      -0.029  -0.826   1.091  0.00  0.00    +0.193 A 
ATOM      7  C   UNL     1      -0.535  -3.267  -1.602  0.00  0.00    +0.075 C 
ATOM      8  C   UNL     1      -0.887  -2.738  -2.995  0.00  0.00    +0.014 C 
ATOM      9  C   UNL     1       0.179  -1.751  -3.483  0.00  0.00    +0.058 C 
ATOM     10  C   UNL     1       0.164  -0.539  -2.564  0.00  0.00    +0.070 C 
ATOM     11  N   UNL     1       0.255   0.675  -3.011  0.00  0.00    -0.184 NA
ENDROOT
BRANCH   6  12
ATOM     12  C   UNL     1       0.031  -0.400   2.493  0.00  0.00    +0.282 C 
ATOM     13  O   UNL     1       0.152   0.780   2.766  0.00  0.00    -0.267 OA
ATOM     14  N   UNL     1      -0.049  -1.315   3.480  0.00  0.00    -0.295 N 
ATOM     15  C   UNL     1      -0.026  -2.751   3.172  0.00  0.00    +0.108 C 
ATOM     16  C   UNL     1       1.079  -3.415   3.999  0.00  0.00    +0.019 C 
ATOM     17  C   UNL     1       0.865  -3.093   5.480  0.00  0.00    +0.003 C 
ATOM     18  C   UNL     1       0.947  -1.580   5.692  0.00  0.00    +0.019 C 
ATOM     19  C   UNL     1      -0.153  -0.894   4.884  0.00  0.00    +0.108 C 
ENDBRANCH   6  12
BRANCH  11  20
ATOM     20  N   UNL     1       0.373   0.908  -4.388  0.00  0.00    -0.206 N 
ATOM     21  C   UNL     1       0.468   2.169  -4.853  0.00  0.00    +0.237 C 
ATOM     22  O   UNL     1       0.451   3.103  -4.079  0.00  0.00    -0.274 OA
ATOM     23  H   UNL     1       0.386   0.161  -5.006  0.00  0.00    +0.177 HD
BRANCH  21  24
ATOM     24  C   UNL     1       0.595   2.419  -6.333  0.00  0.00    +0.132 C 
BRANCH  24  25
ATOM     25  C   UNL     1       0.683   3.902  -6.587  0.00  0.00    -0.039 A 
ATOM     26  C   UNL     1      -0.469   4.638  -6.790  0.00  0.00    +0.004 A 
ATOM     27  C   UNL     1      -0.388   5.998  -7.023  0.00  0.00    +0.000 A 
ATOM     28  C   UNL     1       0.846   6.622  -7.051  0.00  0.00    +0.000 A 
ATOM     29  C   UNL     1       1.998   5.886  -6.847  0.00  0.00    +0.000 A 
ATOM     30  C   UNL     1       1.916   4.527  -6.610  0.00  0.00    +0.004 A 
ENDBRANCH  24  25
ENDBRANCH  21  24
ENDBRANCH  11  20
TORSDOF 4
