REMARK  Name = ZINC20796155
REMARK  5 active torsions:
REMARK  status: ('A' for Active; 'I' for Inactive)
REMARK    1  A    between atoms: C_1  and  C_2
REMARK    2  A    between atoms: C_2  and  C_3
REMARK    3  A    between atoms: C_3  and  C_4
REMARK    4  A    between atoms: C_16  and  C_19
REMARK    5  A    between atoms: C_23  and  C_25
REMARK                            x       y       z     vdW  Elec       q    Type
REMARK                         _______ _______ _______ _____ _____    ______ ____
ROOT
ATOM      1  C   UNL     1       3.194   2.525  -0.012  0.00  0.00    +0.154 A 
ATOM      2  N   UNL     1       2.375   3.569   0.003  0.00  0.00    -0.194 NA
ATOM      3  C   UNL     1       1.114   3.152   0.010  0.00  0.00    +0.253 A 
ATOM      4  N   UNL     1      -0.050   3.815   0.022  0.00  0.00    -0.215 NA
ATOM      5  C   UNL     1      -1.200   3.180   0.026  0.00  0.00    +0.058 A 
ATOM      6  C   UNL     1      -1.211   1.767   0.017  0.00  0.00    +0.057 A 
ATOM      7  C   UNL     1      -0.013   1.076   0.008  0.00  0.00    +0.129 A 
ATOM      8  N   UNL     1       1.143   1.785   0.001  0.00  0.00    -0.203 N 
ATOM      9  N   UNL     1       2.494   1.417  -0.015  0.00  0.00    -0.149 NA
ATOM     10  C   UNL     1      -2.489   1.037   0.043  0.00  0.00    +0.167 C 
ATOM     11  O   UNL     1      -2.528  -0.157   0.252  0.00  0.00    -0.292 OA
ATOM     12  C   UNL     1      -3.754   1.833  -0.207  0.00  0.00    +0.088 C 
ATOM     13  C   UNL     1      -3.637   3.143   0.582  0.00  0.00    +0.032 C 
ATOM     14  C   UNL     1      -2.480   3.971   0.030  0.00  0.00    +0.065 C 
ENDROOT
BRANCH  13  15
ATOM     15  C   UNL     1      -4.920   3.923   0.451  0.00  0.00    -0.043 A 
ATOM     16  C   UNL     1      -5.358   4.329  -0.796  0.00  0.00    +0.004 A 
ATOM     17  C   UNL     1      -6.536   5.041  -0.917  0.00  0.00    +0.001 A 
ATOM     18  C   UNL     1      -7.273   5.355   0.210  0.00  0.00    +0.003 A 
ATOM     19  C   UNL     1      -6.832   4.954   1.457  0.00  0.00    -0.050 A 
ATOM     20  C   UNL     1      -5.655   4.239   1.578  0.00  0.00    +0.007 A 
ATOM     21  C   UNL     1      -7.635   5.297   2.686  0.00  0.00    +0.044 C 
ENDBRANCH  13  15
BRANCH   1  22
ATOM     22  C   UNL     1       4.699   2.603  -0.025  0.00  0.00    +0.078 C 
BRANCH  22  24
ATOM     23  C   UNL     1       6.723   2.719  -1.484  0.00  0.00    +0.004 C 
ATOM     24  C   UNL     1       5.196   2.640  -1.472  0.00  0.00    +0.004 C 
ENDBRANCH  22  24
ENDBRANCH   1  22
TORSDOF 3
