REMARK  Name = ZINC06193151
REMARK  13 active torsions:
REMARK  status: ('A' for Active; 'I' for Inactive)
REMARK    1  A    between atoms: C_1  and  C_2
REMARK    2  A    between atoms: C_2  and  N_69
REMARK    3  A    between atoms: C_3  and  C_4
REMARK    4  A    between atoms: C_3  and  N_69
REMARK    5  A    between atoms: C_5  and  C_6
REMARK    6  A    between atoms: C_5  and  N_69
REMARK    7  A    between atoms: C_6  and  C_7
REMARK    8  A    between atoms: C_7  and  N_8
REMARK    9  A    between atoms: N_8  and  C_9
REMARK   10  A    between atoms: C_9  and  N_11
REMARK   11  A    between atoms: N_11  and  C_12
REMARK   12  A    between atoms: N_11  and  C_28
REMARK   13  A    between atoms: C_12  and  C_13
REMARK                            x       y       z     vdW  Elec       q    Type
REMARK                         _______ _______ _______ _____ _____    ______ ____
ROOT
ATOM      1  N   UNL     1       5.310   0.931  -1.343  0.00  0.00    -0.305 N 
ENDROOT
BRANCH   1   2
ATOM      2  C   UNL     1       5.012  -0.196  -2.230  0.00  0.00    +0.075 C 
ATOM      3  C   UNL     1       6.321  -0.806  -2.737  0.00  0.00    +0.022 C 
ATOM      4  C   UNL     1       6.010  -1.983  -3.664  0.00  0.00    +0.002 C 
ATOM      5  C   UNL     1       5.182  -1.491  -4.853  0.00  0.00    +0.000 C 
ATOM      6  C   UNL     1       3.873  -0.881  -4.346  0.00  0.00    +0.002 C 
ATOM      7  C   UNL     1       4.184   0.296  -3.419  0.00  0.00    +0.022 C 
ENDBRANCH   1   2
BRANCH   1   8
ATOM      8  C   UNL     1       6.063   1.957  -1.787  0.00  0.00    +0.133 C 
ATOM      9  S   UNL     1       6.558   2.010  -3.425  0.00  0.00    -0.019 S 
BRANCH   8  10
ATOM     10  N   UNL     1       6.425   2.942  -0.941  0.00  0.00    -0.326 N 
ATOM     11  H   UNL     1       6.209   2.876   0.002  0.00  0.00    +0.148 HD
BRANCH  10  12
ATOM     12  C   UNL     1       7.147   4.113  -1.446  0.00  0.00    +0.101 C 
BRANCH  12  13
ATOM     13  C   UNL     1       7.436   5.072  -0.290  0.00  0.00    +0.000 C 
BRANCH  13  14
ATOM     14  C   UNL     1       8.189   6.295  -0.818  0.00  0.00    -0.077 C 
BRANCH  14  15
ATOM     15  N   UNL     1       8.548   7.160   0.326  0.00  0.00    +0.379 N 
ATOM     16  H   UNL     1       7.748   7.214   0.967  0.00  0.00    -0.082 HD
BRANCH  15  18
ATOM     17  C   UNL     1       9.913   7.373   2.345  0.00  0.00    -0.017 C 
ATOM     18  C   UNL     1       9.704   6.588   1.048  0.00  0.00    -0.082 C 
ENDBRANCH  15  18
BRANCH  15  19
ATOM     19  C   UNL     1       8.874   8.520  -0.152  0.00  0.00    -0.082 C 
ATOM     20  C   UNL     1       7.569   9.250  -0.479  0.00  0.00    -0.017 C 
ENDBRANCH  15  19
ENDBRANCH  14  15
ENDBRANCH  13  14
ENDBRANCH  12  13
ENDBRANCH  10  12
ENDBRANCH   8  10
ENDBRANCH   1   8
BRANCH   1  21
ATOM     21  C   UNL     1       4.790   0.943   0.027  0.00  0.00    +0.147 C 
BRANCH  21  22
ATOM     22  C   UNL     1       3.384   1.483   0.025  0.00  0.00    +0.035 A 
ATOM     23  C   UNL     1       2.331   0.628  -0.031  0.00  0.00    +0.020 A 
ATOM     24  C   UNL     1       0.978   1.184  -0.029  0.00  0.00    +0.003 A 
ATOM     25  C   UNL     1      -0.146   0.350  -0.085  0.00  0.00    +0.059 A 
ATOM     26  C   UNL     1      -1.407   0.902  -0.086  0.00  0.00    +0.167 A 
ATOM     27  C   UNL     1      -1.569   2.292  -0.022  0.00  0.00    +0.168 A 
ATOM     28  C   UNL     1      -0.465   3.123   0.032  0.00  0.00    +0.075 A 
ATOM     29  C   UNL     1       0.814   2.582   0.029  0.00  0.00    +0.053 A 
ATOM     30  N   UNL     1       1.927   3.396   0.084  0.00  0.00    -0.322 N 
ATOM     31  H   UNL     1       1.810   4.388   0.125  0.00  0.00    +0.169 HD
ATOM     32  C   UNL     1       3.166   2.875   0.082  0.00  0.00    +0.254 A 
ATOM     33  O   UNL     1       4.127   3.625   0.132  0.00  0.00    -0.268 OA
ATOM     34  O   UNL     1      -2.904   2.573  -0.031  0.00  0.00    -0.453 OA
ATOM     35  C   UNL     1      -3.560   1.341   0.320  0.00  0.00    +0.466 C 
ATOM     36  O   UNL     1      -2.644   0.323  -0.125  0.00  0.00    -0.453 OA
ENDBRANCH  21  22
ENDBRANCH   1  21
TORSDOF 11
