REMARK  Name = ZINC12498225
REMARK  14 active torsions:
REMARK  status: ('A' for Active; 'I' for Inactive)
REMARK    1  A    between atoms: C_1  and  C_2
REMARK    2  A    between atoms: C_2  and  C_3
REMARK    3  A    between atoms: C_3  and  C_4
REMARK    4  A    between atoms: C_4  and  C_35
REMARK    5  A    between atoms: C_9  and  C_11
REMARK    6  A    between atoms: C_13  and  O_19
REMARK    7  A    between atoms: C_16  and  O_17
REMARK    8  A    between atoms: O_17  and  C_18
REMARK    9  A    between atoms: O_19  and  C_20
REMARK   10  A    between atoms: N_23  and  C_26
REMARK   11  A    between atoms: C_30  and  C_32
REMARK   12  A    between atoms: C_32  and  C_34
REMARK   13  A    between atoms: C_35  and  O_37
REMARK   14  A    between atoms: O_37  and  C_38
REMARK                            x       y       z     vdW  Elec       q    Type
REMARK                         _______ _______ _______ _____ _____    ______ ____
ROOT
ATOM      1  C   UNL     1      -1.847   2.526  -0.641  0.00  0.00    +0.044 C 
ATOM      2  C   UNL     1      -1.290   3.056   0.658  0.00  0.00    +0.086 C 
ATOM      3  C   UNL     1      -0.795   1.680   1.262  0.00  0.00    +0.077 C 
ATOM      4  C   UNL     1      -0.019   1.132   0.119  0.00  0.00    -0.023 C 
ATOM      5  C   UNL     1      -0.439   2.120   2.606  0.00  0.00    +0.229 C 
ATOM      6  O   UNL     1       0.480   1.727   3.292  0.00  0.00    -0.275 OA
ATOM      7  N   UNL     1      -1.371   3.076   2.924  0.00  0.00    -0.210 N 
ATOM      8  C   UNL     1      -2.072   3.511   1.830  0.00  0.00    +0.229 C 
ATOM      9  O   UNL     1      -3.111   4.136   1.823  0.00  0.00    -0.275 OA
ATOM     10  N   UNL     1      -0.765   1.595  -1.086  0.00  0.00    +0.395 N 
ATOM     11  H   UNL     1      -0.126   2.086  -1.723  0.00  0.00    -0.083 HD
ATOM     12  H   UNL     1      -1.178   0.789  -1.569  0.00  0.00    -0.083 HD
ENDROOT
BRANCH   4  13
ATOM     13  C   UNL     1       1.381   1.687   0.121  0.00  0.00    -0.015 A 
ATOM     14  C   UNL     1       1.678   2.817  -0.618  0.00  0.00    +0.051 A 
ATOM     15  C   UNL     1       2.967   3.328  -0.616  0.00  0.00    +0.121 A 
ATOM     16  C   UNL     1       3.959   2.705   0.127  0.00  0.00    +0.049 A 
ATOM     17  C   UNL     1       3.663   1.576   0.865  0.00  0.00    +0.049 A 
ATOM     18  C   UNL     1       2.372   1.068   0.868  0.00  0.00    +0.122 A 
BRANCH  18  19
ATOM     19  O   UNL     1       2.079  -0.040   1.599  0.00  0.00    -0.495 OA
ATOM     20  C   UNL     1       3.148  -0.627   2.345  0.00  0.00    +0.277 C 
ENDBRANCH  18  19
BRANCH  15  21
ATOM     21  O   UNL     1       3.259   4.440  -1.343  0.00  0.00    -0.495 OA
ATOM     22  C   UNL     1       4.607   4.911  -1.295  0.00  0.00    +0.277 C 
ENDBRANCH  15  21
ENDBRANCH   4  13
BRANCH   7  23
ATOM     23  C   UNL     1      -1.582   3.555   4.224  0.00  0.00    +0.045 A 
ATOM     24  C   UNL     1      -2.544   4.531   4.458  0.00  0.00    +0.024 A 
ATOM     25  C   UNL     1      -2.761   5.004   5.739  0.00  0.00    +0.003 A 
ATOM     26  C   UNL     1      -2.017   4.519   6.794  0.00  0.00    +0.011 A 
ATOM     27  C   UNL     1      -1.042   3.542   6.570  0.00  0.00    +0.019 A 
ATOM     28  C   UNL     1      -0.828   3.061   5.275  0.00  0.00    +0.035 A 
BRANCH  27  29
ATOM     29  C   UNL     1      -0.245   3.022   7.693  0.00  0.00    +0.160 C 
ATOM     30  O   UNL     1       0.600   2.175   7.496  0.00  0.00    -0.292 OA
ATOM     31  C   UNL     1      -0.479   3.543   9.088  0.00  0.00    +0.091 C 
ENDBRANCH  27  29
ENDBRANCH   7  23
BRANCH   1  32
ATOM     32  C   UNL     1      -2.050   3.639  -1.636  0.00  0.00    +0.297 C 
ATOM     33  O   UNL     1      -2.315   4.753  -1.250  0.00  0.00    -0.252 OA
BRANCH  32  34
ATOM     34  O   UNL     1      -1.936   3.394  -2.951  0.00  0.00    -0.469 OA
ATOM     35  C   UNL     1      -2.145   4.514  -3.850  0.00  0.00    +0.280 C 
ENDBRANCH  32  34
ENDBRANCH   1  32
BRANCH   1  36
ATOM     36  C   UNL     1      -3.154   1.766  -0.404  0.00  0.00    -0.001 C 
BRANCH  36  38
ATOM     37  C   UNL     1      -4.945   0.400  -1.484  0.00  0.00    +0.004 C 
ATOM     38  C   UNL     1      -3.638   1.159  -1.722  0.00  0.00    -0.004 C 
ENDBRANCH  36  38
ENDBRANCH   1  36
TORSDOF 9
