REMARK  Name = ZINC36660333
REMARK  11 active torsions:
REMARK  status: ('A' for Active; 'I' for Inactive)
REMARK    1  A    between atoms: C_1  and  C_2
REMARK    2  A    between atoms: C_2  and  C_3
REMARK    3  A    between atoms: C_3  and  N_4
REMARK    4  A    between atoms: C_10  and  N_17
REMARK    5  A    between atoms: C_11  and  C_12
REMARK    6  A    between atoms: C_12  and  O_14
REMARK    7  A    between atoms: O_14  and  C_15
REMARK    8  A    between atoms: C_15  and  C_16
REMARK    9  A    between atoms: C_18  and  C_20
REMARK   10  A    between atoms: N_25  and  S_26
REMARK   11  A    between atoms: S_26  and  C_29
REMARK                            x       y       z     vdW  Elec       q    Type
REMARK                         _______ _______ _______ _____ _____    ______ ____
ROOT
ATOM      1  N   UNL     1      -0.765  -7.859   2.278  0.00  0.00    -0.278 N 
ATOM      2  C   UNL     1       0.146  -8.109   3.239  0.00  0.00    +0.236 C 
ATOM      3  O   UNL     1       0.787  -7.197   3.719  0.00  0.00    -0.274 OA
ATOM      4  H   UNL     1      -1.277  -8.588   1.894  0.00  0.00    +0.155 HD
ENDROOT
BRANCH   1  11
ATOM      5  N   UNL     1      -1.413  -2.002   0.005  0.00  0.00    +0.383 N 
ATOM      6  C   UNL     1      -2.787  -2.509  -0.110  0.00  0.00    -0.074 C 
ATOM      7  C   UNL     1      -2.772  -4.007  -0.433  0.00  0.00    +0.018 C 
ATOM      8  C   UNL     1      -1.878  -4.697   0.588  0.00  0.00    -0.025 A 
ATOM      9  C   UNL     1      -1.009  -3.973   1.329  0.00  0.00    -0.021 A 
ATOM     10  S   UNL     1      -0.201  -5.161   2.358  0.00  0.00    -0.079 S 
ATOM     11  C   UNL     1      -0.970  -6.561   1.838  0.00  0.00    +0.086 A 
ATOM     12  C   UNL     1      -1.857  -6.120   0.866  0.00  0.00    +0.091 A 
ATOM     13  C   UNL     1      -0.807  -2.492   1.257  0.00  0.00    -0.035 C 
ATOM     14  H   UNL     1      -0.870  -2.327  -0.781  0.00  0.00    -0.081 HD
BRANCH  12  15
ATOM     15  C   UNL     1      -2.735  -7.050   0.153  0.00  0.00    +0.342 C 
ATOM     16  O   UNL     1      -2.358  -7.570  -0.881  0.00  0.00    -0.245 OA
BRANCH  15  17
ATOM     17  O   UNL     1      -3.960  -7.331   0.641  0.00  0.00    -0.461 OA
BRANCH  17  18
ATOM     18  C   UNL     1      -4.762  -8.248  -0.106  0.00  0.00    +0.229 C 
ATOM     19  C   UNL     1      -6.106  -8.441   0.599  0.00  0.00    +0.048 C 
ENDBRANCH  17  18
ENDBRANCH  15  17
ENDBRANCH  12  15
BRANCH   5  20
ATOM     20  C   UNL     1      -1.433  -0.534   0.013  0.00  0.00    -0.079 C 
BRANCH  20  22
ATOM     21  C   UNL     1      -0.019   1.526   0.010  0.00  0.00    +0.002 C 
ATOM     22  C   UNL     1       0.002  -0.004   0.002  0.00  0.00    -0.022 C 
ENDBRANCH  20  22
ENDBRANCH   5  20
ENDBRANCH   1  11
BRANCH   2  23
ATOM     23  C   UNL     1       0.369  -9.520   3.718  0.00  0.00    +0.166 C 
ATOM     24  C   UNL     1       0.868 -10.398   2.550  0.00  0.00    +0.031 C 
ATOM     25  C   UNL     1       2.406 -10.403   2.752  0.00  0.00    +0.019 C 
ATOM     26  C   UNL     1       2.517 -10.401   4.297  0.00  0.00    +0.110 C 
ATOM     27  N   UNL     1       1.410  -9.538   4.756  0.00  0.00    -0.165 NA
BRANCH  27  28
ATOM     28  S   UNL     1       1.350  -8.723   6.197  0.00  0.00    +0.062 S 
ATOM     29  O   UNL     1       2.695  -8.546   6.620  0.00  0.00    -0.153 OA
ATOM     30  O   UNL     1       0.460  -7.631   6.009  0.00  0.00    -0.153 OA
BRANCH  28  31
ATOM     31  C   UNL     1       0.590  -9.796   7.370  0.00  0.00    +0.106 A 
ATOM     32  C   UNL     1      -0.783  -9.781   7.532  0.00  0.00    +0.031 A 
ATOM     33  C   UNL     1      -1.380 -10.622   8.452  0.00  0.00    +0.040 A 
ATOM     34  C   UNL     1      -0.603 -11.480   9.211  0.00  0.00    +0.124 A 
ATOM     35  C   UNL     1       0.772 -11.495   9.048  0.00  0.00    +0.040 A 
ATOM     36  C   UNL     1       1.367 -10.656   8.124  0.00  0.00    +0.031 A 
ATOM     37  F   UNL     1      -1.185 -12.303  10.111  0.00  0.00    -0.205 F 
ENDBRANCH  28  31
ENDBRANCH  27  28
ENDBRANCH   2  23
TORSDOF 9
