REMARK  Name = ZINC13005782
REMARK  3 active torsions:
REMARK  status: ('A' for Active; 'I' for Inactive)
REMARK    1  A    between atoms: C_1  and  C_2
REMARK    2  A    between atoms: C_12  and  C_14
REMARK    3  A    between atoms: C_14  and  C_15
REMARK                            x       y       z     vdW  Elec       q    Type
REMARK                         _______ _______ _______ _____ _____    ______ ____
ROOT
ATOM      1  C   UNL     1      -6.834   4.678   0.061  0.00  0.00    +0.044 C 
ATOM      2  C   UNL     1      -5.390   4.246   0.052  0.00  0.00    -0.049 A 
ATOM      3  C   UNL     1      -4.376   5.192   0.053  0.00  0.00    +0.005 A 
ATOM      4  C   UNL     1      -3.055   4.826   0.044  0.00  0.00    +0.029 A 
ATOM      5  C   UNL     1      -2.684   3.462   0.034  0.00  0.00    +0.080 A 
ATOM      6  C   UNL     1      -3.743   2.526   0.034  0.00  0.00    +0.041 A 
ATOM      7  C   UNL     1      -5.064   2.902   0.043  0.00  0.00    +0.020 A 
ATOM      8  S   UNL     1      -2.878   0.975   0.021  0.00  0.00    -0.052 S 
ATOM      9  C   UNL     1      -1.220   1.642   0.017  0.00  0.00    +0.165 A 
ATOM     10  N   UNL     1      -1.440   2.936   0.031  0.00  0.00    -0.225 NA
ATOM     11  N   UNL     1      -0.011   0.966   0.007  0.00  0.00    -0.265 N 
ATOM     12  C   UNL     1       1.147   1.655   0.000  0.00  0.00    +0.219 C 
ATOM     13  O   UNL     1       1.130   2.868   0.007  0.00  0.00    -0.275 OA
ATOM     14  H   UNL     1       0.002  -0.004   0.002  0.00  0.00    +0.157 HD
ENDROOT
BRANCH  12  15
ATOM     15  C   UNL     1       2.462   0.920  -0.017  0.00  0.00    +0.103 C 
BRANCH  15  16
ATOM     16  C   UNL     1       3.611   1.930  -0.022  0.00  0.00    +0.020 C 
ATOM     17  C   UNL     1       4.968   1.202  -0.165  0.00  0.00    +0.012 C 
ATOM     18  C   UNL     1       5.875   2.064   0.742  0.00  0.00    +0.027 C 
ATOM     19  C   UNL     1       4.930   2.712   1.726  0.00  0.00    -0.031 C 
ATOM     20  C   UNL     1       3.695   2.639   1.309  0.00  0.00    -0.027 C 
ENDBRANCH  15  16
ENDBRANCH  12  15
TORSDOF 2
