REMARK  Name = ZINC38598059
REMARK  7 active torsions:
REMARK  status: ('A' for Active; 'I' for Inactive)
REMARK    1  A    between atoms: C_10  and  C_11
REMARK    2  A    between atoms: C_11  and  N_12
REMARK    3  A    between atoms: N_15  and  C_16
REMARK    4  A    between atoms: C_16  and  C_17
REMARK    5  A    between atoms: C_17  and  C_19
REMARK    6  A    between atoms: C_17  and  N_24
REMARK    7  A    between atoms: N_27  and  C_30
REMARK                            x       y       z     vdW  Elec       q    Type
REMARK                         _______ _______ _______ _____ _____    ______ ____
ROOT
ATOM      1  C   UNL     1       8.085   2.733   4.376  0.00  0.00    +0.017 C 
ENDROOT
BRANCH   1   2
ATOM      2  N   UNL     1       6.997   3.403   5.101  0.00  0.00    +0.389 N 
ATOM      3  C   UNL     1       6.853   4.777   4.604  0.00  0.00    -0.059 C 
ATOM      4  C   UNL     1       5.646   5.439   5.277  0.00  0.00    +0.086 C 
ATOM      5  N   UNL     1       5.811   5.335   6.735  0.00  0.00    -0.333 N 
ATOM      6  C   UNL     1       6.122   4.015   7.306  0.00  0.00    +0.086 C 
ATOM      7  C   UNL     1       7.306   3.421   6.537  0.00  0.00    -0.059 C 
ATOM      8  H   UNL     1       6.135   2.901   4.950  0.00  0.00    -0.081 HD
BRANCH   5   9
ATOM      9  C   UNL     1       5.675   6.459   7.556  0.00  0.00    +0.030 A 
ATOM     10  C   UNL     1       5.262   7.670   7.015  0.00  0.00    +0.026 A 
ATOM     11  C   UNL     1       5.129   8.779   7.827  0.00  0.00    +0.040 A 
ATOM     12  C   UNL     1       5.406   8.684   9.181  0.00  0.00    +0.124 A 
ATOM     13  C   UNL     1       5.818   7.478   9.722  0.00  0.00    +0.040 A 
ATOM     14  C   UNL     1       5.948   6.365   8.915  0.00  0.00    +0.026 A 
ATOM     15  F   UNL     1       5.275   9.770   9.973  0.00  0.00    -0.205 F 
ENDBRANCH   5   9
ENDBRANCH   1   2
BRANCH   1  16
ATOM     16  C   UNL     1       9.390   3.424   4.678  0.00  0.00    +0.093 A 
ATOM     17  C   UNL     1      10.531   2.819   5.055  0.00  0.00    +0.043 A 
ATOM     18  C   UNL     1      11.495   3.838   5.232  0.00  0.00    +0.041 A 
ATOM     19  C   UNL     1      10.886   5.004   4.952  0.00  0.00    +0.195 A 
ATOM     20  O   UNL     1       9.612   4.746   4.612  0.00  0.00    -0.469 OA
ENDBRANCH   1  16
BRANCH   1  21
ATOM     21  C   UNL     1       7.810   2.797   2.872  0.00  0.00    +0.098 C 
BRANCH  21  25
ATOM     22  N   UNL     1       4.804   1.677   1.076  0.00  0.00    -0.295 N 
ATOM     23  C   UNL     1       6.004   2.233   1.338  0.00  0.00    +0.300 C 
ATOM     24  O   UNL     1       6.632   2.771   0.447  0.00  0.00    -0.253 OA
ATOM     25  N   UNL     1       6.507   2.193   2.587  0.00  0.00    -0.301 N 
ATOM     26  H   UNL     1       4.303   1.247   1.787  0.00  0.00    +0.151 HD
ATOM     27  H   UNL     1       6.006   1.763   3.298  0.00  0.00    +0.150 HD
BRANCH  22  28
ATOM     28  C   UNL     1       4.258   1.721  -0.283  0.00  0.00    +0.141 C 
BRANCH  28  38
ATOM     29  C   UNL     1      -0.527   3.005   1.005  0.00  0.00    +0.001 A 
ATOM     30  C   UNL     1       0.705   3.656   1.036  0.00  0.00    +0.001 A 
ATOM     31  C   UNL     1       1.838   3.032   0.613  0.00  0.00    +0.009 A 
ATOM     32  C   UNL     1       1.768   1.711   0.138  0.00  0.00    -0.013 A 
ATOM     33  C   UNL     1       0.515   1.049   0.107  0.00  0.00    -0.018 A 
ATOM     34  C   UNL     1      -0.633   1.726   0.552  0.00  0.00    +0.008 A 
ATOM     35  C   UNL     1       0.446  -0.272  -0.367  0.00  0.00    +0.008 A 
ATOM     36  C   UNL     1       1.579  -0.896  -0.790  0.00  0.00    +0.001 A 
ATOM     37  C   UNL     1       2.811  -0.245  -0.759  0.00  0.00    +0.006 A 
ATOM     38  C   UNL     1       2.916   1.034  -0.307  0.00  0.00    -0.023 A 
ENDBRANCH  28  38
ENDBRANCH  22  28
ENDBRANCH  21  25
ENDBRANCH   1  21
TORSDOF 7
