REMARK  Name = ZINC39696118
REMARK  9 active torsions:
REMARK  status: ('A' for Active; 'I' for Inactive)
REMARK    1  A    between atoms: C_1  and  C_2
REMARK    2  A    between atoms: C_2  and  C_3
REMARK    3  A    between atoms: C_6  and  C_9
REMARK    4  A    between atoms: C_9  and  C_11
REMARK    5  A    between atoms: C_9  and  N_12
REMARK    6  A    between atoms: C_13  and  C_15
REMARK    7  A    between atoms: C_26  and  C_28
REMARK    8  A    between atoms: C_28  and  O_29
REMARK    9  A    between atoms: O_29  and  C_30
REMARK                            x       y       z     vdW  Elec       q    Type
REMARK                         _______ _______ _______ _____ _____    ______ ____
ROOT
ATOM      1  C   UNL     1       1.741  -4.917   6.817  0.00  0.00    +0.100 C 
ATOM      2  C   UNL     1       0.865  -4.271   7.913  0.00  0.00    +0.121 C 
ATOM      3  N   UNL     1       0.855  -5.261   9.016  0.00  0.00    -0.297 N 
ATOM      4  C   UNL     1       2.240  -5.789   9.050  0.00  0.00    +0.115 C 
ATOM      5  C   UNL     1       2.643  -5.912   7.567  0.00  0.00    -0.004 C 
ATOM      6  C   UNL     1       2.392  -7.332   7.069  0.00  0.00    -0.010 C 
ATOM      7  C   UNL     1       3.340  -8.295   7.789  0.00  0.00    -0.082 C 
ATOM      8  N   UNL     1       4.730  -7.902   7.529  0.00  0.00    +0.379 N 
ATOM      9  C   UNL     1       4.988  -6.572   8.093  0.00  0.00    -0.082 C 
ATOM     10  C   UNL     1       4.110  -5.536   7.386  0.00  0.00    -0.010 C 
ATOM     11  C   UNL     1      -0.179  -5.603   9.810  0.00  0.00    +0.253 C 
ATOM     12  O   UNL     1      -0.028  -6.437  10.677  0.00  0.00    -0.272 OA
ATOM     13  H   UNL     1       5.352  -8.573   7.954  0.00  0.00    -0.086 HD
ATOM     14  H   UNL     1       4.891  -7.881   6.533  0.00  0.00    -0.086 HD
ENDROOT
BRANCH   1  16
ATOM     15  N   UNL     1       2.952  -4.043   4.845  0.00  0.00    -0.308 N 
ATOM     16  C   UNL     1       2.577  -3.869   6.128  0.00  0.00    +0.219 C 
ATOM     17  O   UNL     1       2.911  -2.869   6.727  0.00  0.00    -0.275 OA
ATOM     18  H   UNL     1       2.685  -4.843   4.366  0.00  0.00    +0.149 HD
BRANCH  15  19
ATOM     19  C   UNL     1       3.764  -3.025   4.175  0.00  0.00    +0.100 C 
ATOM     20  C   UNL     1       2.850  -1.937   3.606  0.00  0.00    +0.033 C 
BRANCH  19  24
ATOM     21  C   UNL     1       5.978  -4.832   1.000  0.00  0.00    -0.048 A 
ATOM     22  C   UNL     1       6.571  -3.868   1.794  0.00  0.00    +0.004 A 
ATOM     23  C   UNL     1       5.854  -3.283   2.821  0.00  0.00    +0.006 A 
ATOM     24  C   UNL     1       4.545  -3.662   3.054  0.00  0.00    -0.027 A 
ATOM     25  C   UNL     1       3.952  -4.625   2.259  0.00  0.00    +0.006 A 
ATOM     26  C   UNL     1       4.667  -5.207   1.229  0.00  0.00    +0.004 A 
BRANCH  21  28
ATOM     27  C   UNL     1       6.571  -4.655  -1.401  0.00  0.00    +0.009 C 
ATOM     28  C   UNL     1       6.759  -5.470  -0.120  0.00  0.00    +0.032 C 
ENDBRANCH  21  28
ENDBRANCH  19  24
ENDBRANCH  15  19
ENDBRANCH   1  16
BRANCH  11  29
ATOM     29  C   UNL     1      -1.523  -4.949   9.619  0.00  0.00    +0.324 C 
BRANCH  29  30
ATOM     30  O   UNL     1      -2.448  -5.476  10.573  0.00  0.00    -0.483 OA
BRANCH  30  31
ATOM     31  C   UNL     1      -3.716  -4.988  10.537  0.00  0.00    +0.123 A 
ATOM     32  C   UNL     1      -4.065  -4.027   9.599  0.00  0.00    +0.046 A 
ATOM     33  C   UNL     1      -5.354  -3.533   9.563  0.00  0.00    +0.005 A 
ATOM     34  C   UNL     1      -6.298  -3.995  10.461  0.00  0.00    +0.020 A 
ATOM     35  C   UNL     1      -5.954  -4.953  11.399  0.00  0.00    +0.044 A 
ATOM     36  C   UNL     1      -4.665  -5.454  11.434  0.00  0.00    +0.065 A 
ATOM     37 CL   UNL     1      -7.141  -5.530  12.526  0.00  0.00    -0.083 Cl
ENDBRANCH  30  31
ENDBRANCH  29  30
ENDBRANCH  11  29
TORSDOF 7
