REMARK  Name = ZINC37011161
REMARK  7 active torsions:
REMARK  status: ('A' for Active; 'I' for Inactive)
REMARK    1  A    between atoms: C_1  and  C_2
REMARK    2  A    between atoms: C_2  and  C_3
REMARK    3  A    between atoms: C_2  and  C_4
REMARK    4  A    between atoms: C_2  and  C_5
REMARK    5  A    between atoms: N_7  and  C_8
REMARK    6  A    between atoms: C_11  and  S_15
REMARK    7  A    between atoms: S_15  and  N_18
REMARK                            x       y       z     vdW  Elec       q    Type
REMARK                         _______ _______ _______ _____ _____    ______ ____
ROOT
ATOM      1  C   UNL     1       1.408  -2.266  -2.661  0.00  0.00    +0.105 A 
ATOM      2  C   UNL     1       1.182  -3.569  -3.087  0.00  0.00    +0.149 A 
ATOM      3  C   UNL     1       1.738  -4.014  -4.273  0.00  0.00    +0.069 A 
ATOM      4  C   UNL     1       2.518  -3.163  -5.035  0.00  0.00    +0.111 A 
ATOM      5  C   UNL     1       2.746  -1.866  -4.614  0.00  0.00    +0.069 A 
ATOM      6  C   UNL     1       2.188  -1.412  -3.432  0.00  0.00    +0.149 A 
ATOM      7  F   UNL     1       2.406  -0.143  -3.024  0.00  0.00    -0.203 F 
ATOM      8  F   UNL     1       0.420  -4.402  -2.344  0.00  0.00    -0.203 F 
ENDROOT
BRANCH   1  11
ATOM      9  C   UNL     1      -0.383  -1.259  -1.457  0.00  0.00    +0.223 C 
ATOM     10  O   UNL     1      -0.965  -1.070  -2.504  0.00  0.00    -0.275 OA
ATOM     11  N   UNL     1       0.847  -1.812  -1.460  0.00  0.00    -0.281 N 
ATOM     12  H   UNL     1       1.342  -1.896  -0.630  0.00  0.00    +0.155 HD
BRANCH   9  14
ATOM     13  C   UNL     1      -2.413  -0.274  -0.429  0.00  0.00    +0.020 C 
ATOM     14  C   UNL     1      -1.033  -0.875  -0.153  0.00  0.00    +0.039 C 
ATOM     15  C   UNL     1      -0.163   0.155   0.568  0.00  0.00    +0.020 C 
ATOM     16  C   UNL     1      -1.186  -2.118   0.726  0.00  0.00    +0.020 C 
ENDBRANCH   9  14
ENDBRANCH   1  11
BRANCH   4  17
ATOM     17  S   UNL     1       3.225  -3.734  -6.544  0.00  0.00    +0.056 S 
ATOM     18  O   UNL     1       4.359  -2.916  -6.796  0.00  0.00    -0.153 OA
ATOM     19  O   UNL     1       3.313  -5.148  -6.442  0.00  0.00    -0.153 OA
BRANCH  17  20
ATOM     20  N   UNL     1       2.134  -3.413  -7.748  0.00  0.00    -0.204 NA
ATOM     21  H   UNL     1       2.444  -3.233  -8.649  0.00  0.00    +0.144 HD
ATOM     22  H   UNL     1       1.184  -3.405  -7.552  0.00  0.00    +0.144 HD
ENDBRANCH  17  20
ENDBRANCH   4  17
TORSDOF 4
