REMARK  Name = ZINC02877942
REMARK  14 active torsions:
REMARK  status: ('A' for Active; 'I' for Inactive)
REMARK    1  A    between atoms: C_1  and  C_2
REMARK    2  A    between atoms: N_13  and  C_18
REMARK    3  A    between atoms: C_15  and  C_16
REMARK    4  A    between atoms: C_18  and  C_19
REMARK    5  A    between atoms: C_19  and  C_21
REMARK    6  A    between atoms: C_19  and  O_34
REMARK    7  A    between atoms: C_21  and  N_61
REMARK    8  A    between atoms: C_22  and  C_23
REMARK    9  A    between atoms: C_22  and  N_61
REMARK   10  A    between atoms: C_23  and  C_24
REMARK   11  A    between atoms: C_27  and  O_32
REMARK   12  A    between atoms: C_28  and  O_30
REMARK   13  A    between atoms: O_30  and  C_31
REMARK   14  A    between atoms: O_32  and  C_33
REMARK                            x       y       z     vdW  Elec       q    Type
REMARK                         _______ _______ _______ _____ _____    ______ ____
ROOT
ATOM      1  C   UNL     1       1.286   1.562  -0.002  0.00  0.00    +0.117 C 
ENDROOT
BRANCH   1   2
ATOM      2  O   UNL     1      -0.011   0.963   0.007  0.00  0.00    -0.392 OA
ATOM      3  H   UNL     1       0.002  -0.004   0.002  0.00  0.00    +0.210 HD
ENDBRANCH   1   2
BRANCH   1   4
ATOM      4  C   UNL     1       2.040   1.127  -1.261  0.00  0.00    +0.153 C 
BRANCH   4  17
ATOM      5  C   UNL     1      -1.939  -1.959  -3.654  0.00  0.00    +0.045 C 
ATOM      6  C   UNL     1      -1.262  -0.626  -3.839  0.00  0.00    -0.024 A 
ATOM      7  C   UNL     1      -1.623   0.197  -4.865  0.00  0.00    +0.075 A 
ATOM      8  C   UNL     1      -0.987   1.434  -5.025  0.00  0.00    +0.258 A 
ATOM      9  O   UNL     1      -1.316   2.164  -5.946  0.00  0.00    -0.267 OA
ATOM     10  N   UNL     1      -0.016   1.828  -4.178  0.00  0.00    -0.260 N 
ATOM     11  C   UNL     1       0.748   2.994  -4.137  0.00  0.00    +0.075 A 
ATOM     12  C   UNL     1       0.780   4.131  -4.933  0.00  0.00    +0.028 A 
ATOM     13  C   UNL     1       1.666   5.148  -4.641  0.00  0.00    +0.002 A 
ATOM     14  C   UNL     1       2.523   5.040  -3.559  0.00  0.00    +0.002 A 
ATOM     15  C   UNL     1       2.499   3.914  -2.762  0.00  0.00    +0.028 A 
ATOM     16  C   UNL     1       1.612   2.884  -3.046  0.00  0.00    +0.068 A 
ATOM     17  N   UNL     1       1.359   1.658  -2.445  0.00  0.00    -0.322 N 
ATOM     18  C   UNL     1       0.372   1.030  -3.149  0.00  0.00    +0.140 A 
ATOM     19  C   UNL     1      -0.247  -0.213  -2.954  0.00  0.00    +0.096 A 
BRANCH  19  20
ATOM     20  C   UNL     1       0.153  -1.057  -1.869  0.00  0.00    +0.103 C 
ATOM     21  N   UNL     1       0.470  -1.727  -1.008  0.00  0.00    -0.191 NA
ENDBRANCH  19  20
ENDBRANCH   4  17
ENDBRANCH   1   4
BRANCH   1  22
ATOM     22  C   UNL     1       2.064   1.114   1.238  0.00  0.00    -0.049 C 
BRANCH  22  23
ATOM     23  N   UNL     1       1.331   1.536   2.446  0.00  0.00    +0.381 N 
ATOM     24  H   UNL     1       0.399   1.106   2.445  0.00  0.00    -0.086 HD
ATOM     25  H   UNL     1       1.236   2.559   2.445  0.00  0.00    -0.086 HD
BRANCH  23  26
ATOM     26  C   UNL     1       2.059   1.117   3.659  0.00  0.00    -0.078 C 
BRANCH  26  27
ATOM     27  C   UNL     1       1.276   1.568   4.894  0.00  0.00    +0.016 C 
BRANCH  27  28
ATOM     28  C   UNL     1       2.014   1.143   6.138  0.00  0.00    -0.045 A 
ATOM     29  C   UNL     1       1.748  -0.087   6.711  0.00  0.00    +0.007 A 
ATOM     30  C   UNL     1       2.426  -0.483   7.849  0.00  0.00    +0.049 A 
ATOM     31  C   UNL     1       3.365   0.358   8.424  0.00  0.00    +0.161 A 
ATOM     32  C   UNL     1       3.628   1.598   7.851  0.00  0.00    +0.162 A 
ATOM     33  C   UNL     1       2.949   1.987   6.707  0.00  0.00    +0.053 A 
BRANCH  32  34
ATOM     34  O   UNL     1       4.549   2.427   8.412  0.00  0.00    -0.491 OA
ATOM     35  C   UNL     1       4.767   3.684   7.769  0.00  0.00    +0.277 C 
ENDBRANCH  32  34
BRANCH  31  36
ATOM     36  O   UNL     1       4.029  -0.029   9.547  0.00  0.00    -0.491 OA
ATOM     37  C   UNL     1       3.708  -1.315  10.080  0.00  0.00    +0.277 C 
ENDBRANCH  31  36
ENDBRANCH  27  28
ENDBRANCH  26  27
ENDBRANCH  23  26
ENDBRANCH  22  23
ENDBRANCH   1  22
TORSDOF 11
