REMARK  Name = ZINC02333498
REMARK  8 active torsions:
REMARK  status: ('A' for Active; 'I' for Inactive)
REMARK    1  A    between atoms: C_1  and  C_2
REMARK    2  A    between atoms: C_2  and  C_3
REMARK    3  A    between atoms: C_2  and  C_4
REMARK    4  A    between atoms: C_4  and  C_5
REMARK    5  A    between atoms: C_5  and  N_6
REMARK    6  A    between atoms: C_7  and  C_9
REMARK    7  A    between atoms: C_23  and  C_25
REMARK    8  A    between atoms: C_23  and  C_26
REMARK                            x       y       z     vdW  Elec       q    Type
REMARK                         _______ _______ _______ _____ _____    ______ ____
ROOT
ATOM      1  C   UNL     1      -1.626   3.115  -5.557  0.00  0.00    +0.237 A 
ATOM      2  N   UNL     1      -1.380   2.892  -4.261  0.00  0.00    -0.202 NA
ATOM      3  C   UNL     1      -1.447   4.028  -3.600  0.00  0.00    +0.168 A 
ATOM      4  C   UNL     1      -1.268   4.384  -2.177  0.00  0.00    +0.055 A 
ATOM      5  C   UNL     1      -0.960   3.536  -1.086  0.00  0.00    -0.019 A 
ATOM      6  C   UNL     1      -0.847   4.102   0.140  0.00  0.00    +0.021 A 
ATOM      7  S   UNL     1      -1.154   5.824  -0.133  0.00  0.00    -0.071 S 
ATOM      8  C   UNL     1      -1.430   5.750  -1.886  0.00  0.00    +0.114 A 
ATOM      9  N   UNL     1      -1.720   6.643  -2.822  0.00  0.00    -0.228 NA
ATOM     10  C   UNL     1      -1.875   6.312  -4.074  0.00  0.00    +0.226 A 
ATOM     11  N   UNL     1      -1.745   5.022  -4.490  0.00  0.00    -0.201 N 
ATOM     12  N   UNL     1      -1.855   4.401  -5.743  0.00  0.00    -0.139 NA
ATOM     13  C   UNL     1      -0.530   3.395   1.420  0.00  0.00    +0.203 C 
ATOM     14  O   UNL     1      -0.682   1.984   1.191  0.00  0.00    -0.368 OA
ATOM     15  C   UNL     1      -0.019   1.526   0.010  0.00  0.00    +0.068 C 
ATOM     16  C   UNL     1      -0.753   2.030  -1.235  0.00  0.00    +0.071 C 
ATOM     17  C   UNL     1       0.002  -0.004   0.002  0.00  0.00    +0.041 C 
ATOM     18  C   UNL     1       1.418   2.052  -0.001  0.00  0.00    +0.041 C 
ENDROOT
BRANCH   1  20
ATOM     19  N   UNL     1      -1.903   2.426  -7.892  0.00  0.00    -0.309 N 
ATOM     20  C   UNL     1      -1.641   2.080  -6.616  0.00  0.00    +0.283 C 
ATOM     21  O   UNL     1      -1.416   0.919  -6.335  0.00  0.00    -0.267 OA
ATOM     22  H   UNL     1      -2.082   3.352  -8.117  0.00  0.00    +0.149 HD
BRANCH  19  23
ATOM     23  C   UNL     1      -1.917   1.402  -8.940  0.00  0.00    +0.105 C 
BRANCH  23  24
ATOM     24  C   UNL     1      -2.237   2.055 -10.286  0.00  0.00    +0.022 C 
BRANCH  24  26
ATOM     25  C   UNL     1      -3.400   0.007 -11.122  0.00  0.00    +0.007 C 
ATOM     26  C   UNL     1      -2.252   0.986 -11.381  0.00  0.00    -0.016 C 
ATOM     27  C   UNL     1      -2.449   1.653 -12.743  0.00  0.00    +0.007 C 
ENDBRANCH  24  26
ENDBRANCH  23  24
ENDBRANCH  19  23
ENDBRANCH   1  20
TORSDOF 4
