REMARK  Name = ZINC00632982
REMARK  9 active torsions:
REMARK  status: ('A' for Active; 'I' for Inactive)
REMARK    1  A    between atoms: C_1  and  C_2
REMARK    2  A    between atoms: C_2  and  C_3
REMARK    3  A    between atoms: C_8  and  O_23
REMARK    4  A    between atoms: C_9  and  C_22
REMARK    5  A    between atoms: C_12  and  C_15
REMARK    6  A    between atoms: C_13  and  O_14
REMARK    7  A    between atoms: C_15  and  N_16
REMARK    8  A    between atoms: O_23  and  C_24
REMARK    9  A    between atoms: N_27  and  C_29
REMARK                            x       y       z     vdW  Elec       q    Type
REMARK                         _______ _______ _______ _____ _____    ______ ____
ROOT
ATOM      1  C   UNL     1       6.286   1.328   2.323  0.00  0.00    -0.005 A 
ATOM      2  C   UNL     1       7.101   0.521   1.582  0.00  0.00    +0.022 A 
ATOM      3  C   UNL     1       6.595  -0.657   1.032  0.00  0.00    +0.068 A 
ATOM      4  C   UNL     1       7.441  -1.554   0.227  0.00  0.00    +0.235 A 
ATOM      5  O   UNL     1       8.615  -1.299   0.013  0.00  0.00    -0.283 OA
ATOM      6  C   UNL     1       6.837  -2.741  -0.278  0.00  0.00    +0.213 A 
ATOM      7  C   UNL     1       5.537  -2.987  -0.019  0.00  0.00    +0.148 A 
ATOM      8  O   UNL     1       4.775  -2.161   0.710  0.00  0.00    -0.456 OA
ATOM      9  C   UNL     1       5.252  -1.018   1.242  0.00  0.00    +0.144 A 
ATOM     10  C   UNL     1       4.435  -0.185   1.993  0.00  0.00    +0.021 A 
ATOM     11  C   UNL     1       4.953   0.981   2.532  0.00  0.00    +0.125 A 
ATOM     12  C   UNL     1       4.916  -4.243  -0.573  0.00  0.00    +0.090 C 
ENDROOT
BRANCH   1  14
ATOM     13  C   UNL     1       7.275   2.341   4.359  0.00  0.00    +0.009 C 
ATOM     14  C   UNL     1       6.831   2.600   2.918  0.00  0.00    +0.035 C 
ENDBRANCH   1  14
BRANCH  11  15
ATOM     15  O   UNL     1       4.154   1.793   3.271  0.00  0.00    -0.506 OA
ATOM     16  H   UNL     1       3.101   1.524   3.439  0.00  0.00    +0.292 HD
ENDBRANCH  11  15
BRANCH  10  17
ATOM     17  C   UNL     1       2.991  -0.550   2.226  0.00  0.00    -0.036 C 
BRANCH  17  18
ATOM     18  N   UNL     1       2.163   0.021   1.155  0.00  0.00    +0.383 N 
ATOM     19  C   UNL     1       0.793  -0.505   1.212  0.00  0.00    -0.078 C 
ATOM     20  C   UNL     1       0.002  -0.004   0.002  0.00  0.00    -0.019 C 
ATOM     21  C   UNL     1      -0.019   1.527   0.010  0.00  0.00    -0.004 C 
ATOM     22  C   UNL     1       1.421   2.049  -0.001  0.00  0.00    -0.019 C 
ATOM     23  C   UNL     1       2.171   1.488   1.210  0.00  0.00    -0.078 C 
ATOM     24  H   UNL     1       2.598  -0.281   0.191  0.00  0.00    -0.081 HD
ENDBRANCH  17  18
ENDBRANCH  10  17
BRANCH   6  25
ATOM     25  O   UNL     1       7.564  -3.615  -1.026  0.00  0.00    -0.446 OA
BRANCH  25  26
ATOM     26  C   UNL     1       7.595  -3.432  -2.375  0.00  0.00    +0.166 A 
ATOM     27  C   UNL     1       6.941  -2.414  -3.084  0.00  0.00    +0.181 A 
ATOM     28  N   UNL     1       7.204  -2.564  -4.357  0.00  0.00    -0.171 NA
ATOM     29  N   UNL     1       8.035  -3.681  -4.508  0.00  0.00    -0.236 N 
ATOM     30  C   UNL     1       8.267  -4.198  -3.270  0.00  0.00    +0.160 A 
BRANCH  29  31
ATOM     31  C   UNL     1       8.541  -4.177  -5.717  0.00  0.00    +0.065 A 
ATOM     32  C   UNL     1       9.363  -5.296  -5.721  0.00  0.00    +0.028 A 
ATOM     33  C   UNL     1       9.856  -5.785  -6.914  0.00  0.00    +0.002 A 
ATOM     34  C   UNL     1       9.542  -5.154  -8.104  0.00  0.00    +0.000 A 
ATOM     35  C   UNL     1       8.728  -4.036  -8.103  0.00  0.00    +0.002 A 
ATOM     36  C   UNL     1       8.227  -3.546  -6.913  0.00  0.00    +0.028 A 
ENDBRANCH  29  31
ENDBRANCH  25  26
ENDBRANCH   6  25
TORSDOF 7
