REMARK  Name = ZINC16385801
REMARK  7 active torsions:
REMARK  status: ('A' for Active; 'I' for Inactive)
REMARK    1  A    between atoms: C_3  and  N_11
REMARK    2  A    between atoms: C_6  and  N_7
REMARK    3  A    between atoms: N_11  and  C_12
REMARK    4  A    between atoms: C_12  and  C_13
REMARK    5  A    between atoms: C_13  and  N_14
REMARK    6  A    between atoms: C_15  and  C_16
REMARK    7  A    between atoms: C_21  and  O_22
REMARK                            x       y       z     vdW  Elec       q    Type
REMARK                         _______ _______ _______ _____ _____    ______ ____
ROOT
ATOM      1  C   UNL     1       5.010   4.117  -0.028  0.00  0.00    +0.131 C 
ENDROOT
BRANCH   1   2
ATOM      2  N   UNL     1       4.991   5.582  -0.022  0.00  0.00    -0.388 N 
ATOM      3  C   UNL     1       5.456   6.231   0.997  0.00  0.00    +0.090 C 
ATOM      4  H   UNL     1       4.629   6.066  -0.781  0.00  0.00    +0.159 HD
BRANCH   3   5
ATOM      5  C   UNL     1       5.539   7.702   0.959  0.00  0.00    +0.034 A 
ATOM      6  C   UNL     1       6.146   8.399   2.007  0.00  0.00    +0.033 A 
ATOM      7  C   UNL     1       6.220   9.775   1.965  0.00  0.00    +0.043 A 
ATOM      8  C   UNL     1       5.695  10.471   0.888  0.00  0.00    +0.039 A 
ATOM      9  C   UNL     1       5.091   9.793  -0.154  0.00  0.00    +0.061 A 
ATOM     10  C   UNL     1       5.014   8.409  -0.131  0.00  0.00    +0.139 A 
ATOM     11 BR   UNL     1       4.378  10.755  -1.618  0.00  0.00    -0.046 Br
ATOM     12 CL   UNL     1       6.974  10.640   3.268  0.00  0.00    -0.083 Cl
BRANCH  10  13
ATOM     13  O   UNL     1       4.426   7.741  -1.157  0.00  0.00    -0.505 OA
ATOM     14  H   UNL     1       3.476   7.603  -1.043  0.00  0.00    +0.292 HD
ENDBRANCH  10  13
ENDBRANCH   3   5
ENDBRANCH   1   2
BRANCH   1  15
ATOM     15  C   UNL     1       3.575   3.588  -0.030  0.00  0.00    +0.122 C 
BRANCH  15  16
ATOM     16  N   UNL     1       3.594   2.123  -0.037  0.00  0.00    -0.341 N 
ATOM     17  H   UNL     1       4.441   1.649  -0.040  0.00  0.00    +0.146 HD
BRANCH  16  20
ATOM     18  C   UNL     1      -0.004   1.375  -0.040  0.00  0.00    +0.034 A 
ATOM     19  C   UNL     1       1.181   2.084  -0.037  0.00  0.00    +0.026 A 
ATOM     20  C   UNL     1       2.393   1.408  -0.040  0.00  0.00    +0.046 A 
ATOM     21  C   UNL     1       2.410   0.018  -0.047  0.00  0.00    +0.064 A 
ATOM     22  C   UNL     1       1.221  -0.685  -0.051  0.00  0.00    +0.054 A 
ATOM     23  C   UNL     1       0.015  -0.007  -0.047  0.00  0.00    +0.128 A 
ATOM     24 CL   UNL     1       3.923  -0.833  -0.052  0.00  0.00    -0.082 Cl
BRANCH  23  25
ATOM     25  N   UNL     1      -1.257  -0.764  -0.050  0.00  0.00    +0.056 N 
ATOM     26  O   UNL     1      -2.312  -0.173  -0.047  0.00  0.00    -0.126 OA
ATOM     27  O   UNL     1      -1.242  -1.973  -0.056  0.00  0.00    -0.126 OA
ENDBRANCH  23  25
ENDBRANCH  16  20
ENDBRANCH  15  16
ENDBRANCH   1  15
TORSDOF 7
