REMARK  Name = ZINC43746598
REMARK  11 active torsions:
REMARK  status: ('A' for Active; 'I' for Inactive)
REMARK    1  A    between atoms: C_1  and  C_2
REMARK    2  A    between atoms: C_2  and  C_3
REMARK    3  A    between atoms: C_3  and  C_5
REMARK    4  A    between atoms: C_3  and  N_6
REMARK    5  A    between atoms: C_7  and  C_9
REMARK    6  A    between atoms: C_9  and  C_11
REMARK    7  A    between atoms: C_9  and  N_15
REMARK    8  A    between atoms: C_11  and  C_12
REMARK    9  A    between atoms: C_12  and  C_13
REMARK   10  A    between atoms: C_12  and  C_14
REMARK   11  A    between atoms: C_16  and  C_18
REMARK                            x       y       z     vdW  Elec       q    Type
REMARK                         _______ _______ _______ _____ _____    ______ ____
ROOT
ATOM      1  C   UNL     1       1.641   1.202   8.205  0.00  0.00    +0.167 C 
ATOM      2  C   UNL     1       2.320   2.518   7.801  0.00  0.00    +0.069 C 
ATOM      3  C   UNL     1       1.461   3.692   8.198  0.00  0.00    -0.015 A 
ATOM      4  C   UNL     1       1.572   5.061   7.727  0.00  0.00    +0.003 A 
ATOM      5  C   UNL     1       2.434   5.678   6.815  0.00  0.00    +0.010 A 
ATOM      6  C   UNL     1       2.253   7.022   6.603  0.00  0.00    +0.001 A 
ATOM      7  C   UNL     1       1.267   7.744   7.257  0.00  0.00    +0.002 A 
ATOM      8  C   UNL     1       0.400   7.158   8.163  0.00  0.00    +0.026 A 
ATOM      9  C   UNL     1       0.560   5.794   8.396  0.00  0.00    +0.047 A 
ATOM     10  N   UNL     1      -0.108   4.919   9.204  0.00  0.00    -0.356 N 
ATOM     11  H   UNL     1      -0.850   5.149   9.784  0.00  0.00    +0.166 HD
ATOM     12  C   UNL     1       0.429   3.667   9.071  0.00  0.00    +0.046 A 
ATOM     13  C   UNL     1      -0.037   2.405   9.755  0.00  0.00    +0.155 C 
ATOM     14  N   UNL     1       1.025   1.398   9.522  0.00  0.00    -0.273 N 
ATOM     15  C   UNL     1       1.300   0.791  10.684  0.00  0.00    +0.248 C 
ATOM     16  O   UNL     1       1.953  -0.226  10.807  0.00  0.00    -0.270 OA
ATOM     17  C   UNL     1       0.691   1.543  11.786  0.00  0.00    +0.042 A 
ATOM     18  C   UNL     1      -0.151   2.562  11.233  0.00  0.00    -0.009 A 
ATOM     19  C   UNL     1      -0.862   3.442  12.017  0.00  0.00    +0.006 A 
ATOM     20  C   UNL     1      -0.751   3.294  13.397  0.00  0.00    +0.000 A 
ATOM     21  C   UNL     1       0.034   2.309  13.962  0.00  0.00    +0.001 A 
ATOM     22  C   UNL     1       0.804   1.388  13.169  0.00  0.00    +0.013 A 
ENDROOT
BRANCH   1  24
ATOM     23  N   UNL     1       0.921   0.633   5.908  0.00  0.00    -0.302 N 
ATOM     24  C   UNL     1       0.581   0.844   7.195  0.00  0.00    +0.235 C 
ATOM     25  O   UNL     1      -0.577   0.746   7.540  0.00  0.00    -0.274 OA
ATOM     26  H   UNL     1       1.855   0.642   5.645  0.00  0.00    +0.150 HD
BRANCH  23  27
ATOM     27  C   UNL     1      -0.120   0.391   4.906  0.00  0.00    +0.159 C 
BRANCH  27  29
ATOM     28  N   UNL     1      -0.321  -0.853   2.778  0.00  0.00    -0.311 N 
ATOM     29  C   UNL     1       0.481  -0.316   3.718  0.00  0.00    +0.234 C 
ATOM     30  O   UNL     1       1.686  -0.401   3.609  0.00  0.00    -0.274 OA
ATOM     31  H   UNL     1      -1.284  -0.826   2.888  0.00  0.00    +0.149 HD
BRANCH  28  32
ATOM     32  C   UNL     1       0.263  -1.479   1.588  0.00  0.00    +0.070 C 
ATOM     33  C   UNL     1       0.624  -2.932   1.901  0.00  0.00    +0.028 C 
BRANCH  32  35
ATOM     34  C   UNL     1      -1.018   0.013   0.046  0.00  0.00    +0.005 C 
ATOM     35  C   UNL     1      -0.751  -1.441   0.443  0.00  0.00    +0.018 C 
ENDBRANCH  32  35
ENDBRANCH  28  32
ENDBRANCH  27  29
BRANCH  27  36
ATOM     36  C   UNL     1      -0.716   1.727   4.456  0.00  0.00    +0.034 C 
BRANCH  36  37
ATOM     37  C   UNL     1      -1.848   1.471   3.460  0.00  0.00    -0.015 C 
ATOM     38  C   UNL     1      -3.004   0.766   4.173  0.00  0.00    +0.007 C 
ATOM     39  C   UNL     1      -2.337   2.804   2.891  0.00  0.00    +0.007 C 
ENDBRANCH  36  37
ENDBRANCH  27  36
ENDBRANCH  23  27
ENDBRANCH   1  24
TORSDOF 7
