REMARK  Name = ZINC14878636
REMARK  7 active torsions:
REMARK  status: ('A' for Active; 'I' for Inactive)
REMARK    1  A    between atoms: C_1  and  C_2
REMARK    2  A    between atoms: C_2  and  C_3
REMARK    3  A    between atoms: C_3  and  C_20
REMARK    4  A    between atoms: N_6  and  C_10
REMARK    5  A    between atoms: C_10  and  C_11
REMARK    6  A    between atoms: C_25  and  C_26
REMARK    7  A    between atoms: C_25  and  N_61
REMARK                            x       y       z     vdW  Elec       q    Type
REMARK                         _______ _______ _______ _____ _____    ______ ____
ROOT
ATOM      1  C   UNL     1       5.074   3.998   0.726  0.00  0.00    +0.115 C 
ATOM      2  C   UNL     1       5.178   5.476   0.406  0.00  0.00    +0.247 C 
ATOM      3  O   UNL     1       4.815   6.402   1.099  0.00  0.00    -0.273 OA
ATOM      4  N   UNL     1       5.760   5.546  -0.807  0.00  0.00    -0.220 N 
ATOM      5  C   UNL     1       6.035   4.331  -1.294  0.00  0.00    +0.310 C 
ATOM      6  O   UNL     1       6.561   4.138  -2.373  0.00  0.00    -0.252 OA
ATOM      7  N   UNL     1       5.666   3.342  -0.454  0.00  0.00    -0.285 N 
ATOM      8  H   UNL     1       5.769   2.389  -0.596  0.00  0.00    +0.151 HD
ENDROOT
BRANCH   1   9
ATOM      9  C   UNL     1       3.610   3.585   0.893  0.00  0.00    +0.018 C 
ATOM     10  C   UNL     1       2.833   3.931  -0.380  0.00  0.00    -0.013 C 
ATOM     11  C   UNL     1       1.384   3.461  -0.231  0.00  0.00    -0.078 C 
ATOM     12  C   UNL     1       2.060   1.659   1.242  0.00  0.00    -0.078 C 
ATOM     13  C   UNL     1       3.529   2.075   1.136  0.00  0.00    -0.013 C 
ATOM     14  N   UNL     1       1.373   1.998  -0.023  0.00  0.00    +0.382 N 
ATOM     15  H   UNL     1       1.869   1.547  -0.802  0.00  0.00    -0.081 HD
BRANCH  14  16
ATOM     16  C   UNL     1      -0.018   1.503   0.010  0.00  0.00    -0.042 C 
BRANCH  16  17
ATOM     17  C   UNL     1       0.002  -0.004   0.002  0.00  0.00    -0.046 A 
ATOM     18  C   UNL     1      -0.287  -0.706   1.157  0.00  0.00    +0.003 A 
ATOM     19  C   UNL     1      -0.269  -2.088   1.150  0.00  0.00    +0.000 A 
ATOM     20  C   UNL     1       0.039  -2.769  -0.013  0.00  0.00    +0.001 A 
ATOM     21  C   UNL     1       0.329  -2.069  -1.169  0.00  0.00    +0.020 A 
ATOM     22  C   UNL     1       0.305  -0.685  -1.163  0.00  0.00    +0.042 A 
ATOM     23 CL   UNL     1       0.661   0.195  -2.616  0.00  0.00    -0.083 Cl
ENDBRANCH  16  17
ENDBRANCH  14  16
ENDBRANCH   1   9
BRANCH   1  25
ATOM     24  C   UNL     1       7.332   4.084   1.793  0.00  0.00    +0.006 C 
ATOM     25  C   UNL     1       5.874   3.661   1.986  0.00  0.00    +0.032 C 
ENDBRANCH   1  25
BRANCH   4  26
ATOM     26  C   UNL     1       6.056   6.799  -1.507  0.00  0.00    +0.153 C 
BRANCH  26  27
ATOM     27  C   UNL     1       7.437   7.271  -1.131  0.00  0.00    -0.026 A 
ATOM     28  C   UNL     1       8.530   6.866  -1.874  0.00  0.00    +0.009 A 
ATOM     29  C   UNL     1       9.799   7.296  -1.533  0.00  0.00    +0.050 A 
ATOM     30  C   UNL     1       9.978   8.135  -0.445  0.00  0.00    +0.166 A 
ATOM     31  C   UNL     1       8.877   8.542   0.304  0.00  0.00    +0.167 A 
ATOM     32  C   UNL     1       7.607   8.111  -0.046  0.00  0.00    +0.054 A 
ATOM     33  O   UNL     1       9.310   9.355   1.311  0.00  0.00    -0.453 OA
ATOM     34  C   UNL     1      10.726   9.113   1.418  0.00  0.00    +0.466 C 
ATOM     35  O   UNL     1      11.102   8.693   0.093  0.00  0.00    -0.453 OA
ENDBRANCH  26  27
ENDBRANCH   4  26
TORSDOF 6
