REMARK  Name = ZINC65561990
REMARK  7 active torsions:
REMARK  status: ('A' for Active; 'I' for Inactive)
REMARK    1  A    between atoms: C_1  and  C_2
REMARK    2  A    between atoms: C_4  and  C_21
REMARK    3  A    between atoms: C_7  and  N_8
REMARK    4  A    between atoms: C_9  and  C_11
REMARK    5  A    between atoms: C_15  and  N_18
REMARK    6  A    between atoms: C_16  and  C_17
REMARK    7  A    between atoms: N_23  and  C_24
REMARK                            x       y       z     vdW  Elec       q    Type
REMARK                         _______ _______ _______ _____ _____    ______ ____
ROOT
ATOM      1  C   UNL     1      -0.547   0.004   0.009  0.00  0.00    +0.045 C 
ATOM      2  C   UNL     1      -0.761  -1.443   0.370  0.00  0.00    -0.029 A 
ATOM      3  C   UNL     1      -0.977  -2.374  -0.620  0.00  0.00    +0.018 A 
ATOM      4  C   UNL     1      -1.175  -3.716  -0.284  0.00  0.00    +0.037 A 
ATOM      5  C   UNL     1      -1.152  -4.108   1.057  0.00  0.00    +0.015 A 
ATOM      6  C   UNL     1      -0.935  -3.172   2.043  0.00  0.00    +0.024 A 
ATOM      7  C   UNL     1      -0.734  -1.837   1.704  0.00  0.00    +0.037 A 
ENDROOT
BRANCH   7   8
ATOM      8  N   UNL     1      -0.509  -0.893   2.704  0.00  0.00    -0.281 N 
ATOM      9  C   UNL     1      -1.071  -1.051   3.919  0.00  0.00    +0.249 C 
ATOM     10  O   UNL     1      -1.690  -2.065   4.175  0.00  0.00    -0.270 OA
ATOM     11  H   UNL     1       0.052  -0.122   2.526  0.00  0.00    +0.155 HD
BRANCH   9  12
ATOM     12  C   UNL     1      -0.936   0.010   4.939  0.00  0.00    +0.042 A 
ATOM     13  C   UNL     1      -0.115   1.113   4.699  0.00  0.00    +0.013 A 
ATOM     14  C   UNL     1       0.007   2.100   5.656  0.00  0.00    +0.003 A 
ATOM     15  C   UNL     1      -0.683   1.997   6.851  0.00  0.00    +0.033 A 
ATOM     16  C   UNL     1      -1.498   0.907   7.095  0.00  0.00    +0.130 A 
ATOM     17  C   UNL     1      -1.633  -0.084   6.144  0.00  0.00    -0.008 A 
ATOM     18  C   UNL     1      -2.527  -1.268   6.410  0.00  0.00    +0.047 C 
BRANCH  16  19
ATOM     19  N   UNL     1      -2.232   0.806   8.376  0.00  0.00    +0.057 N 
ATOM     20  O   UNL     1      -2.219   1.731   9.155  0.00  0.00    -0.126 OA
ATOM     21  O   UNL     1      -2.845  -0.201   8.644  0.00  0.00    -0.126 OA
ENDBRANCH  16  19
ENDBRANCH   9  12
ENDBRANCH   7   8
BRANCH   4  22
ATOM     22  C   UNL     1      -1.408  -4.717  -1.343  0.00  0.00    +0.244 C 
ATOM     23  O   UNL     1      -1.427  -4.375  -2.510  0.00  0.00    -0.270 OA
ATOM     24  N   UNL     1      -1.598  -6.011  -1.018  0.00  0.00    -0.308 N 
ATOM     25  H   UNL     1      -1.583  -6.284  -0.087  0.00  0.00    +0.149 HD
BRANCH  24  26
ATOM     26  C   UNL     1      -1.829  -7.005  -2.069  0.00  0.00    +0.073 C 
ATOM     27  C   UNL     1      -3.335  -7.090  -2.394  0.00  0.00    +0.022 C 
ATOM     28  C   UNL     1      -3.580  -8.595  -2.667  0.00  0.00    +0.002 C 
ATOM     29  C   UNL     1      -2.668  -9.285  -1.621  0.00  0.00    +0.002 C 
ATOM     30  C   UNL     1      -1.405  -8.400  -1.578  0.00  0.00    +0.022 C 
ENDBRANCH  24  26
ENDBRANCH   4  22
TORSDOF 5
