REMARK  Name = ZINC21522487
REMARK  5 active torsions:
REMARK  status: ('A' for Active; 'I' for Inactive)
REMARK    1  A    between atoms: C_1  and  C_2
REMARK    2  A    between atoms: C_5  and  C_8
REMARK    3  A    between atoms: C_8  and  C_10
REMARK    4  A    between atoms: C_19  and  N_20
REMARK    5  A    between atoms: C_23  and  C_26
REMARK                            x       y       z     vdW  Elec       q    Type
REMARK                         _______ _______ _______ _____ _____    ______ ____
ROOT
ATOM      1  C   UNL     1      -2.401  -4.005   0.702  0.00  0.00    +0.060 A 
ATOM      2  C   UNL     1      -1.064  -4.413   0.554  0.00  0.00    +0.096 A 
ATOM      3  N   UNL     1      -0.120  -3.564   0.241  0.00  0.00    -0.360 N 
ATOM      4  C   UNL     1      -0.371  -2.261   0.043  0.00  0.00    +0.052 A 
ATOM      5  C   UNL     1       0.665  -1.377  -0.292  0.00  0.00    +0.075 A 
ATOM      6  C   UNL     1       0.391  -0.040  -0.493  0.00  0.00    +0.164 A 
ATOM      7  C   UNL     1      -0.917   0.446  -0.368  0.00  0.00    +0.163 A 
ATOM      8  C   UNL     1      -1.942  -0.398  -0.041  0.00  0.00    +0.061 A 
ATOM      9  C   UNL     1      -1.689  -1.761   0.170  0.00  0.00    +0.024 A 
ATOM     10  C   UNL     1      -2.732  -2.653   0.509  0.00  0.00    +0.051 A 
ATOM     11  O   UNL     1      -1.190   1.765  -0.572  0.00  0.00    -0.485 OA
ATOM     12  C   UNL     1      -0.077   2.665  -0.533  0.00  0.00    +0.270 C 
ATOM     13  C   UNL     1       1.056   2.065  -1.376  0.00  0.00    +0.270 C 
ATOM     14  O   UNL     1       1.414   0.800  -0.811  0.00  0.00    -0.485 OA
ATOM     15  H   UNL     1       0.918  -3.912   0.133  0.00  0.00    +0.165 HD
ENDROOT
BRANCH  10  16
ATOM     16  N   UNL     1      -4.030  -2.212   0.644  0.00  0.00    -0.329 N 
ATOM     17  C   UNL     1      -4.457  -2.257   2.049  0.00  0.00    +0.106 C 
ATOM     18  C   UNL     1      -5.845  -1.626   2.181  0.00  0.00    +0.031 C 
ATOM     19  C   UNL     1      -6.836  -2.395   1.303  0.00  0.00    +0.078 C 
ATOM     20  C   UNL     1      -6.343  -2.374  -0.147  0.00  0.00    +0.031 C 
ATOM     21  C   UNL     1      -4.940  -2.983  -0.212  0.00  0.00    +0.106 C 
BRANCH  19  22
ATOM     22  C   UNL     1      -8.192  -1.744   1.382  0.00  0.00    +0.214 C 
ATOM     23  O   UNL     1      -8.715  -1.306   0.379  0.00  0.00    -0.276 OA
ATOM     24  N   UNL     1      -8.825  -1.648   2.568  0.00  0.00    -0.329 N 
ATOM     25  H   UNL     1      -9.816  -1.173   2.627  0.00  0.00    +0.145 HD
ATOM     26  H   UNL     1      -8.351  -2.045   3.478  0.00  0.00    +0.145 HD
ENDBRANCH  19  22
ENDBRANCH  10  16
BRANCH   1  27
ATOM     27  C   UNL     1      -3.441  -4.982   1.055  0.00  0.00    +0.196 C 
ATOM     28  O   UNL     1      -3.985  -5.634   0.183  0.00  0.00    -0.287 OA
BRANCH  27  33
ATOM     29  C   UNL     1      -4.943  -5.724   6.561  0.00  0.00    +0.044 C 
ATOM     30  C   UNL     1      -4.550  -5.530   5.119  0.00  0.00    -0.050 A 
ATOM     31  C   UNL     1      -5.256  -6.176   4.119  0.00  0.00    +0.004 A 
ATOM     32  C   UNL     1      -4.901  -6.002   2.798  0.00  0.00    +0.012 A 
ATOM     33  C   UNL     1      -3.827  -5.173   2.469  0.00  0.00    +0.022 A 
ATOM     34  C   UNL     1      -3.115  -4.529   3.483  0.00  0.00    +0.012 A 
ATOM     35  C   UNL     1      -3.484  -4.706   4.800  0.00  0.00    +0.004 A 
ENDBRANCH  27  33
ENDBRANCH   1  27
TORSDOF 4
