REMARK  Name = ZINC15776507
REMARK  8 active torsions:
REMARK  status: ('A' for Active; 'I' for Inactive)
REMARK    1  A    between atoms: C_6  and  C_7
REMARK    2  A    between atoms: C_7  and  N_8
REMARK    3  A    between atoms: C_15  and  C_18
REMARK    4  A    between atoms: C_18  and  C_19
REMARK    5  A    between atoms: C_19  and  C_20
REMARK    6  A    between atoms: N_22  and  C_23
REMARK    7  A    between atoms: C_23  and  C_24
REMARK    8  A    between atoms: C_29  and  N_66
REMARK                            x       y       z     vdW  Elec       q    Type
REMARK                         _______ _______ _______ _____ _____    ______ ____
ROOT
ATOM      1  N   UNL     1       0.002  -0.004   0.002  0.00  0.00    -0.324 N 
ATOM      2  C   UNL     1      -1.193  -0.716   0.010  0.00  0.00    +0.140 A 
ATOM      3  C   UNL     1      -2.417  -0.019   0.031  0.00  0.00    +0.049 A 
ATOM      4  C   UNL     1      -3.591  -0.705   0.034  0.00  0.00    +0.053 A 
ATOM      5  C   UNL     1      -3.563  -2.112   0.026  0.00  0.00    +0.178 A 
ATOM      6  N   UNL     1      -4.500  -3.047   0.030  0.00  0.00    -0.128 NA
ATOM      7  N   UNL     1      -3.943  -4.207   0.019  0.00  0.00    -0.132 NA
ATOM      8  C   UNL     1      -2.639  -4.081   0.006  0.00  0.00    +0.156 A 
ATOM      9  N   UNL     1      -2.354  -2.762   0.010  0.00  0.00    -0.195 N 
ATOM     10  N   UNL     1      -1.166  -2.028   0.002  0.00  0.00    -0.148 NA
ATOM     11  H   UNL     1       0.849  -0.478  -0.009  0.00  0.00    +0.148 HD
ENDROOT
BRANCH   1  12
ATOM     12  C   UNL     1      -0.018   1.461   0.010  0.00  0.00    +0.138 C 
BRANCH  12  18
ATOM     13  C   UNL     1       2.053   2.220   1.192  0.00  0.00    +0.008 A 
ATOM     14  C   UNL     1       3.352   2.694   1.183  0.00  0.00    +0.038 A 
ATOM     15  C   UNL     1       3.990   2.941  -0.020  0.00  0.00    +0.123 A 
ATOM     16  C   UNL     1       3.329   2.707  -1.214  0.00  0.00    +0.038 A 
ATOM     17  C   UNL     1       2.033   2.228  -1.203  0.00  0.00    +0.008 A 
ATOM     18  C   UNL     1       1.396   1.982  -0.001  0.00  0.00    -0.030 A 
ATOM     19  F   UNL     1       5.258   3.408  -0.030  0.00  0.00    -0.205 F 
ENDBRANCH  12  18
ENDBRANCH   1  12
BRANCH   8  20
ATOM     20  C   UNL     1      -1.637  -5.207  -0.010  0.00  0.00    +0.087 C 
BRANCH  20  21
ATOM     21  C   UNL     1      -1.283  -5.595   1.427  0.00  0.00    +0.103 C 
BRANCH  21  22
ATOM     22  C   UNL     1      -0.281  -6.721   1.411  0.00  0.00    +0.213 C 
ATOM     23  O   UNL     1       0.111  -7.168   0.354  0.00  0.00    -0.276 OA
ATOM     24  N   UNL     1       0.179  -7.230   2.571  0.00  0.00    -0.315 N 
ATOM     25  H   UNL     1      -0.134  -6.872   3.416  0.00  0.00    +0.149 HD
BRANCH  24  26
ATOM     26  C   UNL     1       1.153  -8.325   2.555  0.00  0.00    +0.105 C 
BRANCH  26  27
ATOM     27  C   UNL     1       1.507  -8.713   3.992  0.00  0.00    -0.012 C 
ATOM     28  C   UNL     1       0.281  -9.325   4.699  0.00  0.00    -0.015 C 
ATOM     29  C   UNL     1       0.708 -10.760   5.074  0.00  0.00    -0.078 C 
ATOM     30  C   UNL     1       2.573  -9.830   3.998  0.00  0.00    -0.074 C 
ATOM     31  N   UNL     1       2.166 -10.683   5.121  0.00  0.00    +0.382 N 
ATOM     32  H   UNL     1       2.467 -10.264   6.008  0.00  0.00    -0.081 HD
BRANCH  31  33
ATOM     33  C   UNL     1       2.775 -12.045   4.990  0.00  0.00    -0.069 C 
ATOM     34  C   UNL     1       4.315 -11.953   4.985  0.00  0.00    -0.015 C 
ATOM     35  C   UNL     1       4.755 -13.024   3.957  0.00  0.00    -0.002 C 
ATOM     36  C   UNL     1       3.672 -12.909   2.856  0.00  0.00    -0.002 C 
ATOM     37  C   UNL     1       2.366 -12.652   3.637  0.00  0.00    -0.015 C 
ENDBRANCH  31  33
ENDBRANCH  26  27
ENDBRANCH  24  26
ENDBRANCH  21  22
ENDBRANCH  20  21
ENDBRANCH   8  20
TORSDOF 8
