REMARK  Name = ZINC08994971
REMARK  14 active torsions:
REMARK  status: ('A' for Active; 'I' for Inactive)
REMARK    1  A    between atoms: C_1  and  C_2
REMARK    2  A    between atoms: C_2  and  C_3
REMARK    3  A    between atoms: C_3  and  C_4
REMARK    4  A    between atoms: C_3  and  C_5
REMARK    5  A    between atoms: C_3  and  N_6
REMARK    6  A    between atoms: C_7  and  C_9
REMARK    7  A    between atoms: C_9  and  C_11
REMARK    8  A    between atoms: C_9  and  N_18
REMARK    9  A    between atoms: C_14  and  C_17
REMARK   10  A    between atoms: N_18  and  C_19
REMARK   11  A    between atoms: C_19  and  C_20
REMARK   12  A    between atoms: C_26  and  C_28
REMARK   13  A    between atoms: C_28  and  C_29
REMARK   14  A    between atoms: C_29  and  C_30
REMARK                            x       y       z     vdW  Elec       q    Type
REMARK                         _______ _______ _______ _____ _____    ______ ____
ROOT
ATOM      1  N   UNL     1       2.619  -4.538  -3.380  0.00  0.00    -0.283 N 
ATOM      2  C   UNL     1       2.633  -5.535  -4.287  0.00  0.00    +0.217 C 
ATOM      3  O   UNL     1       1.614  -6.144  -4.535  0.00  0.00    -0.276 OA
ENDROOT
BRANCH   1   4
ATOM      4  C   UNL     1       1.372  -4.190  -2.694  0.00  0.00    +0.192 C 
BRANCH   4   5
ATOM      5  C   UNL     1       0.945  -5.337  -1.815  0.00  0.00    -0.018 A 
ATOM      6  C   UNL     1       1.881  -6.249  -1.365  0.00  0.00    +0.006 A 
ATOM      7  C   UNL     1       1.489  -7.301  -0.559  0.00  0.00    +0.004 A 
ATOM      8  C   UNL     1       0.161  -7.442  -0.203  0.00  0.00    -0.050 A 
ATOM      9  C   UNL     1      -0.775  -6.529  -0.653  0.00  0.00    +0.004 A 
ATOM     10  C   UNL     1      -0.383  -5.474  -1.455  0.00  0.00    +0.006 A 
ATOM     11  C   UNL     1      -0.267  -8.590   0.674  0.00  0.00    +0.044 C 
ENDBRANCH   4   5
BRANCH   4  13
ATOM     12  N   UNL     1       0.777  -1.897  -1.982  0.00  0.00    -0.308 N 
ATOM     13  C   UNL     1       1.591  -2.963  -1.847  0.00  0.00    +0.238 C 
ATOM     14  O   UNL     1       2.499  -2.934  -1.044  0.00  0.00    -0.273 OA
ATOM     15  H   UNL     1       0.050  -1.920  -2.624  0.00  0.00    +0.149 HD
BRANCH  12  16
ATOM     16  C   UNL     1       0.989  -0.704  -1.158  0.00  0.00    +0.029 C 
ATOM     17  C   UNL     1       2.385  -0.140  -1.429  0.00  0.00    +0.031 C 
ATOM     18  C   UNL     1       0.868  -1.077   0.321  0.00  0.00    +0.031 C 
BRANCH  16  20
ATOM     19  C   UNL     1       0.158   1.596  -0.646  0.00  0.00    +0.006 C 
ATOM     20  C   UNL     1      -0.064   0.350  -1.506  0.00  0.00    +0.022 C 
ENDBRANCH  16  20
ENDBRANCH  12  16
ENDBRANCH   4  13
ENDBRANCH   1   4
BRANCH   1  21
ATOM     21  C   UNL     1       3.850  -3.802  -3.080  0.00  0.00    +0.140 C 
BRANCH  21  22
ATOM     22  C   UNL     1       4.696  -4.606  -2.092  0.00  0.00    +0.136 C 
ATOM     23  C   UNL     1       6.028  -3.869  -1.800  0.00  0.00    +0.035 C 
ATOM     24  C   UNL     1       6.383  -4.444  -0.401  0.00  0.00    +0.031 C 
ATOM     25  C   UNL     1       4.990  -4.629   0.239  0.00  0.00    +0.160 C 
ATOM     26  O   UNL     1       4.029  -4.697  -0.823  0.00  0.00    -0.375 OA
ENDBRANCH  21  22
ENDBRANCH   1  21
BRANCH   2  27
ATOM     27  C   UNL     1       3.916  -5.893  -4.992  0.00  0.00    +0.105 C 
BRANCH  27  28
ATOM     28  C   UNL     1       3.659  -7.048  -5.962  0.00  0.00    +0.105 C 
BRANCH  28  29
ATOM     29  C   UNL     1       4.941  -7.407  -6.668  0.00  0.00    +0.219 C 
ATOM     30  O   UNL     1       5.960  -6.798  -6.420  0.00  0.00    -0.275 OA
ATOM     31  N   UNL     1       4.956  -8.404  -7.574  0.00  0.00    -0.270 N 
ATOM     32  C   UNL     1       6.153  -8.773  -8.186  0.00  0.00    +0.125 A 
ATOM     33  C   UNL     1       6.148  -9.744  -9.180  0.00  0.00    +0.044 A 
ATOM     34  C   UNL     1       7.344 -10.101  -9.778  0.00  0.00    +0.005 A 
ATOM     35  C   UNL     1       8.508  -9.471  -9.360  0.00  0.00    +0.020 A 
ATOM     36  C   UNL     1       8.439  -8.514  -8.367  0.00  0.00    +0.113 A 
ATOM     37  N   UNL     1       7.284  -8.191  -7.818  0.00  0.00    -0.240 NA
ATOM     38  H   UNL     1       4.133  -8.865  -7.801  0.00  0.00    +0.156 HD
ENDBRANCH  28  29
ENDBRANCH  27  28
ENDBRANCH   2  27
TORSDOF 10
