REMARK  Name = ZINC10002324
REMARK  13 active torsions:
REMARK  status: ('A' for Active; 'I' for Inactive)
REMARK    1  A    between atoms: C_1  and  C_2
REMARK    2  A    between atoms: C_2  and  O_3
REMARK    3  A    between atoms: O_3  and  C_4
REMARK    4  A    between atoms: C_6  and  C_13
REMARK    5  A    between atoms: C_9  and  O_10
REMARK    6  A    between atoms: O_10  and  C_11
REMARK    7  A    between atoms: N_14  and  N_15
REMARK    8  A    between atoms: C_16  and  C_18
REMARK    9  A    between atoms: C_18  and  C_20
REMARK   10  A    between atoms: C_18  and  N_23
REMARK   11  A    between atoms: C_20  and  C_21
REMARK   12  A    between atoms: C_20  and  C_22
REMARK   13  A    between atoms: C_24  and  C_26
REMARK                            x       y       z     vdW  Elec       q    Type
REMARK                         _______ _______ _______ _____ _____    ______ ____
ROOT
ATOM      1  N   UNL     1       8.332  -0.577  -1.108  0.00  0.00    -0.205 N 
ATOM      2  C   UNL     1       7.174   0.032  -0.786  0.00  0.00    +0.253 C 
ATOM      3  O   UNL     1       6.991   1.191  -1.093  0.00  0.00    -0.272 OA
ATOM      4  H   UNL     1       8.508  -1.479  -0.800  0.00  0.00    +0.177 HD
ENDROOT
BRANCH   1   6
ATOM      5  C   UNL     1      10.398  -0.491  -2.200  0.00  0.00    +0.138 C 
ATOM      6  N   UNL     1       9.282   0.095  -1.889  0.00  0.00    -0.188 NA
BRANCH   5   9
ATOM      7  C   UNL     1      13.533   0.253  -4.128  0.00  0.00    +0.164 A 
ATOM      8  C   UNL     1      12.601  -0.412  -3.352  0.00  0.00    +0.059 A 
ATOM      9  C   UNL     1      11.397   0.215  -3.022  0.00  0.00    -0.001 A 
ATOM     10  C   UNL     1      11.145   1.516  -3.467  0.00  0.00    +0.027 A 
ATOM     11  C   UNL     1      12.082   2.175  -4.236  0.00  0.00    +0.059 A 
ATOM     12  C   UNL     1      13.275   1.549  -4.569  0.00  0.00    +0.175 A 
ATOM     13  I   UNL     1      11.702   4.124  -4.903  0.00  0.00    -0.040 I 
BRANCH  12  14
ATOM     14  O   UNL     1      14.195   2.203  -5.326  0.00  0.00    -0.490 OA
ATOM     15  C   UNL     1      15.173   2.981  -4.633  0.00  0.00    +0.277 C 
ENDBRANCH  12  14
BRANCH   7  16
ATOM     16  O   UNL     1      14.703  -0.357  -4.457  0.00  0.00    -0.489 OA
BRANCH  16  18
ATOM     17  C   UNL     1      16.263  -2.203  -4.439  0.00  0.00    +0.048 C 
ATOM     18  C   UNL     1      14.901  -1.686  -3.972  0.00  0.00    +0.226 C 
ENDBRANCH  16  18
ENDBRANCH   7  16
ENDBRANCH   5   9
ENDBRANCH   1   6
BRANCH   2  19
ATOM     19  C   UNL     1       6.105  -0.728  -0.043  0.00  0.00    +0.163 C 
BRANCH  19  20
ATOM     20  N   UNL     1       4.823  -0.034  -0.185  0.00  0.00    -0.300 N 
ATOM     21  C   UNL     1       3.669  -0.719  -0.068  0.00  0.00    +0.245 C 
ATOM     22  O   UNL     1       3.691  -1.913   0.156  0.00  0.00    -0.270 OA
ATOM     23  H   UNL     1       4.805   0.920  -0.364  0.00  0.00    +0.150 HD
BRANCH  21  24
ATOM     24  C   UNL     1       2.375  -0.018  -0.212  0.00  0.00    +0.037 A 
ATOM     25  C   UNL     1       1.177  -0.725  -0.091  0.00  0.00    +0.013 A 
ATOM     26  C   UNL     1      -0.026  -0.064  -0.226  0.00  0.00    +0.001 A 
ATOM     27  C   UNL     1      -0.048   1.296  -0.481  0.00  0.00    +0.000 A 
ATOM     28  C   UNL     1       1.135   2.002  -0.602  0.00  0.00    +0.001 A 
ATOM     29  C   UNL     1       2.346   1.354  -0.469  0.00  0.00    +0.013 A 
ENDBRANCH  21  24
ENDBRANCH  19  20
BRANCH  19  30
ATOM     30  C   UNL     1       6.477  -0.814   1.439  0.00  0.00    +0.012 C 
ATOM     31  C   UNL     1       6.492   0.592   2.043  0.00  0.00    +0.009 C 
ATOM     32  C   UNL     1       5.447  -1.673   2.174  0.00  0.00    +0.009 C 
ENDBRANCH  19  30
ENDBRANCH   2  19
TORSDOF 9
