REMARK  Name = ZINC08890317
REMARK  8 active torsions:
REMARK  status: ('A' for Active; 'I' for Inactive)
REMARK    1  A    between atoms: C_3  and  N_11
REMARK    2  A    between atoms: C_4  and  N_8
REMARK    3  A    between atoms: C_12  and  C_14
REMARK    4  A    between atoms: C_14  and  O_15
REMARK    5  A    between atoms: O_15  and  C_16
REMARK    6  A    between atoms: C_16  and  C_18
REMARK    7  A    between atoms: C_18  and  C_19
REMARK    8  A    between atoms: C_19  and  C_20
REMARK                            x       y       z     vdW  Elec       q    Type
REMARK                         _______ _______ _______ _____ _____    ______ ____
ROOT
ATOM      1  C   UNL     1      -2.453   9.222  -5.720  0.00  0.00    +0.308 C 
ATOM      2  O   UNL     1      -2.610   8.856  -6.861  0.00  0.00    -0.251 OA
ENDROOT
BRANCH   1   3
ATOM      3  O   UNL     1      -2.555  10.524  -5.412  0.00  0.00    -0.455 OA
BRANCH   3   4
ATOM      4  C   UNL     1      -2.856  11.437  -6.501  0.00  0.00    +0.328 C 
BRANCH   4   6
ATOM      5  N   UNL     1      -3.200  13.867  -6.805  0.00  0.00    -0.281 N 
ATOM      6  C   UNL     1      -2.931  12.845  -5.969  0.00  0.00    +0.255 C 
ATOM      7  O   UNL     1      -2.749  13.058  -4.789  0.00  0.00    -0.272 OA
ATOM      8  H   UNL     1      -3.266  13.709  -7.760  0.00  0.00    +0.155 HD
BRANCH   5  11
ATOM      9  C   UNL     1      -3.992  16.608  -4.485  0.00  0.00    +0.022 A 
ATOM     10  C   UNL     1      -3.811  15.334  -4.986  0.00  0.00    +0.027 A 
ATOM     11  C   UNL     1      -3.385  15.158  -6.295  0.00  0.00    +0.064 A 
ATOM     12  C   UNL     1      -3.137  16.265  -7.097  0.00  0.00    +0.149 A 
ATOM     13  C   UNL     1      -3.325  17.537  -6.593  0.00  0.00    +0.054 A 
ATOM     14  C   UNL     1      -3.749  17.709  -5.287  0.00  0.00    +0.043 A 
ATOM     15 CL   UNL     1      -3.978  19.310  -4.655  0.00  0.00    -0.083 Cl
BRANCH  12  16
ATOM     16  N   UNL     1      -2.677  16.081  -8.492  0.00  0.00    +0.058 N 
ATOM     17  O   UNL     1      -2.373  17.049  -9.166  0.00  0.00    -0.126 OA
ATOM     18  O   UNL     1      -2.602  14.961  -8.966  0.00  0.00    -0.126 OA
ENDBRANCH  12  16
ENDBRANCH   5  11
ENDBRANCH   4   6
ENDBRANCH   3   4
ENDBRANCH   1   3
BRANCH   1  19
ATOM     19  C   UNL     1      -2.143   8.215  -4.643  0.00  0.00    +0.128 C 
BRANCH  19  20
ATOM     20  C   UNL     1      -2.083   6.814  -5.255  0.00  0.00    +0.085 C 
BRANCH  20  21
ATOM     21  C   UNL     1      -1.773   5.807  -4.178  0.00  0.00    +0.111 A 
ATOM     22  N   UNL     1      -1.677   4.500  -4.522  0.00  0.00    -0.310 N 
ATOM     23  H   UNL     1      -1.810   4.256  -5.451  0.00  0.00    +0.170 HD
ATOM     24  C   UNL     1      -1.402   3.519  -3.630  0.00  0.00    +0.260 A 
ATOM     25  O   UNL     1      -1.318   2.349  -3.959  0.00  0.00    -0.267 OA
ATOM     26  C   UNL     1      -1.216   3.946  -2.272  0.00  0.00    +0.075 A 
ATOM     27  C   UNL     1      -0.915   3.104  -1.129  0.00  0.00    -0.023 A 
ATOM     28  C   UNL     1      -0.781   3.728   0.066  0.00  0.00    -0.004 A 
ATOM     29  S   UNL     1      -1.046   5.449  -0.277  0.00  0.00    -0.073 S 
ATOM     30  C   UNL     1      -1.336   5.330  -2.013  0.00  0.00    +0.116 A 
ATOM     31  N   UNL     1      -1.608   6.237  -2.946  0.00  0.00    -0.227 NA
ATOM     32  C   UNL     1      -0.475   3.097   1.389  0.00  0.00    +0.043 C 
ATOM     33  C   UNL     1      -0.701   1.583   1.268  0.00  0.00    +0.005 C 
ATOM     34  C   UNL     1      -0.004   1.084  -0.001  0.00  0.00    +0.005 C 
ATOM     35  C   UNL     1      -0.752   1.590  -1.235  0.00  0.00    +0.037 C 
ENDBRANCH  20  21
ENDBRANCH  19  20
ENDBRANCH   1  19
TORSDOF 8
