REMARK  Name = ZINC63194402
REMARK  9 active torsions:
REMARK  status: ('A' for Active; 'I' for Inactive)
REMARK    1  A    between atoms: C_1  and  C_2
REMARK    2  A    between atoms: C_2  and  N_3
REMARK    3  A    between atoms: C_4  and  C_26
REMARK    4  A    between atoms: C_7  and  S_8
REMARK    5  A    between atoms: S_8  and  C_9
REMARK    6  A    between atoms: C_9  and  C_10
REMARK    7  A    between atoms: N_12  and  N_13
REMARK    8  A    between atoms: C_14  and  C_16
REMARK    9  A    between atoms: C_16  and  C_17
REMARK                            x       y       z     vdW  Elec       q    Type
REMARK                         _______ _______ _______ _____ _____    ______ ____
ROOT
ATOM      1  C   UNL     1      -2.971  -1.094   5.121  0.00  0.00    +0.239 C 
ATOM      2  O   UNL     1      -3.866  -0.720   4.393  0.00  0.00    -0.273 OA
ATOM      3  N   UNL     1      -3.240  -1.443   6.395  0.00  0.00    -0.234 N 
ATOM      4  H   UNL     1      -2.524  -1.743   6.977  0.00  0.00    +0.173 HD
ENDROOT
BRANCH   3   5
ATOM      5  N   UNL     1      -4.553  -1.374   6.878  0.00  0.00    -0.234 N 
ATOM      6  C   UNL     1      -4.822  -1.724   8.151  0.00  0.00    +0.233 C 
ATOM      7  O   UNL     1      -3.927  -2.098   8.879  0.00  0.00    -0.274 OA
ATOM      8  H   UNL     1      -5.269  -1.075   6.296  0.00  0.00    +0.173 HD
BRANCH   6   9
ATOM      9  C   UNL     1      -6.235  -1.650   8.671  0.00  0.00    +0.130 C 
BRANCH   9  10
ATOM     10  C   UNL     1      -6.264  -2.091  10.112  0.00  0.00    -0.033 C 
ATOM     11  C   UNL     1      -6.209  -1.298  11.206  0.00  0.00    -0.001 A 
ATOM     12  C   UNL     1      -6.109   0.156  11.376  0.00  0.00    +0.010 A 
ATOM     13  C   UNL     1      -6.072   0.669  12.627  0.00  0.00    +0.001 A 
ATOM     14  C   UNL     1      -6.127  -0.151  13.762  0.00  0.00    +0.002 A 
ATOM     15  C   UNL     1      -6.220  -1.496  13.686  0.00  0.00    +0.026 A 
ATOM     16  C   UNL     1      -6.266  -2.143  12.421  0.00  0.00    +0.043 A 
ATOM     17  N   UNL     1      -6.353  -3.408  12.090  0.00  0.00    -0.380 N 
ATOM     18  C   UNL     1      -6.367  -3.509  10.626  0.00  0.00    +0.145 C 
ATOM     19  H   UNL     1      -6.404  -4.153  12.709  0.00  0.00    +0.160 HD
ENDBRANCH   9  10
ENDBRANCH   6   9
ENDBRANCH   3   5
BRANCH   1  20
ATOM     20  C   UNL     1      -1.559  -1.168   4.601  0.00  0.00    +0.174 C 
BRANCH  20  21
ATOM     21  S   UNL     1      -1.524  -0.637   2.867  0.00  0.00    -0.077 S 
BRANCH  21  26
ATOM     22  N   UNL     1       0.711  -0.489   1.189  0.00  0.00    -0.302 N 
ATOM     23  C   UNL     1       2.059  -0.744   1.308  0.00  0.00    +0.171 A 
ATOM     24  N   UNL     1       2.265  -1.162   2.537  0.00  0.00    -0.128 NA
ATOM     25  N   UNL     1       1.155  -1.185   3.184  0.00  0.00    -0.122 NA
ATOM     26  C   UNL     1       0.172  -0.778   2.412  0.00  0.00    +0.192 A 
BRANCH  23  27
ATOM     27  C   UNL     1       3.076  -0.580   0.257  0.00  0.00    +0.056 A 
ATOM     28  C   UNL     1       4.443  -0.551   0.374  0.00  0.00    +0.019 A 
ATOM     29  C   UNL     1       5.200  -0.385  -0.764  0.00  0.00    +0.008 A 
ATOM     30  C   UNL     1       4.575  -0.255  -1.963  0.00  0.00    +0.046 A 
ATOM     31  S   UNL     1       2.854  -0.376  -1.503  0.00  0.00    -0.094 S 
ENDBRANCH  23  27
BRANCH  22  33
ATOM     32  C   UNL     1      -0.019   1.526   0.010  0.00  0.00    +0.027 C 
ATOM     33  C   UNL     1       0.002  -0.004   0.002  0.00  0.00    +0.122 C 
ENDBRANCH  22  33
ENDBRANCH  21  26
ENDBRANCH  20  21
ENDBRANCH   1  20
TORSDOF 8
