REMARK  Name = ZINC22699908
REMARK  12 active torsions:
REMARK  status: ('A' for Active; 'I' for Inactive)
REMARK    1  A    between atoms: C_1  and  C_2
REMARK    2  A    between atoms: C_2  and  O_3
REMARK    3  A    between atoms: O_3  and  C_4
REMARK    4  A    between atoms: C_4  and  C_6
REMARK    5  A    between atoms: C_6  and  C_7
REMARK    6  A    between atoms: C_13  and  C_15
REMARK    7  A    between atoms: C_15  and  C_17
REMARK    8  A    between atoms: C_15  and  N_20
REMARK    9  A    between atoms: C_17  and  C_18
REMARK   10  A    between atoms: C_17  and  C_19
REMARK   11  A    between atoms: N_20  and  S_21
REMARK   12  A    between atoms: S_21  and  C_24
REMARK                            x       y       z     vdW  Elec       q    Type
REMARK                         _______ _______ _______ _____ _____    ______ ____
ROOT
ATOM      1  C   UNL     1       5.906   1.557   0.002  0.00  0.00    +0.165 C 
ENDROOT
BRANCH   1   8
ATOM      2  C   UNL     1       1.328   2.527   3.835  0.00  0.00    +0.061 A 
ATOM      3  C   UNL     1       0.914   1.242   3.713  0.00  0.00    +0.072 A 
ATOM      4  S   UNL     1       2.150   0.601   2.593  0.00  0.00    -0.060 S 
ATOM      5  C   UNL     1       3.066   2.064   2.405  0.00  0.00    +0.165 A 
ATOM      6  N   UNL     1       2.402   2.907   3.172  0.00  0.00    -0.229 NA
ATOM      7  N   UNL     1       4.206   2.289   1.643  0.00  0.00    -0.263 N 
ATOM      8  C   UNL     1       4.741   1.286   0.918  0.00  0.00    +0.238 C 
ATOM      9  O   UNL     1       4.284   0.166   1.004  0.00  0.00    -0.274 OA
ATOM     10  H   UNL     1       4.672   3.285   1.630  0.00  0.00    +0.157 HD
BRANCH   2  11
ATOM     11  C   UNL     1       0.574   3.501   4.704  0.00  0.00    +0.176 C 
BRANCH  11  12
ATOM     12  C   UNL     1       1.516   4.112   5.709  0.00  0.00    +0.313 C 
ATOM     13  O   UNL     1       2.680   3.789   5.719  0.00  0.00    -0.250 OA
BRANCH  12  14
ATOM     14  O   UNL     1       1.061   5.013   6.593  0.00  0.00    -0.465 OA
BRANCH  14  16
ATOM     15  C   UNL     1       1.328   6.563   8.453  0.00  0.00    +0.048 C 
ATOM     16  C   UNL     1       2.025   5.560   7.532  0.00  0.00    +0.229 C 
ENDBRANCH  14  16
ENDBRANCH  12  14
ENDBRANCH  11  12
ENDBRANCH   2  11
ENDBRANCH   1   8
BRANCH   1  17
ATOM     17  C   UNL     1       5.389   2.076  -1.342  0.00  0.00    +0.010 C 
ATOM     18  C   UNL     1       6.572   2.481  -2.222  0.00  0.00    +0.009 C 
ATOM     19  C   UNL     1       4.588   0.974  -2.039  0.00  0.00    +0.009 C 
ENDBRANCH   1  17
BRANCH   1  20
ATOM     20  N   UNL     1       6.659   0.318  -0.210  0.00  0.00    -0.178 NA
ATOM     21  H   UNL     1       6.146  -0.580  -0.586  0.00  0.00    +0.149 HD
BRANCH  20  22
ATOM     22  S   UNL     1       8.215   0.190   0.342  0.00  0.00    +0.059 S 
ATOM     23  O   UNL     1       8.650  -1.126   0.029  0.00  0.00    -0.153 OA
ATOM     24  O   UNL     1       8.903   1.348  -0.110  0.00  0.00    -0.153 OA
BRANCH  22  25
ATOM     25  C   UNL     1       8.153   0.295   2.100  0.00  0.00    +0.106 A 
ATOM     26  C   UNL     1       8.259   1.540   2.717  0.00  0.00    +0.029 A 
ATOM     27  C   UNL     1       8.210   1.657   4.072  0.00  0.00    +0.010 A 
ATOM     28  C   UNL     1       8.063   0.505   4.864  0.00  0.00    -0.018 A 
ATOM     29  C   UNL     1       8.015   0.586   6.267  0.00  0.00    +0.008 A 
ATOM     30  C   UNL     1       7.871  -0.551   7.002  0.00  0.00    +0.001 A 
ATOM     31  C   UNL     1       7.771  -1.796   6.385  0.00  0.00    +0.001 A 
ATOM     32  C   UNL     1       7.814  -1.913   5.029  0.00  0.00    +0.008 A 
ATOM     33  C   UNL     1       7.961  -0.761   4.237  0.00  0.00    -0.016 A 
ATOM     34  C   UNL     1       8.010  -0.841   2.835  0.00  0.00    +0.037 A 
ENDBRANCH  22  25
ENDBRANCH  20  22
ENDBRANCH   1  20
TORSDOF 9
