REMARK  Name = ZINC02753383
REMARK  12 active torsions:
REMARK  status: ('A' for Active; 'I' for Inactive)
REMARK    1  A    between atoms: C_1  and  C_2
REMARK    2  A    between atoms: C_2  and  C_3
REMARK    3  A    between atoms: C_3  and  O_4
REMARK    4  A    between atoms: O_4  and  C_5
REMARK    5  A    between atoms: C_5  and  C_7
REMARK    6  A    between atoms: C_11  and  N_12
REMARK    7  A    between atoms: C_13  and  C_15
REMARK    8  A    between atoms: C_18  and  C_21
REMARK    9  A    between atoms: C_21  and  N_22
REMARK   10  A    between atoms: C_23  and  C_31
REMARK   11  A    between atoms: C_24  and  N_28
REMARK   12  A    between atoms: C_25  and  C_27
REMARK                            x       y       z     vdW  Elec       q    Type
REMARK                         _______ _______ _______ _____ _____    ______ ____
ROOT
ATOM      1  N   UNL     1      -1.244  -2.111   0.003  0.00  0.00    -0.275 N 
ATOM      2  C   UNL     1      -1.266  -0.764   0.011  0.00  0.00    +0.249 C 
ATOM      3  O   UNL     1      -2.328  -0.173   0.024  0.00  0.00    -0.270 OA
ATOM      4  H   UNL     1      -0.396  -2.583  -0.008  0.00  0.00    +0.156 HD
ENDROOT
BRANCH   1   9
ATOM      5  C   UNL     1      -2.613  -4.200  -0.000  0.00  0.00    +0.091 A 
ATOM      6  C   UNL     1      -3.979  -4.697   0.017  0.00  0.00    -0.021 A 
ATOM      7  C   UNL     1      -4.937  -3.746   0.031  0.00  0.00    -0.004 A 
ATOM      8  S   UNL     1      -4.053  -2.212   0.030  0.00  0.00    -0.077 S 
ATOM      9  C   UNL     1      -2.432  -2.823   0.011  0.00  0.00    +0.087 A 
ATOM     10  C   UNL     1      -6.420  -3.957   0.043  0.00  0.00    +0.043 C 
ATOM     11  C   UNL     1      -6.704  -5.417  -0.341  0.00  0.00    +0.005 C 
ATOM     12  C   UNL     1      -5.790  -6.329   0.483  0.00  0.00    +0.005 C 
ATOM     13  C   UNL     1      -4.342  -6.177   0.013  0.00  0.00    +0.037 C 
BRANCH   5  14
ATOM     14  C   UNL     1      -1.472  -5.117  -0.024  0.00  0.00    +0.342 C 
ATOM     15  O   UNL     1      -0.984  -5.508   1.020  0.00  0.00    -0.245 OA
BRANCH  14  16
ATOM     16  O   UNL     1      -0.960  -5.527  -1.203  0.00  0.00    -0.461 OA
BRANCH  16  17
ATOM     17  C   UNL     1       0.171  -6.435  -1.150  0.00  0.00    +0.232 C 
BRANCH  17  19
ATOM     18  C   UNL     1       1.802  -7.744  -2.517  0.00  0.00    +0.007 C 
ATOM     19  C   UNL     1       0.610  -6.787  -2.573  0.00  0.00    +0.038 C 
ENDBRANCH  17  19
ENDBRANCH  16  17
ENDBRANCH  14  16
ENDBRANCH   5  14
ENDBRANCH   1   9
BRANCH   2  20
ATOM     20  C   UNL     1       0.002  -0.004   0.002  0.00  0.00    +0.037 A 
ATOM     21  C   UNL     1      -0.017   1.392   0.010  0.00  0.00    +0.013 A 
ATOM     22  C   UNL     1       1.170   2.095   0.002  0.00  0.00    +0.006 A 
ATOM     23  C   UNL     1       2.378   1.419  -0.013  0.00  0.00    -0.026 A 
ATOM     24  C   UNL     1       2.404   0.036  -0.021  0.00  0.00    +0.006 A 
ATOM     25  C   UNL     1       1.224  -0.679  -0.013  0.00  0.00    +0.013 A 
BRANCH  23  26
ATOM     26  C   UNL     1       3.670   2.194  -0.021  0.00  0.00    +0.179 C 
BRANCH  26  27
ATOM     27  N   UNL     1       4.076   2.453  -1.405  0.00  0.00    -0.262 N 
ATOM     28  C   UNL     1       4.861   1.659  -2.163  0.00  0.00    +0.067 A 
ATOM     29  C   UNL     1       4.993   2.248  -3.375  0.00  0.00    +0.169 A 
ATOM     30  C   UNL     1       4.273   3.446  -3.352  0.00  0.00    +0.090 A 
ATOM     31  N   UNL     1       3.722   3.570  -2.172  0.00  0.00    -0.174 NA
ATOM     32  C   UNL     1       4.151   4.426  -4.491  0.00  0.00    +0.070 C 
ATOM     33  C   UNL     1       5.476   0.351  -1.739  0.00  0.00    +0.068 C 
BRANCH  29  34
ATOM     34  N   UNL     1       5.769   1.720  -4.519  0.00  0.00    +0.060 N 
ATOM     35  O   UNL     1       6.945   2.011  -4.644  0.00  0.00    -0.126 OA
ATOM     36  O   UNL     1       5.232   0.993  -5.336  0.00  0.00    -0.126 OA
ENDBRANCH  29  34
ENDBRANCH  26  27
ENDBRANCH  23  26
ENDBRANCH   2  20
TORSDOF 9
