REMARK  Name = ZINC66926244
REMARK  7 active torsions:
REMARK  status: ('A' for Active; 'I' for Inactive)
REMARK    1  A    between atoms: C_1  and  C_2
REMARK    2  A    between atoms: C_5  and  C_7
REMARK    3  A    between atoms: C_7  and  C_9
REMARK    4  A    between atoms: C_7  and  N_10
REMARK    5  A    between atoms: N_13  and  N_14
REMARK    6  A    between atoms: C_15  and  C_17
REMARK    7  A    between atoms: C_17  and  C_18
REMARK                            x       y       z     vdW  Elec       q    Type
REMARK                         _______ _______ _______ _____ _____    ______ ____
ROOT
ATOM      1  N   UNL     1       1.045  -4.008   2.046  0.00  0.00    -0.290 N 
ATOM      2  C   UNL     1       1.607  -4.651   3.088  0.00  0.00    +0.316 C 
ATOM      3  O   UNL     1       1.292  -4.358   4.226  0.00  0.00    -0.251 OA
ATOM      4  N   UNL     1       2.519  -5.619   2.870  0.00  0.00    -0.218 N 
ATOM      5  H   UNL     1       1.296  -4.242   1.139  0.00  0.00    +0.151 HD
ATOM      6  H   UNL     1       2.924  -6.082   3.620  0.00  0.00    +0.174 HD
ENDROOT
BRANCH   4   7
ATOM      7  N   UNL     1       2.881  -5.957   1.560  0.00  0.00    -0.233 N 
ATOM      8  C   UNL     1       3.793  -6.926   1.341  0.00  0.00    +0.234 C 
ATOM      9  O   UNL     1       4.299  -7.505   2.279  0.00  0.00    -0.274 OA
ATOM     10  H   UNL     1       2.476  -5.494   0.810  0.00  0.00    +0.173 HD
BRANCH   8  11
ATOM     11  C   UNL     1       4.183  -7.290  -0.068  0.00  0.00    +0.135 C 
BRANCH  11  12
ATOM     12  C   UNL     1       5.210  -8.392  -0.037  0.00  0.00    -0.003 A 
ATOM     13  C   UNL     1       6.556  -8.084  -0.089  0.00  0.00    +0.007 A 
ATOM     14  C   UNL     1       7.499  -9.095  -0.060  0.00  0.00    +0.000 A 
ATOM     15  C   UNL     1       7.096 -10.415   0.021  0.00  0.00    +0.003 A 
ATOM     16  C   UNL     1       5.750 -10.725   0.074  0.00  0.00    +0.038 A 
ATOM     17  C   UNL     1       4.806  -9.713   0.051  0.00  0.00    +0.127 A 
ATOM     18  F   UNL     1       3.490 -10.015   0.107  0.00  0.00    -0.205 F 
ENDBRANCH  11  12
ENDBRANCH   8  11
ENDBRANCH   4   7
BRANCH   1  19
ATOM     19  C   UNL     1       0.054  -2.955   2.284  0.00  0.00    +0.127 C 
ATOM     20  C   UNL     1      -1.330  -3.585   2.452  0.00  0.00    +0.035 C 
BRANCH  19  25
ATOM     21  C   UNL     1      -0.018   1.503   0.010  0.00  0.00    +0.066 C 
ATOM     22  C   UNL     1       0.002  -0.004   0.002  0.00  0.00    +0.046 A 
ATOM     23  C   UNL     1       0.006  -0.708  -1.159  0.00  0.00    +0.070 A 
ATOM     24  S   UNL     1       0.033  -2.379  -0.531  0.00  0.00    -0.078 S 
ATOM     25  C   UNL     1       0.035  -2.009   1.111  0.00  0.00    +0.099 A 
ATOM     26  N   UNL     1       0.022  -0.699   1.122  0.00  0.00    -0.247 NA
ENDBRANCH  19  25
ENDBRANCH   1  19
TORSDOF 5
