REMARK  Name = ZINC56077709
REMARK  7 active torsions:
REMARK  status: ('A' for Active; 'I' for Inactive)
REMARK    1  A    between atoms: C_1  and  C_2
REMARK    2  A    between atoms: C_10  and  C_11
REMARK    3  A    between atoms: C_11  and  C_13
REMARK    4  A    between atoms: C_11  and  N_14
REMARK    5  A    between atoms: C_15  and  C_17
REMARK    6  A    between atoms: C_17  and  C_19
REMARK    7  A    between atoms: C_17  and  N_20
REMARK                            x       y       z     vdW  Elec       q    Type
REMARK                         _______ _______ _______ _____ _____    ______ ____
ROOT
ATOM      1  N   UNL     1      -0.928  -1.145   3.277  0.00  0.00    -0.304 N 
ATOM      2  C   UNL     1      -1.473  -0.636   4.399  0.00  0.00    +0.234 C 
ATOM      3  O   UNL     1      -1.170   0.478   4.769  0.00  0.00    -0.274 OA
ATOM      4  H   UNL     1      -1.171  -2.037   2.981  0.00  0.00    +0.149 HD
ENDROOT
BRANCH   1   5
ATOM      5  C   UNL     1       0.030  -0.352   2.503  0.00  0.00    +0.136 C 
ATOM      6  C   UNL     1       1.432  -0.532   3.090  0.00  0.00    +0.036 C 
BRANCH   5  16
ATOM      7  C   UNL     1      -0.018   1.503   0.010  0.00  0.00    +0.048 C 
ATOM      8  C   UNL     1       0.002  -0.004   0.002  0.00  0.00    +0.000 A 
ATOM      9  C   UNL     1       0.009  -0.879  -1.177  0.00  0.00    +0.023 A 
ATOM     10  C   UNL     1       0.000  -0.660  -2.553  0.00  0.00    +0.012 A 
ATOM     11  C   UNL     1       0.011  -1.726  -3.409  0.00  0.00    +0.001 A 
ATOM     12  C   UNL     1       0.031  -3.023  -2.916  0.00  0.00    +0.004 A 
ATOM     13  C   UNL     1       0.040  -3.259  -1.558  0.00  0.00    +0.047 A 
ATOM     14  C   UNL     1       0.029  -2.190  -0.671  0.00  0.00    +0.136 A 
ATOM     15  O   UNL     1       0.033  -2.100   0.674  0.00  0.00    -0.458 OA
ATOM     16  C   UNL     1       0.023  -0.814   1.069  0.00  0.00    +0.129 A 
ENDBRANCH   5  16
ENDBRANCH   1   5
BRANCH   2  17
ATOM     17  C   UNL     1      -2.459  -1.452   5.195  0.00  0.00    +0.157 C 
ATOM     18  C   UNL     1      -3.667  -1.790   4.318  0.00  0.00    +0.038 C 
BRANCH  17  19
ATOM     19  N   UNL     1      -2.902  -0.682   6.360  0.00  0.00    -0.289 N 
ATOM     20  C   UNL     1      -3.357  -1.321   7.457  0.00  0.00    +0.298 C 
ATOM     21  O   UNL     1      -3.399  -2.536   7.479  0.00  0.00    -0.253 OA
ATOM     22  N   UNL     1      -3.764  -0.613   8.529  0.00  0.00    -0.313 N 
ATOM     23  H   UNL     1      -2.868   0.287   6.343  0.00  0.00    +0.151 HD
ATOM     24  H   UNL     1      -3.730   0.356   8.511  0.00  0.00    +0.146 HD
ATOM     25  H   UNL     1      -4.091  -1.073   9.318  0.00  0.00    +0.146 HD
ENDBRANCH  17  19
ENDBRANCH   2  17
TORSDOF 4
