REMARK  Name = ZINC17193966
REMARK  7 active torsions:
REMARK  status: ('A' for Active; 'I' for Inactive)
REMARK    1  A    between atoms: C_3  and  C_9
REMARK    2  A    between atoms: N_13  and  C_17
REMARK    3  A    between atoms: C_17  and  C_18
REMARK    4  A    between atoms: C_18  and  N_19
REMARK    5  A    between atoms: C_20  and  C_22
REMARK    6  A    between atoms: C_22  and  N_23
REMARK    7  A    between atoms: C_24  and  C_26
REMARK                            x       y       z     vdW  Elec       q    Type
REMARK                         _______ _______ _______ _____ _____    ______ ____
ROOT
ATOM      1  C   UNL     1       0.274   0.973 -10.075  0.00  0.00    +0.136 C 
ENDROOT
BRANCH   1   6
ATOM      2  C   UNL     1      -1.100   4.351 -13.439  0.00  0.00    +0.029 C 
ATOM      3  C   UNL     1      -1.114   3.166 -12.780  0.00  0.00    +0.080 C 
ATOM      4  C   UNL     1      -0.283   2.708 -11.646  0.00  0.00    +0.260 C 
ATOM      5  O   UNL     1       0.572   3.419 -11.152  0.00  0.00    -0.269 OA
ATOM      6  N   UNL     1      -0.517   1.486 -11.196  0.00  0.00    -0.227 N 
ATOM      7  C   UNL     1      -1.462   0.700 -11.750  0.00  0.00    +0.286 C 
ATOM      8  O   UNL     1      -1.776  -0.434 -11.443  0.00  0.00    -0.262 OA
ATOM      9  S   UNL     1      -2.143   1.728 -13.042  0.00  0.00    -0.026 S 
BRANCH   2  12
ATOM     10  C   UNL     1      -3.109   3.565 -16.506  0.00  0.00    +0.002 A 
ATOM     11  C   UNL     1      -2.359   3.399 -15.360  0.00  0.00    +0.009 A 
ATOM     12  C   UNL     1      -1.893   4.519 -14.664  0.00  0.00    -0.004 A 
ATOM     13  C   UNL     1      -2.181   5.803 -15.145  0.00  0.00    +0.066 A 
ATOM     14  C   UNL     1      -2.927   5.952 -16.298  0.00  0.00    +0.060 A 
ATOM     15  C   UNL     1      -3.390   4.836 -16.976  0.00  0.00    +0.021 A 
ATOM     16 CL   UNL     1      -3.287   7.540 -16.898  0.00  0.00    -0.082 Cl
ATOM     17 CL   UNL     1      -1.602   7.202 -14.296  0.00  0.00    -0.081 Cl
ENDBRANCH   2  12
ENDBRANCH   1   6
BRANCH   1  18
ATOM     18  C   UNL     1      -0.424   1.322  -8.758  0.00  0.00    +0.123 C 
BRANCH  18  19
ATOM     19  N   UNL     1       0.367   0.809  -7.636  0.00  0.00    -0.313 N 
ATOM     20  C   UNL     1      -0.056   0.999  -6.371  0.00  0.00    +0.230 C 
ATOM     21  O   UNL     1      -1.091   1.595  -6.161  0.00  0.00    -0.274 OA
ATOM     22  H   UNL     1       1.195   0.332  -7.804  0.00  0.00    +0.149 HD
BRANCH  20  23
ATOM     23  C   UNL     1       0.757   0.472  -5.217  0.00  0.00    +0.200 C 
BRANCH  23  24
ATOM     24  N   UNL     1       0.089   0.805  -3.956  0.00  0.00    -0.306 N 
ATOM     25  C   UNL     1       0.638   0.431  -2.784  0.00  0.00    +0.217 C 
ATOM     26  O   UNL     1       1.684  -0.182  -2.772  0.00  0.00    -0.276 OA
ATOM     27  H   UNL     1      -0.748   1.295  -3.966  0.00  0.00    +0.149 HD
BRANCH  25  28
ATOM     28  C   UNL     1      -0.049   0.774  -1.487  0.00  0.00    +0.075 C 
ATOM     29  C   UNL     1       0.777   0.238  -0.315  0.00  0.00    +0.013 C 
ATOM     30  C   UNL     1       0.079   0.587   1.001  0.00  0.00    +0.001 C 
ATOM     31  C   UNL     1      -0.052   2.107   1.123  0.00  0.00    +0.000 C 
ATOM     32  C   UNL     1      -0.877   2.642  -0.049  0.00  0.00    +0.001 C 
ATOM     33  C   UNL     1      -0.180   2.294  -1.366  0.00  0.00    +0.013 C 
ENDBRANCH  25  28
ENDBRANCH  23  24
ENDBRANCH  20  23
ENDBRANCH  18  19
ENDBRANCH   1  18
TORSDOF 7
