REMARK  Name = ZINC05137081
REMARK  8 active torsions:
REMARK  status: ('A' for Active; 'I' for Inactive)
REMARK    1  A    between atoms: C_1  and  C_2
REMARK    2  A    between atoms: C_4  and  C_11
REMARK    3  A    between atoms: C_7  and  N_8
REMARK    4  A    between atoms: N_13  and  C_14
REMARK    5  A    between atoms: C_14  and  C_15
REMARK    6  A    between atoms: C_15  and  C_16
REMARK    7  A    between atoms: C_17  and  C_28
REMARK    8  A    between atoms: C_19  and  C_21
REMARK                            x       y       z     vdW  Elec       q    Type
REMARK                         _______ _______ _______ _____ _____    ______ ____
ROOT
ATOM      1  C   UNL     1       1.368  -6.306   0.618  0.00  0.00    +0.109 C 
ENDROOT
BRANCH   1   4
ATOM      2  C   UNL     1       0.138  -4.207   0.485  0.00  0.00    +0.244 C 
ATOM      3  O   UNL     1      -0.869  -4.811   0.799  0.00  0.00    -0.270 OA
ATOM      4  N   UNL     1       1.309  -4.864   0.367  0.00  0.00    -0.311 N 
ATOM      5  H   UNL     1       2.112  -4.381   0.117  0.00  0.00    +0.149 HD
BRANCH   2   9
ATOM      6  C   UNL     1      -2.488   0.031   0.256  0.00  0.00    +0.046 C 
ATOM      7  C   UNL     1      -1.182  -0.710   0.120  0.00  0.00    -0.020 A 
ATOM      8  C   UNL     1      -1.134  -2.069   0.352  0.00  0.00    +0.018 A 
ATOM      9  C   UNL     1       0.077  -2.752   0.232  0.00  0.00    +0.037 A 
ATOM     10  C   UNL     1       1.232  -2.054  -0.129  0.00  0.00    +0.015 A 
ATOM     11  C   UNL     1       1.169  -0.697  -0.364  0.00  0.00    +0.034 A 
ATOM     12  C   UNL     1      -0.035  -0.026  -0.243  0.00  0.00    +0.129 A 
BRANCH  12  13
ATOM     13  N   UNL     1      -0.096   1.432  -0.495  0.00  0.00    +0.057 N 
ATOM     14  O   UNL     1       0.930   2.058  -0.694  0.00  0.00    -0.126 OA
ATOM     15  O   UNL     1      -1.171   2.003  -0.510  0.00  0.00    -0.126 OA
ENDBRANCH  12  13
ENDBRANCH   2   9
ENDBRANCH   1   4
BRANCH   1  16
ATOM     16  C   UNL     1       2.802  -6.799   0.417  0.00  0.00    +0.063 C 
BRANCH  16  17
ATOM     17  C   UNL     1       2.864  -8.283   0.675  0.00  0.00    +0.014 A 
ATOM     18  C   UNL     1       2.695  -9.321  -0.186  0.00  0.00    +0.049 A 
ATOM     19  N   UNL     1       2.791 -10.555   0.251  0.00  0.00    -0.244 NA
ATOM     20  C   UNL     1       3.053 -10.816   1.524  0.00  0.00    +0.109 A 
ATOM     21  S   UNL     1       3.187  -9.165   2.197  0.00  0.00    -0.072 S 
ATOM     22  C   UNL     1       2.396  -9.056  -1.639  0.00  0.00    +0.066 C 
BRANCH  20  23
ATOM     23  C   UNL     1       3.200 -12.121   2.203  0.00  0.00    +0.010 A 
ATOM     24  C   UNL     1       3.485 -12.172   3.569  0.00  0.00    +0.011 A 
ATOM     25  C   UNL     1       3.617 -13.392   4.199  0.00  0.00    +0.003 A 
ATOM     26  C   UNL     1       3.478 -14.565   3.479  0.00  0.00    +0.038 A 
ATOM     27  C   UNL     1       3.200 -14.523   2.122  0.00  0.00    +0.124 A 
ATOM     28  C   UNL     1       3.060 -13.306   1.481  0.00  0.00    +0.049 A 
ATOM     29  F   UNL     1       3.065 -15.672   1.425  0.00  0.00    -0.205 F 
ENDBRANCH  20  23
ENDBRANCH  16  17
ENDBRANCH   1  16
TORSDOF 6
