REMARK  Name = ZINC09045044
REMARK  12 active torsions:
REMARK  status: ('A' for Active; 'I' for Inactive)
REMARK    1  A    between atoms: C_1  and  C_2
REMARK    2  A    between atoms: C_2  and  C_3
REMARK    3  A    between atoms: C_3  and  O_4
REMARK    4  A    between atoms: O_4  and  C_5
REMARK    5  A    between atoms: C_8  and  C_11
REMARK    6  A    between atoms: C_13  and  C_29
REMARK    7  A    between atoms: C_20  and  C_27
REMARK    8  A    between atoms: C_21  and  C_23
REMARK    9  A    between atoms: C_23  and  O_25
REMARK   10  A    between atoms: O_25  and  C_26
REMARK   11  A    between atoms: C_29  and  C_31
REMARK   12  A    between atoms: C_34  and  C_36
REMARK                            x       y       z     vdW  Elec       q    Type
REMARK                         _______ _______ _______ _____ _____    ______ ____
ROOT
ATOM      1  C   UNL     1       4.791   1.061  -0.015  0.00  0.00    +0.152 C 
ATOM      2  C   UNL     1       5.935   2.049  -0.015  0.00  0.00    +0.080 C 
ATOM      3  C   UNL     1       5.383   3.284  -0.054  0.00  0.00    +0.250 C 
ATOM      4  C   UNL     1       3.913   3.159  -0.086  0.00  0.00    +0.293 C 
ATOM      5  O   UNL     1       3.135   4.092  -0.130  0.00  0.00    -0.266 OA
ATOM      6  N   UNL     1       3.561   1.861  -0.058  0.00  0.00    -0.232 N 
ATOM      7  C   UNL     1       2.271   1.368  -0.073  0.00  0.00    +0.169 A 
ATOM      8  N   UNL     1       1.128   2.037  -0.111  0.00  0.00    -0.229 NA
ATOM      9  C   UNL     1      -0.025   1.423  -0.120  0.00  0.00    +0.062 A 
ATOM     10  C   UNL     1      -0.019   0.034  -0.090  0.00  0.00    +0.120 A 
ATOM     11  S   UNL     1       1.739  -0.285  -0.048  0.00  0.00    -0.045 S 
ATOM     12  C   UNL     1      -1.318   2.195  -0.169  0.00  0.00    +0.067 C 
ATOM     13  O   UNL     1       6.072   4.450  -0.066  0.00  0.00    -0.282 OA
ENDROOT
BRANCH   1  17
ATOM     14  C   UNL     1       4.886  -1.299   3.546  0.00  0.00    +0.121 A 
ATOM     15  C   UNL     1       5.215  -1.870   2.325  0.00  0.00    +0.046 A 
ATOM     16  C   UNL     1       5.184  -1.105   1.175  0.00  0.00    +0.009 A 
ATOM     17  C   UNL     1       4.825   0.229   1.241  0.00  0.00    -0.022 A 
ATOM     18  C   UNL     1       4.502   0.802   2.457  0.00  0.00    +0.009 A 
ATOM     19  C   UNL     1       4.527   0.040   3.609  0.00  0.00    +0.046 A 
BRANCH  14  20
ATOM     20  O   UNL     1       4.916  -2.050   4.678  0.00  0.00    -0.492 OA
BRANCH  20  21
ATOM     21  C   UNL     1       4.566  -1.396   5.900  0.00  0.00    +0.229 C 
BRANCH  21  23
ATOM     22  C   UNL     1       4.281  -1.693   8.364  0.00  0.00    +0.007 C 
ATOM     23  C   UNL     1       4.656  -2.393   7.056  0.00  0.00    +0.038 C 
ENDBRANCH  21  23
ENDBRANCH  20  21
ENDBRANCH  14  20
ENDBRANCH   1  17
BRANCH  10  24
ATOM     24  C   UNL     1      -1.139  -0.905  -0.091  0.00  0.00    +0.347 C 
ATOM     25  O   UNL     1      -2.282  -0.489  -0.122  0.00  0.00    -0.244 OA
BRANCH  24  26
ATOM     26  O   UNL     1      -0.905  -2.233  -0.057  0.00  0.00    -0.464 OA
ATOM     27  C   UNL     1      -2.047  -3.093  -0.060  0.00  0.00    +0.280 C 
ENDBRANCH  24  26
ENDBRANCH  10  24
BRANCH   2  28
ATOM     28  C   UNL     1       7.367   1.730   0.022  0.00  0.00    +0.230 C 
ATOM     29  O   UNL     1       8.036   2.045   0.990  0.00  0.00    -0.283 OA
BRANCH  28  30
ATOM     30  C   UNL     1       7.992   1.034  -1.106  0.00  0.00    +0.175 A 
ATOM     31  C   UNL     1       9.295   0.590  -1.165  0.00  0.00    +0.053 A 
ATOM     32  C   UNL     1       9.454  -0.017  -2.419  0.00  0.00    +0.045 A 
ATOM     33  C   UNL     1       8.271   0.086  -3.066  0.00  0.00    +0.103 A 
ATOM     34  O   UNL     1       7.395   0.718  -2.275  0.00  0.00    -0.457 OA
ATOM     35  C   UNL     1       7.984  -0.427  -4.454  0.00  0.00    +0.086 C 
ENDBRANCH  28  30
ENDBRANCH   2  28
TORSDOF 8
