REMARK  Name = ZINC21236405
REMARK  12 active torsions:
REMARK  status: ('A' for Active; 'I' for Inactive)
REMARK    1  A    between atoms: C_1  and  C_2
REMARK    2  A    between atoms: C_2  and  C_3
REMARK    3  A    between atoms: C_2  and  C_4
REMARK    4  A    between atoms: C_2  and  C_5
REMARK    5  A    between atoms: C_8  and  C_11
REMARK    6  A    between atoms: C_16  and  C_26
REMARK    7  A    between atoms: C_29  and  O_36
REMARK    8  A    between atoms: C_30  and  O_34
REMARK    9  A    between atoms: C_31  and  O_32
REMARK   10  A    between atoms: O_32  and  C_33
REMARK   11  A    between atoms: O_34  and  C_35
REMARK   12  A    between atoms: O_36  and  C_37
REMARK                            x       y       z     vdW  Elec       q    Type
REMARK                         _______ _______ _______ _____ _____    ______ ____
ROOT
ATOM      1  C   UNL     1      -3.809   5.440   3.843  0.00  0.00    +0.032 C 
ATOM      2  C   UNL     1      -4.137   3.959   3.663  0.00  0.00    +0.059 C 
ATOM      3  C   UNL     1      -3.912   3.551   2.216  0.00  0.00    +0.017 C 
ATOM      4  C   UNL     1      -2.945   4.132   1.488  0.00  0.00    +0.037 C 
ATOM      5  C   UNL     1      -2.598   3.807   0.054  0.00  0.00    +0.140 C 
ATOM      6  N   UNL     1      -3.567   2.970  -0.622  0.00  0.00    -0.331 N 
ATOM      7  C   UNL     1      -3.803   1.661  -0.206  0.00  0.00    +0.049 A 
ATOM      8  C   UNL     1      -3.446   0.578  -0.992  0.00  0.00    +0.025 A 
ATOM      9  C   UNL     1      -3.601  -0.705  -0.494  0.00  0.00    +0.002 A 
ATOM     10  C   UNL     1      -4.108  -0.905   0.777  0.00  0.00    +0.002 A 
ATOM     11  C   UNL     1      -4.485   0.175   1.557  0.00  0.00    +0.025 A 
ATOM     12  C   UNL     1      -4.347   1.457   1.053  0.00  0.00    +0.052 A 
ATOM     13  N   UNL     1      -4.748   2.582   1.764  0.00  0.00    -0.316 N 
ATOM     14  C   UNL     1      -2.144   5.153   2.052  0.00  0.00    +0.163 C 
ATOM     15  O   UNL     1      -1.266   5.651   1.375  0.00  0.00    -0.292 OA
ATOM     16  C   UNL     1      -2.340   5.643   3.456  0.00  0.00    +0.088 C 
ATOM     17  H   UNL     1      -4.131   3.365  -1.479  0.00  0.00    +0.147 HD
ATOM     18  H   UNL     1      -5.829   2.656   1.954  0.00  0.00    +0.152 HD
ENDROOT
BRANCH   1  22
ATOM     19  C   UNL     1      -4.402   6.568   7.920  0.00  0.00    -0.042 A 
ATOM     20  C   UNL     1      -5.098   7.214   6.916  0.00  0.00    +0.004 A 
ATOM     21  C   UNL     1      -4.907   6.849   5.597  0.00  0.00    +0.004 A 
ATOM     22  C   UNL     1      -4.018   5.838   5.281  0.00  0.00    -0.043 A 
ATOM     23  C   UNL     1      -3.326   5.188   6.286  0.00  0.00    +0.004 A 
ATOM     24  C   UNL     1      -3.514   5.556   7.605  0.00  0.00    +0.004 A 
BRANCH  19  26
ATOM     25  C   UNL     1      -6.078   6.763   9.737  0.00  0.00    +0.015 C 
ATOM     26  C   UNL     1      -4.609   6.966   9.359  0.00  0.00    -0.013 C 
ATOM     27  C   UNL     1      -3.726   6.102  10.260  0.00  0.00    +0.015 C 
ATOM     28  C   UNL     1      -4.236   8.439   9.539  0.00  0.00    +0.015 C 
ENDBRANCH  19  26
ENDBRANCH   1  22
BRANCH   5  29
ATOM     29  C   UNL     1      -1.264   3.106   0.033  0.00  0.00    +0.023 A 
ATOM     30  C   UNL     1      -0.754   2.556   1.194  0.00  0.00    +0.013 A 
ATOM     31  C   UNL     1       0.471   1.916   1.181  0.00  0.00    +0.050 A 
ATOM     32  C   UNL     1       1.189   1.815  -0.001  0.00  0.00    +0.165 A 
ATOM     33  C   UNL     1       0.679   2.362  -1.171  0.00  0.00    +0.204 A 
ATOM     34  C   UNL     1      -0.551   3.009  -1.153  0.00  0.00    +0.170 A 
BRANCH  34  35
ATOM     35  O   UNL     1      -1.056   3.546  -2.296  0.00  0.00    -0.491 OA
ATOM     36  C   UNL     1      -0.618   4.861  -2.643  0.00  0.00    +0.277 C 
ENDBRANCH  34  35
BRANCH  33  37
ATOM     37  O   UNL     1       1.381   2.265  -2.333  0.00  0.00    -0.488 OA
ATOM     38  C   UNL     1       1.200   1.075  -3.103  0.00  0.00    +0.277 C 
ENDBRANCH  33  37
BRANCH  32  39
ATOM     39  O   UNL     1       2.393   1.181  -0.014  0.00  0.00    -0.491 OA
ATOM     40  C   UNL     1       2.856   0.643   1.226  0.00  0.00    +0.277 C 
ENDBRANCH  32  39
ENDBRANCH   5  29
TORSDOF 6
