REMARK  Name = ZINC25492212
REMARK  3 active torsions:
REMARK  status: ('A' for Active; 'I' for Inactive)
REMARK    1  A    between atoms: C_4  and  C_7
REMARK    2  A    between atoms: C_8  and  C_20
REMARK    3  A    between atoms: C_11  and  C_13
REMARK                            x       y       z     vdW  Elec       q    Type
REMARK                         _______ _______ _______ _____ _____    ______ ____
ROOT
ATOM      1  C   UNL     1       4.738   4.205  -0.022  0.00  0.00    +0.068 A 
ATOM      2  C   UNL     1       5.978   3.532  -0.037  0.00  0.00    +0.153 A 
ATOM      3  C   UNL     1       5.968   2.124  -0.044  0.00  0.00    +0.288 A 
ATOM      4  N   UNL     1       4.803   1.491  -0.036  0.00  0.00    -0.191 NA
ATOM      5  C   UNL     1       3.659   2.163  -0.022  0.00  0.00    +0.143 A 
ATOM      6  N   UNL     1       3.619   3.488  -0.020  0.00  0.00    -0.338 N 
ATOM      7  O   UNL     1       7.128   1.428  -0.059  0.00  0.00    -0.265 OA
ATOM      8  H   UNL     1       2.642   3.993  -0.017  0.00  0.00    +0.167 HD
ENDROOT
BRANCH   1  12
ATOM      9  C   UNL     1       4.583   8.452   0.003  0.00  0.00    +0.000 A 
ATOM     10  C   UNL     1       3.619   7.732  -0.680  0.00  0.00    +0.001 A 
ATOM     11  C   UNL     1       3.664   6.353  -0.692  0.00  0.00    +0.010 A 
ATOM     12  C   UNL     1       4.684   5.685  -0.013  0.00  0.00    -0.001 A 
ATOM     13  C   UNL     1       5.649   6.417   0.678  0.00  0.00    +0.010 A 
ATOM     14  C   UNL     1       5.597   7.796   0.678  0.00  0.00    +0.001 A 
ENDBRANCH   1  12
BRANCH   5  15
ATOM     15  C   UNL     1       2.384   1.407  -0.013  0.00  0.00    +0.017 A 
ATOM     16  C   UNL     1       1.167   2.088   0.002  0.00  0.00    +0.011 A 
ATOM     17  C   UNL     1      -0.017   1.379   0.010  0.00  0.00    +0.001 A 
ATOM     18  C   UNL     1       0.002  -0.004   0.002  0.00  0.00    +0.000 A 
ATOM     19  C   UNL     1       1.206  -0.685  -0.013  0.00  0.00    +0.001 A 
ATOM     20  C   UNL     1       2.397   0.013  -0.020  0.00  0.00    +0.011 A 
ENDBRANCH   5  15
BRANCH   2  21
ATOM     21  C   UNL     1       7.244   4.279  -0.046  0.00  0.00    +0.394 C 
ATOM     22  O   UNL     1       7.757   4.594  -1.103  0.00  0.00    -0.240 OA
ATOM     23  O   UNL     1       7.836   4.616   1.117  0.00  0.00    -0.240 OA
ENDBRANCH   2  21
TORSDOF 3
