REMARK  Name = ZINC04222291
REMARK  13 active torsions:
REMARK  status: ('A' for Active; 'I' for Inactive)
REMARK    1  A    between atoms: C_1  and  C_2
REMARK    2  A    between atoms: C_5  and  O_40
REMARK    3  A    between atoms: C_7  and  C_37
REMARK    4  A    between atoms: C_7  and  C_38
REMARK    5  A    between atoms: C_17  and  C_19
REMARK    6  A    between atoms: C_19  and  O_20
REMARK    7  A    between atoms: O_20  and  C_21
REMARK    8  A    between atoms: C_27  and  C_29
REMARK    9  A    between atoms: C_29  and  C_30
REMARK   10  A    between atoms: N_32  and  C_33
REMARK   11  A    between atoms: N_32  and  C_34
REMARK   12  A    between atoms: C_34  and  C_35
REMARK   13  A    between atoms: C_38  and  O_39
REMARK                            x       y       z     vdW  Elec       q    Type
REMARK                         _______ _______ _______ _____ _____    ______ ____
ROOT
ATOM      1  C   UNL     1      -0.345   1.003  -0.084  0.00  0.00    +0.012 C 
ATOM      2  C   UNL     1      -0.966   1.321   1.278  0.00  0.00    -0.019 C 
ATOM      3  C   UNL     1      -0.546   2.728   1.718  0.00  0.00    +0.010 C 
ATOM      4  C   UNL     1      -1.091   3.769   0.729  0.00  0.00    +0.032 C 
ATOM      5  C   UNL     1      -2.620   3.687   0.712  0.00  0.00    +0.123 C 
ATOM      6  C   UNL     1      -3.031   2.296   0.232  0.00  0.00    +0.021 C 
ATOM      7  C   UNL     1      -2.490   1.223   1.183  0.00  0.00    +0.011 C 
ATOM      8  C   UNL     1      -2.876  -0.135   0.587  0.00  0.00    +0.049 C 
ATOM      9  C   UNL     1      -2.088  -1.202   1.261  0.00  0.00    +0.015 A 
ATOM     10  C   UNL     1      -0.991  -1.053   2.047  0.00  0.00    +0.058 A 
ATOM     11  N   UNL     1      -0.465  -2.175   2.532  0.00  0.00    -0.229 NA
ATOM     12  C   UNL     1      -0.975  -3.361   2.270  0.00  0.00    +0.165 A 
ATOM     13  S   UNL     1      -2.325  -2.959   1.251  0.00  0.00    -0.057 S 
ATOM     14  N   UNL     1      -0.545  -4.611   2.699  0.00  0.00    -0.262 N 
ATOM     15  C   UNL     1      -1.210  -5.720   2.317  0.00  0.00    +0.256 C 
ATOM     16  O   UNL     1      -2.184  -5.626   1.601  0.00  0.00    -0.272 OA
ATOM     17  C   UNL     1      -0.436   0.335   2.327  0.00  0.00    +0.054 C 
ATOM     18  C   UNL     1      -4.558   2.210   0.189  0.00  0.00    +0.016 C 
ATOM     19  H   UNL     1       0.234  -4.686   3.272  0.00  0.00    +0.157 HD
ENDROOT
BRANCH   5  20
ATOM     20  O   UNL     1      -3.143   4.675  -0.178  0.00  0.00    -0.391 OA
ATOM     21  H   UNL     1      -2.920   5.583   0.067  0.00  0.00    +0.210 HD
ENDBRANCH   5  20
BRANCH  15  22
ATOM     22  C   UNL     1      -0.744  -7.075   2.781  0.00  0.00    +0.324 C 
BRANCH  22  23
ATOM     23  O   UNL     1      -1.605  -8.084   2.248  0.00  0.00    -0.483 OA
BRANCH  23  24
ATOM     24  C   UNL     1      -1.321  -9.372   2.574  0.00  0.00    +0.121 A 
ATOM     25  C   UNL     1      -0.233  -9.661   3.384  0.00  0.00    +0.045 A 
ATOM     26  C   UNL     1       0.050 -10.971   3.719  0.00  0.00    +0.004 A 
ATOM     27  C   UNL     1      -0.744 -11.995   3.236  0.00  0.00    +0.000 A 
ATOM     28  C   UNL     1      -1.826 -11.711   2.423  0.00  0.00    +0.004 A 
ATOM     29  C   UNL     1      -2.116 -10.402   2.091  0.00  0.00    +0.045 A 
ENDBRANCH  23  24
ENDBRANCH  22  23
ENDBRANCH  15  22
BRANCH  17  30
ATOM     30  C   UNL     1       1.092   0.295   2.264  0.00  0.00    +0.106 C 
BRANCH  30  31
ATOM     31  C   UNL     1       1.622  -0.516   3.419  0.00  0.00    +0.216 C 
ATOM     32  O   UNL     1       0.853  -1.013   4.214  0.00  0.00    -0.276 OA
ATOM     33  N   UNL     1       2.950  -0.689   3.568  0.00  0.00    -0.301 N 
ATOM     34  C   UNL     1       3.879  -0.088   2.607  0.00  0.00    +0.132 C 
BRANCH  33  35
ATOM     35  C   UNL     1       3.465  -1.477   4.690  0.00  0.00    +0.134 C 
BRANCH  35  36
ATOM     36  C   UNL     1       3.578  -2.922   4.279  0.00  0.00    -0.016 C 
ATOM     37  C   UNL     1       4.721  -3.550   4.399  0.00  0.00    +0.005 C 
ENDBRANCH  35  36
ENDBRANCH  33  35
ENDBRANCH  30  31
ENDBRANCH  17  30
BRANCH   6  38
ATOM     38  C   UNL     1      -2.470   2.058  -1.171  0.00  0.00    +0.165 C 
BRANCH  38  39
ATOM     39  O   UNL     1      -3.097   2.954  -2.092  0.00  0.00    -0.394 OA
ATOM     40  H   UNL     1      -2.789   2.859  -3.004  0.00  0.00    +0.209 HD
ENDBRANCH  38  39
ENDBRANCH   6  38
TORSDOF 10
