REMARK  Name = ZINC11976544
REMARK  9 active torsions:
REMARK  status: ('A' for Active; 'I' for Inactive)
REMARK    1  A    between atoms: C_1  and  C_2
REMARK    2  A    between atoms: C_2  and  C_3
REMARK    3  A    between atoms: C_3  and  C_22
REMARK    4  A    between atoms: N_6  and  C_10
REMARK    5  A    between atoms: C_10  and  C_11
REMARK    6  A    between atoms: C_27  and  C_28
REMARK    7  A    between atoms: C_27  and  N_70
REMARK    8  A    between atoms: C_30  and  C_35
REMARK    9  A    between atoms: C_33  and  C_34
REMARK                            x       y       z     vdW  Elec       q    Type
REMARK                         _______ _______ _______ _____ _____    ______ ____
ROOT
ATOM      1  C   UNL     1      -0.160  -5.977   2.470  0.00  0.00    +0.115 C 
ATOM      2  C   UNL     1       1.202  -5.372   2.189  0.00  0.00    +0.247 C 
ATOM      3  O   UNL     1       2.198  -5.463   2.874  0.00  0.00    -0.273 OA
ATOM      4  N   UNL     1       1.074  -4.711   1.022  0.00  0.00    -0.221 N 
ATOM      5  C   UNL     1      -0.165  -4.819   0.527  0.00  0.00    +0.309 C 
ATOM      6  O   UNL     1      -0.521  -4.311  -0.518  0.00  0.00    -0.252 OA
ATOM      7  N   UNL     1      -0.971  -5.552   1.316  0.00  0.00    -0.285 N 
ATOM      8  H   UNL     1      -1.905  -5.760   1.156  0.00  0.00    +0.151 HD
ENDROOT
BRANCH   1   9
ATOM      9  C   UNL     1      -0.068  -7.503   2.531  0.00  0.00    +0.018 C 
ATOM     10  C   UNL     1       0.691  -7.920   3.794  0.00  0.00    -0.013 C 
ATOM     11  C   UNL     1       0.834  -9.443   3.817  0.00  0.00    -0.078 C 
ATOM     12  C   UNL     1       0.823  -9.541   1.396  0.00  0.00    -0.078 C 
ATOM     13  C   UNL     1       0.681  -8.020   1.299  0.00  0.00    -0.013 C 
ATOM     14  N   UNL     1       1.584  -9.875   2.619  0.00  0.00    +0.382 N 
ATOM     15  H   UNL     1       2.485  -9.383   2.595  0.00  0.00    -0.081 HD
BRANCH  14  16
ATOM     16  C   UNL     1       1.833 -11.330   2.676  0.00  0.00    -0.043 C 
BRANCH  16  17
ATOM     17  C   UNL     1       2.899 -11.597   3.707  0.00  0.00    -0.061 A 
ATOM     18  C   UNL     1       2.560 -12.163   4.922  0.00  0.00    +0.005 A 
ATOM     19  C   UNL     1       3.539 -12.412   5.866  0.00  0.00    -0.050 A 
ATOM     20  C   UNL     1       4.856 -12.087   5.598  0.00  0.00    +0.003 A 
ATOM     21  C   UNL     1       5.194 -11.516   4.386  0.00  0.00    +0.004 A 
ATOM     22  C   UNL     1       4.216 -11.271   3.440  0.00  0.00    -0.049 A 
ATOM     23  C   UNL     1       4.585 -10.649   2.118  0.00  0.00    +0.044 C 
ATOM     24  C   UNL     1       3.170 -13.035   7.187  0.00  0.00    +0.044 C 
ENDBRANCH  16  17
ENDBRANCH  14  16
ENDBRANCH   1   9
BRANCH   1  26
ATOM     25  C   UNL     1      -0.890  -3.903   3.656  0.00  0.00    +0.006 C 
ATOM     26  C   UNL     1      -0.743  -5.421   3.771  0.00  0.00    +0.032 C 
ENDBRANCH   1  26
BRANCH   4  27
ATOM     27  C   UNL     1       2.158  -3.971   0.372  0.00  0.00    +0.166 C 
BRANCH  27  28
ATOM     28  C   UNL     1       2.148  -2.520   0.858  0.00  0.00    +0.229 C 
ATOM     29  C   UNL     1       3.282  -1.739   0.180  0.00  0.00    +0.275 C 
ATOM     30  O   UNL     1       3.235  -0.386   0.646  0.00  0.00    -0.485 OA
ATOM     31  C   UNL     1       2.013   0.212   0.663  0.00  0.00    +0.162 A 
ATOM     32  C   UNL     1       1.933   1.594   0.748  0.00  0.00    +0.049 A 
ATOM     33  C   UNL     1       0.699   2.216   0.770  0.00  0.00    +0.004 A 
ATOM     34  C   UNL     1      -0.459   1.463   0.708  0.00  0.00    +0.004 A 
ATOM     35  C   UNL     1      -0.386   0.085   0.622  0.00  0.00    +0.049 A 
ATOM     36  C   UNL     1       0.849  -0.545   0.598  0.00  0.00    +0.163 A 
ATOM     37  O   UNL     1       0.906  -1.902   0.506  0.00  0.00    -0.480 OA
ENDBRANCH  27  28
ENDBRANCH   4  27
TORSDOF 6
