REMARK  Name = ZINC39491633
REMARK  15 active torsions:
REMARK  status: ('A' for Active; 'I' for Inactive)
REMARK    1  A    between atoms: C_1  and  C_2
REMARK    2  A    between atoms: C_2  and  C_3
REMARK    3  A    between atoms: C_2  and  C_4
REMARK    4  A    between atoms: C_4  and  C_5
REMARK    5  A    between atoms: C_5  and  C_7
REMARK    6  A    between atoms: C_5  and  S_30
REMARK    7  A    between atoms: C_7  and  N_8
REMARK    8  A    between atoms: C_10  and  C_21
REMARK    9  A    between atoms: C_15  and  C_17
REMARK   10  A    between atoms: C_17  and  O_19
REMARK   11  A    between atoms: O_19  and  C_20
REMARK   12  A    between atoms: C_21  and  N_22
REMARK   13  A    between atoms: N_22  and  C_23
REMARK   14  A    between atoms: C_23  and  C_24
REMARK   15  A    between atoms: S_30  and  C_33
REMARK                            x       y       z     vdW  Elec       q    Type
REMARK                         _______ _______ _______ _____ _____    ______ ____
ROOT
ATOM      1  N   UNL     1      -0.148   0.536   5.058  0.00  0.00    -0.345 N 
ATOM      2  C   UNL     1      -0.141   1.784   5.619  0.00  0.00    +0.088 A 
ATOM      3  C   UNL     1      -0.991   1.825   6.657  0.00  0.00    -0.039 A 
ATOM      4  C   UNL     1      -1.591   0.493   6.769  0.00  0.00    +0.002 A 
ATOM      5  C   UNL     1      -1.027  -0.277   5.732  0.00  0.00    +0.049 A 
ATOM      6  C   UNL     1      -1.410  -1.607   5.574  0.00  0.00    +0.027 A 
ATOM      7  C   UNL     1      -2.328  -2.162   6.415  0.00  0.00    +0.017 A 
ATOM      8  C   UNL     1      -2.900  -1.406   7.449  0.00  0.00    +0.060 A 
ATOM      9  C   UNL     1      -2.525  -0.077   7.630  0.00  0.00    +0.025 A 
ENDROOT
BRANCH   8  10
ATOM     10  C   UNL     1      -3.893  -2.021   8.349  0.00  0.00    +0.339 C 
ATOM     11  O   UNL     1      -4.389  -1.367   9.245  0.00  0.00    -0.245 OA
BRANCH  10  12
ATOM     12  O   UNL     1      -4.251  -3.309   8.179  0.00  0.00    -0.464 OA
ATOM     13  C   UNL     1      -5.218  -3.840   9.088  0.00  0.00    +0.280 C 
ENDBRANCH  10  12
ENDBRANCH   8  10
BRANCH   1  14
ATOM     14  C   UNL     1       0.659   0.128   3.905  0.00  0.00    +0.148 C 
BRANCH  14  15
ATOM     15  C   UNL     1      -0.166   0.281   2.626  0.00  0.00    +0.156 C 
BRANCH  15  16
ATOM     16  S   UNL     1      -1.564  -0.875   2.667  0.00  0.00    +0.001 S 
ATOM     17  O   UNL     1      -1.091  -2.214   2.699  0.00  0.00    -0.169 OA
ATOM     18  O   UNL     1      -2.541  -0.429   3.598  0.00  0.00    -0.169 OA
BRANCH  16  19
ATOM     19  C   UNL     1      -2.336  -0.708   1.092  0.00  0.00    +0.089 A 
ATOM     20  C   UNL     1      -3.227   0.324   0.865  0.00  0.00    +0.027 A 
ATOM     21  C   UNL     1      -3.833   0.454  -0.371  0.00  0.00    +0.002 A 
ATOM     22  C   UNL     1      -3.546  -0.446  -1.380  0.00  0.00    +0.000 A 
ATOM     23  C   UNL     1      -2.654  -1.477  -1.153  0.00  0.00    +0.002 A 
ATOM     24  C   UNL     1      -2.045  -1.606   0.081  0.00  0.00    +0.027 A 
ENDBRANCH  16  19
ENDBRANCH  15  16
BRANCH  15  25
ATOM     25  C   UNL     1       0.713  -0.025   1.412  0.00  0.00    +0.031 C 
BRANCH  25  27
ATOM     26  C   UNL     1       0.065   2.085   0.242  0.00  0.00    +0.007 C 
ATOM     27  C   UNL     1       0.067   0.558   0.154  0.00  0.00    -0.015 C 
ATOM     28  C   UNL     1       0.861   0.119  -1.078  0.00  0.00    +0.007 C 
ENDBRANCH  25  27
ENDBRANCH  15  25
ENDBRANCH  14  15
ENDBRANCH   1  14
BRANCH   3  29
ATOM     29  C   UNL     1      -1.273   3.014   7.539  0.00  0.00    -0.044 C 
BRANCH  29  30
ATOM     30  N   UNL     1      -0.516   2.886   8.791  0.00  0.00    +0.384 N 
ATOM     31  H   UNL     1      -0.793   2.041   9.267  0.00  0.00    -0.085 HD
ATOM     32  H   UNL     1       0.471   2.848   8.584  0.00  0.00    -0.085 HD
BRANCH  30  33
ATOM     33  C   UNL     1      -0.791   4.045   9.651  0.00  0.00    -0.046 C 
BRANCH  33  34
ATOM     34  C   UNL     1      -0.014   3.913  10.935  0.00  0.00    -0.064 A 
ATOM     35  C   UNL     1      -0.574   3.262  12.018  0.00  0.00    +0.002 A 
ATOM     36  C   UNL     1       0.140   3.142  13.196  0.00  0.00    +0.000 A 
ATOM     37  C   UNL     1       1.413   3.672  13.291  0.00  0.00    +0.000 A 
ATOM     38  C   UNL     1       1.972   4.323  12.208  0.00  0.00    +0.000 A 
ATOM     39  C   UNL     1       1.261   4.440  11.028  0.00  0.00    +0.002 A 
ENDBRANCH  33  34
ENDBRANCH  30  33
ENDBRANCH  29  30
ENDBRANCH   3  29
TORSDOF 12
