REMARK  Name = ZINC67102385
REMARK  6 active torsions:
REMARK  status: ('A' for Active; 'I' for Inactive)
REMARK    1  A    between atoms: C_1  and  C_2
REMARK    2  A    between atoms: C_6  and  C_7
REMARK    3  A    between atoms: N_9  and  N_10
REMARK    4  A    between atoms: N_13  and  C_14
REMARK    5  A    between atoms: C_14  and  C_16
REMARK    6  A    between atoms: C_14  and  C_23
REMARK                            x       y       z     vdW  Elec       q    Type
REMARK                         _______ _______ _______ _____ _____    ______ ____
ROOT
ATOM      1  N   UNL     1       0.058  -0.732   4.900  0.00  0.00    -0.218 N 
ATOM      2  C   UNL     1       0.080  -1.625   5.909  0.00  0.00    +0.317 C 
ATOM      3  O   UNL     1       0.086  -1.239   7.062  0.00  0.00    -0.251 OA
ATOM      4  N   UNL     1       0.096  -2.945   5.640  0.00  0.00    -0.287 N 
ATOM      5  H   UNL     1       0.047   0.219   5.094  0.00  0.00    +0.174 HD
ATOM      6  H   UNL     1       0.091  -3.253   4.720  0.00  0.00    +0.151 HD
ENDROOT
BRANCH   1   9
ATOM      7  C   UNL     1       0.030  -0.283   2.562  0.00  0.00    +0.267 C 
ATOM      8  O   UNL     1       0.016   0.910   2.805  0.00  0.00    -0.268 OA
ATOM      9  N   UNL     1       0.052  -1.176   3.571  0.00  0.00    -0.229 N 
ATOM     10  H   UNL     1       0.063  -2.126   3.378  0.00  0.00    +0.173 HD
BRANCH   7  16
ATOM     11  C   UNL     1      -0.018   1.503   0.010  0.00  0.00    +0.045 C 
ATOM     12  C   UNL     1       0.002  -0.004   0.002  0.00  0.00    -0.031 A 
ATOM     13  C   UNL     1       0.007  -0.729  -1.166  0.00  0.00    +0.011 A 
ATOM     14  C   UNL     1       0.026  -2.083  -1.101  0.00  0.00    +0.046 A 
ATOM     15  S   UNL     1       0.038  -2.416   0.545  0.00  0.00    -0.092 S 
ATOM     16  C   UNL     1       0.023  -0.748   1.172  0.00  0.00    +0.078 A 
ENDBRANCH   7  16
ENDBRANCH   1   9
BRANCH   4  17
ATOM     17  C   UNL     1       0.119  -3.916   6.737  0.00  0.00    +0.142 C 
BRANCH  17  18
ATOM     18  C   UNL     1      -0.468  -5.221   6.265  0.00  0.00    -0.022 A 
ATOM     19  C   UNL     1      -0.176  -5.693   4.999  0.00  0.00    +0.008 A 
ATOM     20  C   UNL     1      -0.714  -6.890   4.565  0.00  0.00    +0.038 A 
ATOM     21  C   UNL     1      -1.545  -7.617   5.400  0.00  0.00    +0.123 A 
ATOM     22  C   UNL     1      -1.837  -7.144   6.668  0.00  0.00    +0.038 A 
ATOM     23  C   UNL     1      -1.294  -5.949   7.101  0.00  0.00    +0.008 A 
ATOM     24  F   UNL     1      -2.072  -8.787   4.977  0.00  0.00    -0.205 F 
ENDBRANCH  17  18
BRANCH  17  25
ATOM     25  C   UNL     1       1.542  -4.137   7.182  0.00  0.00    +0.014 A 
ATOM     26  C   UNL     1       2.030  -4.289   8.437  0.00  0.00    +0.013 A 
ATOM     27  C   UNL     1       3.388  -4.483   8.610  0.00  0.00    +0.008 A 
ATOM     28  C   UNL     1       4.191  -4.516   7.518  0.00  0.00    +0.045 A 
ATOM     29  S   UNL     1       3.021  -4.275   6.191  0.00  0.00    -0.099 S 
ENDBRANCH  17  25
ENDBRANCH   4  17
TORSDOF 5
