REMARK  Name = ZINC13468109
REMARK  5 active torsions:
REMARK  status: ('A' for Active; 'I' for Inactive)
REMARK    1  A    between atoms: C_1  and  C_2
REMARK    2  A    between atoms: C_4  and  C_20
REMARK    3  A    between atoms: N_6  and  C_19
REMARK    4  A    between atoms: C_7  and  C_13
REMARK    5  A    between atoms: N_11  and  O_12
REMARK                            x       y       z     vdW  Elec       q    Type
REMARK                         _______ _______ _______ _____ _____    ______ ____
ROOT
ATOM      1  C   UNL     1       0.318   1.213   0.391  0.00  0.00    +0.016 C 
ATOM      2  C   UNL     1       0.069  -0.284   0.192  0.00  0.00    +0.055 C 
ATOM      3  C   UNL     1      -1.434  -0.541   0.028  0.00  0.00    +0.095 C 
ATOM      4  N   UNL     1      -1.680  -1.988  -0.006  0.00  0.00    -0.291 NA
ATOM      5  C   UNL     1      -1.347  -2.622   1.276  0.00  0.00    +0.093 C 
ATOM      6  C   UNL     1       0.161  -2.506   1.524  0.00  0.00    +0.078 C 
ATOM      7  C   UNL     1       0.551  -1.048   1.407  0.00  0.00    +0.064 C 
ATOM      8  N   UNL     1       1.264  -0.479   2.305  0.00  0.00    -0.096 NA
ATOM      9  C   UNL     1      -3.068  -2.277  -0.392  0.00  0.00    +0.106 C 
ENDROOT
BRANCH   5  10
ATOM     10  C   UNL     1      -1.740  -4.076   1.234  0.00  0.00    -0.030 A 
ATOM     11  C   UNL     1      -1.522  -4.818   0.088  0.00  0.00    +0.005 A 
ATOM     12  C   UNL     1      -1.883  -6.152   0.049  0.00  0.00    +0.000 A 
ATOM     13  C   UNL     1      -2.460  -6.745   1.157  0.00  0.00    +0.000 A 
ATOM     14  C   UNL     1      -2.676  -6.003   2.303  0.00  0.00    +0.000 A 
ATOM     15  C   UNL     1      -2.312  -4.670   2.343  0.00  0.00    +0.005 A 
ENDBRANCH   5  10
BRANCH   3  16
ATOM     16  C   UNL     1      -2.178   0.069   1.188  0.00  0.00    -0.030 A 
ATOM     17  C   UNL     1      -1.783  -0.207   2.483  0.00  0.00    +0.005 A 
ATOM     18  C   UNL     1      -2.466   0.353   3.547  0.00  0.00    +0.000 A 
ATOM     19  C   UNL     1      -3.542   1.188   3.316  0.00  0.00    +0.000 A 
ATOM     20  C   UNL     1      -3.936   1.465   2.020  0.00  0.00    +0.000 A 
ATOM     21  C   UNL     1      -3.251   0.909   0.956  0.00  0.00    +0.005 A 
ENDBRANCH   3  16
BRANCH   8  22
ATOM     22  O   UNL     1       1.703  -1.216   3.432  0.00  0.00    -0.409 OA
ATOM     23  H   UNL     1       2.235  -0.703   4.055  0.00  0.00    +0.328 HD
ENDBRANCH   8  22
TORSDOF 3
