REMARK  Name = ZINC12960203
REMARK  10 active torsions:
REMARK  status: ('A' for Active; 'I' for Inactive)
REMARK    1  A    between atoms: C_4  and  N_7
REMARK    2  A    between atoms: C_13  and  C_15
REMARK    3  A    between atoms: C_15  and  O_16
REMARK    4  A    between atoms: O_16  and  N_17
REMARK    5  A    between atoms: N_19  and  C_20
REMARK    6  A    between atoms: C_20  and  C_22
REMARK    7  A    between atoms: C_25  and  N_39
REMARK    8  A    between atoms: C_26  and  C_28
REMARK    9  A    between atoms: C_28  and  S_29
REMARK   10  A    between atoms: S_29  and  C_32
REMARK                            x       y       z     vdW  Elec       q    Type
REMARK                         _______ _______ _______ _____ _____    ______ ____
ROOT
ATOM      1  C   UNL     1      -4.162  -0.706  -8.281  0.00  0.00    +0.269 C 
ATOM      2  O   UNL     1      -3.797  -1.841  -8.035  0.00  0.00    -0.268 OA
ENDROOT
BRANCH   1   3
ATOM      3  C   UNL     1      -4.841  -0.409  -9.562  0.00  0.00    +0.039 A 
ATOM      4  C   UNL     1      -5.265   0.890  -9.846  0.00  0.00    +0.015 A 
ATOM      5  C   UNL     1      -5.893   1.161 -11.043  0.00  0.00    +0.034 A 
ATOM      6  C   UNL     1      -6.111   0.147 -11.959  0.00  0.00    +0.131 A 
ATOM      7  C   UNL     1      -5.697  -1.143 -11.682  0.00  0.00    +0.005 A 
ATOM      8  C   UNL     1      -5.064  -1.427 -10.490  0.00  0.00    +0.020 A 
BRANCH   6   9
ATOM      9  N   UNL     1      -6.790   0.444 -13.241  0.00  0.00    +0.057 N 
ATOM     10  O   UNL     1      -6.569   1.494 -13.818  0.00  0.00    -0.126 OA
ATOM     11  O   UNL     1      -7.570  -0.360 -13.717  0.00  0.00    -0.126 OA
ENDBRANCH   6   9
BRANCH   7  12
ATOM     12  C   UNL     1      -5.939  -2.242 -12.685  0.00  0.00    +0.209 C 
BRANCH  12  13
ATOM     13  S   UNL     1      -7.447  -3.146 -12.241  0.00  0.00    +0.001 S 
ATOM     14  O   UNL     1      -7.250  -3.864 -11.031  0.00  0.00    -0.169 OA
ATOM     15  O   UNL     1      -8.585  -2.311 -12.411  0.00  0.00    -0.169 OA
BRANCH  13  16
ATOM     16  C   UNL     1      -7.612  -4.388 -13.480  0.00  0.00    +0.089 A 
ATOM     17  C   UNL     1      -8.330  -4.124 -14.632  0.00  0.00    +0.028 A 
ATOM     18  C   UNL     1      -8.455  -5.096 -15.607  0.00  0.00    +0.022 A 
ATOM     19  C   UNL     1      -7.872  -6.337 -15.424  0.00  0.00    +0.041 A 
ATOM     20  C   UNL     1      -7.159  -6.603 -14.268  0.00  0.00    +0.022 A 
ATOM     21  C   UNL     1      -7.029  -5.628 -13.297  0.00  0.00    +0.028 A 
ATOM     22 CL   UNL     1      -8.034  -7.561 -16.645  0.00  0.00    -0.084 Cl
ENDBRANCH  13  16
ENDBRANCH  12  13
ENDBRANCH   7  12
ENDBRANCH   1   3
BRANCH   1  25
ATOM     23  N   UNL     1      -3.132   1.002  -5.357  0.00  0.00    -0.257 N 
ATOM     24  C   UNL     1      -3.347   0.015  -6.253  0.00  0.00    +0.208 C 
ATOM     25  N   UNL     1      -3.948   0.278  -7.388  0.00  0.00    -0.165 NA
ATOM     26  H   UNL     1      -3.423   1.907  -5.554  0.00  0.00    +0.195 HD
BRANCH  23  27
ATOM     27  O   UNL     1      -2.483   0.718  -4.131  0.00  0.00    -0.264 OA
BRANCH  27  28
ATOM     28  C   UNL     1      -2.323   1.855  -3.281  0.00  0.00    +0.288 C 
BRANCH  28  35
ATOM     29  N   UNL     1      -1.740   3.926   1.213  0.00  0.00    -0.327 N 
ATOM     30  C   UNL     1      -1.504   2.485   1.377  0.00  0.00    +0.124 C 
ATOM     31  C   UNL     1      -0.684   1.968   0.190  0.00  0.00    +0.126 C 
ATOM     32  N   UNL     1      -1.365   2.352  -1.056  0.00  0.00    -0.297 N 
ATOM     33  C   UNL     1      -1.754   3.760  -1.230  0.00  0.00    +0.126 C 
ATOM     34  C   UNL     1      -2.535   4.206   0.010  0.00  0.00    +0.124 C 
ATOM     35  C   UNL     1      -1.625   1.439  -2.012  0.00  0.00    +0.244 C 
ATOM     36  O   UNL     1      -1.296   0.283  -1.852  0.00  0.00    -0.273 OA
BRANCH  29  40
ATOM     37  C   UNL     1      -3.545   5.535   4.603  0.00  0.00    +0.000 A 
ATOM     38  C   UNL     1      -2.352   4.846   4.718  0.00  0.00    +0.002 A 
ATOM     39  C   UNL     1      -1.751   4.310   3.596  0.00  0.00    +0.023 A 
ATOM     40  C   UNL     1      -2.346   4.465   2.351  0.00  0.00    +0.030 A 
ATOM     41  C   UNL     1      -3.542   5.163   2.238  0.00  0.00    +0.023 A 
ATOM     42  C   UNL     1      -4.140   5.691   3.365  0.00  0.00    +0.002 A 
ENDBRANCH  29  40
ENDBRANCH  28  35
ENDBRANCH  27  28
ENDBRANCH  23  27
ENDBRANCH   1  25
TORSDOF 10
