REMARK  Name = ZINC47309543
REMARK  11 active torsions:
REMARK  status: ('A' for Active; 'I' for Inactive)
REMARK    1  A    between atoms: C_1  and  C_2
REMARK    2  A    between atoms: C_2  and  C_3
REMARK    3  A    between atoms: C_3  and  C_4
REMARK    4  A    between atoms: C_4  and  C_5
REMARK    5  A    between atoms: C_12  and  N_28
REMARK    6  A    between atoms: C_13  and  C_26
REMARK    7  A    between atoms: C_14  and  C_16
REMARK    8  A    between atoms: C_21  and  O_22
REMARK    9  A    between atoms: O_22  and  C_23
REMARK   10  A    between atoms: C_23  and  C_24
REMARK   11  A    between atoms: C_23  and  C_25
REMARK                            x       y       z     vdW  Elec       q    Type
REMARK                         _______ _______ _______ _____ _____    ______ ____
ROOT
ATOM      1  C   UNL     1       2.464  -3.131  -2.679  0.00  0.00    +0.044 A 
ATOM      2  C   UNL     1       3.767  -3.002  -2.386  0.00  0.00    +0.049 A 
ATOM      3  C   UNL     1       4.513  -3.478  -3.487  0.00  0.00    +0.245 A 
ATOM      4  N   UNL     1       3.675  -3.873  -4.401  0.00  0.00    -0.135 NA
ATOM      5  N   UNL     1       2.373  -3.671  -3.916  0.00  0.00    -0.278 N 
ATOM      6  H   UNL     1       1.551  -3.880  -4.387  0.00  0.00    +0.189 HD
ATOM      7  O   UNL     1       5.873  -3.481  -3.489  0.00  0.00    -0.421 OA
ATOM      8  C   UNL     1       6.496  -3.272  -2.313  0.00  0.00    +0.201 C 
ATOM      9  C   UNL     1       5.892  -2.809  -1.198  0.00  0.00    +0.098 C 
ATOM     10  C   UNL     1       4.425  -2.462  -1.142  0.00  0.00    +0.105 C 
ENDROOT
BRANCH  10  11
ATOM     11  C   UNL     1       4.258  -0.966  -1.087  0.00  0.00    +0.007 A 
ATOM     12  C   UNL     1       4.656  -0.185  -2.155  0.00  0.00    +0.008 A 
ATOM     13  C   UNL     1       4.504   1.188  -2.105  0.00  0.00    +0.001 A 
ATOM     14  C   UNL     1       3.951   1.784  -0.986  0.00  0.00    +0.004 A 
ATOM     15  C   UNL     1       3.551   1.008   0.084  0.00  0.00    +0.046 A 
ATOM     16  C   UNL     1       3.698  -0.371   0.034  0.00  0.00    +0.125 A 
BRANCH  16  17
ATOM     17  O   UNL     1       3.300  -1.137   1.084  0.00  0.00    -0.489 OA
BRANCH  17  18
ATOM     18  C   UNL     1       2.848  -0.450   2.253  0.00  0.00    +0.167 C 
ATOM     19  C   UNL     1       1.345  -0.189   2.143  0.00  0.00    +0.051 C 
ATOM     20  C   UNL     1       3.128  -1.309   3.488  0.00  0.00    +0.051 C 
ENDBRANCH  17  18
ENDBRANCH  16  17
ENDBRANCH  10  11
BRANCH   8  21
ATOM     21  N   UNL     1       7.839  -3.549  -2.243  0.00  0.00    -0.328 N 
ATOM     22  H   UNL     1       8.306  -3.884  -3.024  0.00  0.00    +0.145 HD
ATOM     23  H   UNL     1       8.320  -3.410  -1.412  0.00  0.00    +0.145 HD
ENDBRANCH   8  21
BRANCH   9  24
ATOM     24  C   UNL     1       6.679  -2.639  -0.015  0.00  0.00    +0.101 C 
ATOM     25  N   UNL     1       7.304  -2.504   0.924  0.00  0.00    -0.191 NA
ENDBRANCH   9  24
BRANCH   1  26
ATOM     26  C   UNL     1       1.311  -2.748  -1.788  0.00  0.00    +0.055 C 
BRANCH  26  27
ATOM     27  C   UNL     1       0.960  -1.276  -2.011  0.00  0.00    +0.006 C 
BRANCH  27  29
ATOM     28  C   UNL     1      -0.633   0.550  -1.404  0.00  0.00    +0.004 C 
ATOM     29  C   UNL     1      -0.195  -0.881  -1.089  0.00  0.00    -0.003 C 
ENDBRANCH  27  29
ENDBRANCH  26  27
ENDBRANCH   1  26
TORSDOF 8
