REMARK  Name = ZINC09348313
REMARK  7 active torsions:
REMARK  status: ('A' for Active; 'I' for Inactive)
REMARK    1  A    between atoms: C_1  and  N_2
REMARK    2  A    between atoms: C_5  and  C_23
REMARK    3  A    between atoms: C_8  and  C_13
REMARK    4  A    between atoms: C_17  and  C_20
REMARK    5  A    between atoms: C_18  and  O_19
REMARK    6  A    between atoms: C_20  and  C_21
REMARK    7  A    between atoms: N_31  and  C_34
REMARK                            x       y       z     vdW  Elec       q    Type
REMARK                         _______ _______ _______ _____ _____    ______ ____
ROOT
ATOM      1  C   UNL     1      -2.482   0.707  -0.020  0.00  0.00    +0.154 C 
ATOM      2  N   UNL     1      -1.215   1.442  -0.034  0.00  0.00    -0.294 N 
ATOM      3  C   UNL     1      -1.220   2.840   0.025  0.00  0.00    +0.083 A 
ATOM      4  C   UNL     1       0.081   3.531   0.003  0.00  0.00    +0.089 A 
ATOM      5  C   UNL     1      -0.196   4.886   0.066  0.00  0.00    +0.064 A 
ATOM      6  N   UNL     1      -1.545   5.031   0.122  0.00  0.00    -0.337 N 
ATOM      7  C   UNL     1      -2.156   3.795   0.098  0.00  0.00    +0.078 A 
ATOM      8  C   UNL     1      -3.657   3.621   0.150  0.00  0.00    +0.200 C 
ATOM      9  O   UNL     1      -4.229   4.869   0.563  0.00  0.00    -0.364 OA
ATOM     10  C   UNL     1      -3.758   5.998  -0.177  0.00  0.00    +0.182 C 
ATOM     11  C   UNL     1      -2.300   6.291   0.197  0.00  0.00    +0.150 C 
ATOM     12  C   UNL     1       1.289   2.707  -0.074  0.00  0.00    +0.266 A 
ATOM     13  O   UNL     1       2.392   3.219  -0.097  0.00  0.00    -0.267 OA
ATOM     14  N   UNL     1       1.148   1.365  -0.120  0.00  0.00    -0.263 N 
ATOM     15  C   UNL     1      -0.052   0.770  -0.098  0.00  0.00    +0.332 A 
ATOM     16  O   UNL     1      -0.093  -0.444  -0.143  0.00  0.00    -0.246 OA
ATOM     17  C   UNL     1       2.349   0.529  -0.198  0.00  0.00    +0.157 C 
ENDROOT
BRANCH   8  18
ATOM     18  C   UNL     1      -4.012   2.542   1.141  0.00  0.00    +0.029 A 
ATOM     19  C   UNL     1      -3.253   2.377   2.284  0.00  0.00    +0.010 A 
ATOM     20  C   UNL     1      -3.578   1.389   3.194  0.00  0.00    +0.001 A 
ATOM     21  C   UNL     1      -4.663   0.563   2.963  0.00  0.00    +0.007 A 
ATOM     22  C   UNL     1      -5.424   0.723   1.821  0.00  0.00    -0.002 A 
ATOM     23  C   UNL     1      -5.103   1.718   0.909  0.00  0.00    +0.126 A 
BRANCH  23  24
ATOM     24  O   UNL     1      -5.854   1.882  -0.211  0.00  0.00    -0.506 OA
ATOM     25  H   UNL     1      -5.598   1.306  -0.944  0.00  0.00    +0.292 HD
ENDBRANCH  23  24
BRANCH  22  26
ATOM     26  C   UNL     1      -6.605  -0.178   1.570  0.00  0.00    +0.065 C 
BRANCH  26  27
ATOM     27  C   UNL     1      -6.204  -1.281   0.625  0.00  0.00    -0.030 C 
ATOM     28  C   UNL     1      -6.327  -2.533   0.989  0.00  0.00    +0.004 C 
ENDBRANCH  26  27
ENDBRANCH  22  26
ENDBRANCH   8  18
BRANCH   5  29
ATOM     29  C   UNL     1       0.797   5.978   0.071  0.00  0.00    -0.001 A 
ATOM     30  C   UNL     1       0.610   7.102  -0.738  0.00  0.00    +0.010 A 
ATOM     31  C   UNL     1       1.539   8.120  -0.724  0.00  0.00    +0.001 A 
ATOM     32  C   UNL     1       2.662   8.026   0.080  0.00  0.00    +0.000 A 
ATOM     33  C   UNL     1       2.857   6.914   0.879  0.00  0.00    +0.001 A 
ATOM     34  C   UNL     1       1.933   5.890   0.880  0.00  0.00    +0.010 A 
ENDBRANCH   5  29
TORSDOF 5
