REMARK  Name = ZINC06526583
REMARK  8 active torsions:
REMARK  status: ('A' for Active; 'I' for Inactive)
REMARK    1  A    between atoms: C_1  and  C_2
REMARK    2  A    between atoms: C_4  and  C_23
REMARK    3  A    between atoms: N_5  and  C_7
REMARK    4  A    between atoms: C_7  and  C_9
REMARK    5  A    between atoms: C_7  and  C_10
REMARK    6  A    between atoms: C_13  and  C_18
REMARK    7  A    between atoms: C_13  and  O_22
REMARK    8  A    between atoms: C_15  and  C_17
REMARK                            x       y       z     vdW  Elec       q    Type
REMARK                         _______ _______ _______ _____ _____    ______ ____
ROOT
ATOM      1  C   UNL     1       0.707  -0.490  -1.238  0.00  0.00    +0.262 C 
ATOM      2  O   UNL     1       0.120  -1.191  -2.034  0.00  0.00    -0.271 OA
ATOM      3  N   UNL     1       1.991  -0.146  -1.462  0.00  0.00    -0.150 N 
ATOM      4  C   UNL     1       2.799  -0.553  -2.623  0.00  0.00    +0.256 C 
ATOM      5  C   UNL     1       4.161   0.121  -2.361  0.00  0.00    +0.118 C 
ATOM      6  C   UNL     1       3.960   0.840  -1.046  0.00  0.00    +0.039 C 
ATOM      7  N   UNL     1       2.776   0.650  -0.629  0.00  0.00    -0.184 NA
ATOM      8  C   UNL     1       5.007   1.660  -0.337  0.00  0.00    +0.062 C 
ENDROOT
BRANCH   4   9
ATOM      9  C   UNL     1       2.181  -0.030  -3.921  0.00  0.00    +0.438 C 
ATOM     10  F   UNL     1       2.091   1.365  -3.865  0.00  0.00    -0.166 F 
ATOM     11  F   UNL     1       2.985  -0.402  -5.004  0.00  0.00    -0.166 F 
ATOM     12  F   UNL     1       0.902  -0.573  -4.081  0.00  0.00    -0.166 F 
ENDBRANCH   4   9
BRANCH   1  13
ATOM     13  C   UNL     1       0.002  -0.004   0.002  0.00  0.00    +0.192 C 
ATOM     14  C   UNL     1      -0.019   1.526   0.010  0.00  0.00    +0.042 C 
BRANCH  13  19
ATOM     15  C   UNL     1      -4.748  -0.879  -1.365  0.00  0.00    +0.069 C 
ATOM     16  C   UNL     1      -3.447  -0.881  -0.604  0.00  0.00    +0.078 A 
ATOM     17  C   UNL     1      -3.203  -1.547   0.602  0.00  0.00    +0.084 A 
ATOM     18  C   UNL     1      -1.918  -1.308   0.956  0.00  0.00    +0.056 A 
ATOM     19  N   UNL     1      -1.372  -0.511   0.012  0.00  0.00    -0.255 N 
ATOM     20  N   UNL     1      -2.351  -0.260  -0.958  0.00  0.00    -0.174 NA
ATOM     21  C   UNL     1      -1.223  -1.834   2.186  0.00  0.00    +0.067 C 
ATOM     22 CL   UNL     1      -4.343  -2.514   1.484  0.00  0.00    -0.080 Cl
ENDBRANCH  13  19
ENDBRANCH   1  13
BRANCH   4  23
ATOM     23  O   UNL     1       2.938  -1.975  -2.667  0.00  0.00    -0.363 OA
ATOM     24  H   UNL     1       2.100  -2.449  -2.758  0.00  0.00    +0.212 HD
ENDBRANCH   4  23
TORSDOF 4
