REMARK  Name = ZINC14480420
REMARK  9 active torsions:
REMARK  status: ('A' for Active; 'I' for Inactive)
REMARK    1  A    between atoms: C_1  and  C_2
REMARK    2  A    between atoms: C_2  and  O_3
REMARK    3  A    between atoms: O_3  and  C_4
REMARK    4  A    between atoms: C_7  and  C_10
REMARK    5  A    between atoms: C_21  and  S_26
REMARK    6  A    between atoms: S_26  and  N_29
REMARK    7  A    between atoms: N_29  and  C_30
REMARK    8  A    between atoms: C_33  and  O_36
REMARK    9  A    between atoms: O_36  and  C_37
REMARK                            x       y       z     vdW  Elec       q    Type
REMARK                         _______ _______ _______ _____ _____    ______ ____
ROOT
ATOM      1  C   UNL     1       1.264   2.009  -0.354  0.00  0.00    +0.105 C 
ATOM      2  C   UNL     1       2.365   1.353  -1.169  0.00  0.00    +0.029 C 
ATOM      3  C   UNL     1       3.740   2.035  -1.163  0.00  0.00    +0.033 C 
ATOM      4  C   UNL     1       4.676   0.843  -1.370  0.00  0.00    -0.030 C 
ATOM      5  C   UNL     1       4.098  -0.270  -0.931  0.00  0.00    -0.023 C 
ATOM      6  C   UNL     1       2.767   0.076  -0.372  0.00  0.00    +0.049 C 
ATOM      7  C   UNL     1       1.629  -0.866  -0.415  0.00  0.00    -0.018 A 
ATOM      8  C   UNL     1       1.801  -2.233  -0.458  0.00  0.00    +0.034 A 
ATOM      9  C   UNL     1       0.704  -3.074  -0.474  0.00  0.00    +0.109 A 
ATOM     10  C   UNL     1      -0.574  -2.544  -0.450  0.00  0.00    +0.030 A 
ATOM     11  C   UNL     1      -0.756  -1.177  -0.415  0.00  0.00    +0.025 A 
ATOM     12  C   UNL     1       0.339  -0.323  -0.404  0.00  0.00    +0.031 A 
ATOM     13  N   UNL     1       0.129   1.061  -0.383  0.00  0.00    -0.336 N 
ATOM     14  H   UNL     1      -0.778   1.405  -0.391  0.00  0.00    +0.147 HD
ENDROOT
BRANCH   1  18
ATOM     15  C   UNL     1       2.573   2.624   3.667  0.00  0.00    +0.121 A 
ATOM     16  C   UNL     1       2.784   3.605   2.710  0.00  0.00    +0.046 A 
ATOM     17  C   UNL     1       2.360   3.404   1.411  0.00  0.00    +0.009 A 
ATOM     18  C   UNL     1       1.726   2.226   1.064  0.00  0.00    -0.027 A 
ATOM     19  C   UNL     1       1.508   1.248   2.018  0.00  0.00    +0.009 A 
ATOM     20  C   UNL     1       1.935   1.442   3.317  0.00  0.00    +0.046 A 
BRANCH  15  21
ATOM     21  O   UNL     1       2.989   2.820   4.946  0.00  0.00    -0.492 OA
BRANCH  21  23
ATOM     22  C   UNL     1       3.273   2.165   7.255  0.00  0.00    +0.048 C 
ATOM     23  C   UNL     1       2.737   1.766   5.878  0.00  0.00    +0.225 C 
ENDBRANCH  21  23
ENDBRANCH  15  21
ENDBRANCH   1  18
BRANCH   9  24
ATOM     24  S   UNL     1       0.933  -4.820  -0.528  0.00  0.00    +0.072 S 
ATOM     25  O   UNL     1      -0.198  -5.358  -1.200  0.00  0.00    -0.150 OA
ATOM     26  O   UNL     1       2.262  -5.042  -0.978  0.00  0.00    -0.150 OA
BRANCH  24  27
ATOM     27  N   UNL     1       0.863  -5.371   1.032  0.00  0.00    -0.216 N 
ATOM     28  H   UNL     1       0.172  -6.000   1.294  0.00  0.00    +0.174 HD
BRANCH  27  29
ATOM     29  C   UNL     1       1.802  -4.931   1.972  0.00  0.00    +0.048 A 
ATOM     30  C   UNL     1       3.152  -4.909   1.648  0.00  0.00    +0.028 A 
ATOM     31  C   UNL     1       4.077  -4.469   2.575  0.00  0.00    +0.047 A 
ATOM     32  C   UNL     1       3.658  -4.059   3.832  0.00  0.00    +0.120 A 
ATOM     33  C   UNL     1       2.310  -4.086   4.158  0.00  0.00    +0.047 A 
ATOM     34  C   UNL     1       1.383  -4.521   3.231  0.00  0.00    +0.028 A 
BRANCH  32  35
ATOM     35  O   UNL     1       4.570  -3.631   4.746  0.00  0.00    -0.495 OA
ATOM     36  C   UNL     1       5.941  -3.630   4.343  0.00  0.00    +0.277 C 
ENDBRANCH  32  35
ENDBRANCH  27  29
ENDBRANCH  24  27
ENDBRANCH   9  24
TORSDOF 7
