REMARK  Name = ZINC41249793
REMARK  14 active torsions:
REMARK  status: ('A' for Active; 'I' for Inactive)
REMARK    1  A    between atoms: C_1  and  C_2
REMARK    2  A    between atoms: C_10  and  C_19
REMARK    3  A    between atoms: C_11  and  O_13
REMARK    4  A    between atoms: O_13  and  C_14
REMARK    5  A    between atoms: C_14  and  C_16
REMARK    6  A    between atoms: C_16  and  C_17
REMARK    7  A    between atoms: C_16  and  C_18
REMARK    8  A    between atoms: C_19  and  C_20
REMARK    9  A    between atoms: C_20  and  C_21
REMARK   10  A    between atoms: C_21  and  O_23
REMARK   11  A    between atoms: O_23  and  C_24
REMARK   12  A    between atoms: C_24  and  C_25
REMARK   13  A    between atoms: C_25  and  O_26
REMARK   14  A    between atoms: O_26  and  C_27
REMARK                            x       y       z     vdW  Elec       q    Type
REMARK                         _______ _______ _______ _____ _____    ______ ____
ROOT
ATOM      1  C   UNL     1       0.140   1.545   0.049  0.00  0.00    +0.045 C 
ATOM      2  C   UNL     1       0.013   0.043   0.031  0.00  0.00    -0.033 A 
ATOM      3  C   UNL     1      -0.118  -0.632  -1.140  0.00  0.00    +0.096 A 
ATOM      4  C   UNL     1      -0.235  -2.038  -1.130  0.00  0.00    +0.337 A 
ATOM      5  O   UNL     1      -0.353  -2.631  -2.187  0.00  0.00    -0.245 OA
ATOM      6  O   UNL     1      -0.221  -2.738   0.015  0.00  0.00    -0.422 OA
ATOM      7  C   UNL     1      -0.093  -2.129   1.213  0.00  0.00    +0.143 A 
ATOM      8  C   UNL     1       0.034  -0.728   1.276  0.00  0.00    +0.021 A 
ATOM      9  C   UNL     1       0.172  -0.093   2.515  0.00  0.00    +0.019 A 
ATOM     10  C   UNL     1       0.188  -0.836   3.660  0.00  0.00    -0.004 A 
ATOM     11  C   UNL     1       0.068  -2.223   3.604  0.00  0.00    +0.138 A 
ATOM     12  C   UNL     1      -0.080  -2.867   2.386  0.00  0.00    +0.093 A 
ENDROOT
BRANCH  11  13
ATOM     13  O   UNL     1       0.086  -2.948   4.752  0.00  0.00    -0.425 OA
BRANCH  13  14
ATOM     14  C   UNL     1      -1.071  -3.111   5.412  0.00  0.00    +0.315 C 
ATOM     15  O   UNL     1      -2.104  -2.709   4.931  0.00  0.00    -0.250 OA
BRANCH  14  16
ATOM     16  C   UNL     1      -1.082  -3.797   6.754  0.00  0.00    +0.092 C 
ATOM     17  C   UNL     1      -0.205  -3.016   7.734  0.00  0.00    +0.019 C 
ATOM     18  C   UNL     1      -2.516  -3.853   7.287  0.00  0.00    +0.019 C 
ENDBRANCH  14  16
ENDBRANCH  13  14
ENDBRANCH  11  13
BRANCH  10  19
ATOM     19  C   UNL     1       0.337  -0.152   4.995  0.00  0.00    +0.050 C 
BRANCH  19  20
ATOM     20  C   UNL     1       1.811  -0.152   5.406  0.00  0.00    +0.125 C 
BRANCH  20  21
ATOM     21  C   UNL     1       1.960   0.532   6.740  0.00  0.00    +0.307 C 
ATOM     22  O   UNL     1       0.988   0.975   7.304  0.00  0.00    -0.251 OA
BRANCH  21  23
ATOM     23  O   UNL     1       3.173   0.650   7.302  0.00  0.00    -0.462 OA
BRANCH  23  24
ATOM     24  C   UNL     1       3.241   1.310   8.568  0.00  0.00    +0.260 C 
BRANCH  24  25
ATOM     25  C   UNL     1       4.694   1.349   9.046  0.00  0.00    +0.200 C 
BRANCH  25  26
ATOM     26  O   UNL     1       5.467   2.157   8.157  0.00  0.00    -0.380 OA
ATOM     27  C   UNL     1       6.846   2.260   8.515  0.00  0.00    +0.194 C 
ENDBRANCH  25  26
ENDBRANCH  24  25
ENDBRANCH  23  24
ENDBRANCH  21  23
ENDBRANCH  20  21
ENDBRANCH  19  20
ENDBRANCH  10  19
TORSDOF 10
