REMARK  Name = ZINC13498766
REMARK  12 active torsions:
REMARK  status: ('A' for Active; 'I' for Inactive)
REMARK    1  A    between atoms: C_1  and  C_2
REMARK    2  A    between atoms: C_2  and  C_3
REMARK    3  A    between atoms: C_2  and  C_4
REMARK    4  A    between atoms: C_4  and  C_6
REMARK    5  A    between atoms: C_4  and  N_70
REMARK    6  A    between atoms: N_10  and  C_11
REMARK    7  A    between atoms: C_11  and  C_12
REMARK    8  A    between atoms: C_17  and  C_18
REMARK    9  A    between atoms: C_17  and  N_70
REMARK   10  A    between atoms: C_23  and  O_30
REMARK   11  A    between atoms: O_30  and  C_31
REMARK   12  A    between atoms: C_32  and  N_70
REMARK                            x       y       z     vdW  Elec       q    Type
REMARK                         _______ _______ _______ _____ _____    ______ ____
ROOT
ATOM      1  N   UNL     1       2.149   1.080   8.866  0.00  0.00    +0.391 N 
ATOM      2  H   UNL     1       2.852   1.465   8.224  0.00  0.00    -0.080 HD
ENDROOT
BRANCH   1   3
ATOM      3  C   UNL     1       1.176   2.140   9.204  0.00  0.00    -0.067 C 
ATOM      4  C   UNL     1       0.340   1.732  10.418  0.00  0.00    -0.015 C 
ATOM      5  C   UNL     1      -0.653   2.848  10.752  0.00  0.00    -0.002 C 
ATOM      6  C   UNL     1      -1.575   3.084   9.554  0.00  0.00    -0.000 C 
ATOM      7  C   UNL     1      -0.739   3.493   8.339  0.00  0.00    -0.002 C 
ATOM      8  C   UNL     1       0.254   2.377   8.006  0.00  0.00    -0.015 C 
ENDBRANCH   1   3
BRANCH   1   9
ATOM      9  C   UNL     1       2.826   0.607  10.091  0.00  0.00    +0.006 C 
BRANCH   9  10
ATOM     10  C   UNL     1       2.942   1.745  11.072  0.00  0.00    +0.139 A 
ATOM     11  N   UNL     1       3.236   2.992  10.792  0.00  0.00    -0.115 NA
ATOM     12  N   UNL     1       3.236   3.657  11.896  0.00  0.00    -0.023 NA
ATOM     13  N   UNL     1       2.958   2.866  12.872  0.00  0.00    -0.044 NA
ATOM     14  N   UNL     1       2.770   1.678  12.405  0.00  0.00    -0.223 N 
BRANCH  14  15
ATOM     15  C   UNL     1       2.434   0.481  13.180  0.00  0.00    +0.221 C 
BRANCH  15  16
ATOM     16  C   UNL     1       3.701  -0.212  13.610  0.00  0.00    +0.126 A 
ATOM     17  C   UNL     1       4.377   0.021  14.749  0.00  0.00    +0.046 A 
ATOM     18  C   UNL     1       5.494  -0.846  14.746  0.00  0.00    +0.041 A 
ATOM     19  C   UNL     1       5.438  -1.551  13.602  0.00  0.00    +0.195 A 
ATOM     20  O   UNL     1       4.350  -1.163  12.917  0.00  0.00    -0.466 OA
ENDBRANCH  15  16
ENDBRANCH  14  15
ENDBRANCH   9  10
BRANCH   9  22
ATOM     21  C   UNL     1       4.115  -0.928   8.599  0.00  0.00    +0.006 C 
ATOM     22  C   UNL     1       4.224   0.112   9.715  0.00  0.00    -0.024 C 
ATOM     23  C   UNL     1       5.069   1.292   9.231  0.00  0.00    +0.006 C 
ENDBRANCH   9  22
ENDBRANCH   1   9
BRANCH   1  24
ATOM     24  C   UNL     1       1.459  -0.046   8.202  0.00  0.00    -0.036 C 
BRANCH  24  25
ATOM     25  C   UNL     1       0.455  -0.674   9.135  0.00  0.00    +0.001 A 
ATOM     26  C   UNL     1      -0.850  -0.306   9.070  0.00  0.00    +0.017 A 
ATOM     27  C   UNL     1      -1.799  -0.934   9.988  0.00  0.00    -0.001 A 
ATOM     28  C   UNL     1      -3.157  -0.594   9.968  0.00  0.00    +0.013 A 
ATOM     29  C   UNL     1      -4.021  -1.200  10.832  0.00  0.00    +0.046 A 
ATOM     30  C   UNL     1      -3.560  -2.149  11.745  0.00  0.00    +0.122 A 
ATOM     31  C   UNL     1      -2.221  -2.498  11.781  0.00  0.00    +0.072 A 
ATOM     32  C   UNL     1      -1.328  -1.895  10.905  0.00  0.00    +0.053 A 
ATOM     33  N   UNL     1       0.011  -2.224  10.919  0.00  0.00    -0.322 N 
ATOM     34  H   UNL     1       0.334  -2.886  11.550  0.00  0.00    +0.169 HD
ATOM     35  C   UNL     1       0.875  -1.641  10.070  0.00  0.00    +0.251 A 
ATOM     36  O   UNL     1       2.052  -1.956  10.111  0.00  0.00    -0.268 OA
BRANCH  30  37
ATOM     37  O   UNL     1      -4.433  -2.738  12.602  0.00  0.00    -0.495 OA
ATOM     38  C   UNL     1      -5.801  -2.334  12.514  0.00  0.00    +0.277 C 
ENDBRANCH  30  37
ENDBRANCH  24  25
ENDBRANCH   1  24
TORSDOF 9
