REMARK  Name = ZINC39521242
REMARK  5 active torsions:
REMARK  status: ('A' for Active; 'I' for Inactive)
REMARK    1  A    between atoms: C_1  and  O_2
REMARK    2  A    between atoms: O_2  and  C_3
REMARK    3  A    between atoms: N_9  and  C_10
REMARK    4  A    between atoms: C_15  and  O_16
REMARK    5  A    between atoms: C_20  and  O_23
REMARK                            x       y       z     vdW  Elec       q    Type
REMARK                         _______ _______ _______ _____ _____    ______ ____
ROOT
ATOM      1  C   UNL     1       0.057  -0.198  -1.092  0.00  0.00    +0.206 C 
ATOM      2  C   UNL     1      -0.653  -1.554  -1.163  0.00  0.00    +0.052 C 
ATOM      3  C   UNL     1      -0.177  -2.311  -2.405  0.00  0.00    +0.006 C 
ATOM      4  C   UNL     1       1.330  -2.561  -2.306  0.00  0.00    +0.026 C 
ATOM      5  C   UNL     1       2.062  -1.218  -2.246  0.00  0.00    +0.040 C 
ATOM      6  N   UNL     1       1.509  -0.419  -1.144  0.00  0.00    -0.296 N 
ATOM      7  C   UNL     1       3.553  -1.456  -2.006  0.00  0.00    +0.026 C 
ATOM      8  C   UNL     1       4.280  -0.112  -1.940  0.00  0.00    +0.005 C 
ATOM      9  C   UNL     1       4.087   0.638  -3.260  0.00  0.00    +0.031 C 
ATOM     10  C   UNL     1       2.594   0.877  -3.497  0.00  0.00    +0.117 C 
ATOM     11  C   UNL     1       1.867  -0.467  -3.563  0.00  0.00    +0.057 C 
ENDROOT
BRANCH   6  12
ATOM     12  C   UNL     1       2.348   0.118  -0.161  0.00  0.00    +0.074 A 
ATOM     13  C   UNL     1       2.583   1.485  -0.119  0.00  0.00    +0.027 A 
ATOM     14  C   UNL     1       3.412   2.013   0.853  0.00  0.00    +0.002 A 
ATOM     15  C   UNL     1       4.008   1.183   1.784  0.00  0.00    +0.004 A 
ATOM     16  C   UNL     1       3.778  -0.180   1.748  0.00  0.00    +0.047 A 
ATOM     17  C   UNL     1       2.945  -0.717   0.781  0.00  0.00    +0.138 A 
BRANCH  17  18
ATOM     18  O   UNL     1       2.714  -2.057   0.747  0.00  0.00    -0.505 OA
ATOM     19  H   UNL     1       3.409  -2.565   0.306  0.00  0.00    +0.292 HD
ENDBRANCH  17  18
ENDBRANCH   6  12
BRANCH   1  21
ATOM     20  C   UNL     1      -0.325   1.884   0.032  0.00  0.00    +0.196 C 
ATOM     21  O   UNL     1      -0.284   0.459   0.130  0.00  0.00    -0.362 OA
ENDBRANCH   1  21
BRANCH  10  22
ATOM     22  O   UNL     1       2.060   1.655  -2.424  0.00  0.00    -0.392 OA
ATOM     23  H   UNL     1       2.386   2.566  -2.399  0.00  0.00    +0.210 HD
ENDBRANCH  10  22
TORSDOF 4
