REMARK  Name = ZINC46791702
REMARK  6 active torsions:
REMARK  status: ('A' for Active; 'I' for Inactive)
REMARK    1  A    between atoms: C_1  and  C_2
REMARK    2  A    between atoms: C_7  and  C_10
REMARK    3  A    between atoms: C_14  and  C_17
REMARK    4  A    between atoms: C_17  and  N_18
REMARK    5  A    between atoms: C_19  and  C_21
REMARK    6  A    between atoms: C_24  and  C_26
REMARK                            x       y       z     vdW  Elec       q    Type
REMARK                         _______ _______ _______ _____ _____    ______ ____
ROOT
ATOM      1  C   UNL     1       4.841   2.534  -5.298  0.00  0.00    +0.141 C 
ENDROOT
BRANCH   1  13
ATOM      2  C   UNL     1       0.016   1.546   0.045  0.00  0.00    +0.039 C 
ATOM      3  C   UNL     1       0.015   0.016   0.022  0.00  0.00    +0.133 C 
ATOM      4  C   UNL     1       0.716  -0.478  -1.248  0.00  0.00    +0.137 C 
ATOM      5  N   UNL     1       2.143  -0.135  -1.154  0.00  0.00    -0.312 N 
ATOM      6  C   UNL     1       2.865  -0.509   0.072  0.00  0.00    +0.137 C 
ATOM      7  C   UNL     1       2.060  -0.013   1.279  0.00  0.00    +0.133 C 
ATOM      8  O   UNL     1       0.711  -0.479   1.169  0.00  0.00    -0.371 OA
ATOM      9  C   UNL     1       2.684  -0.553   2.567  0.00  0.00    +0.039 C 
ATOM     10  C   UNL     1       2.791   0.524  -2.193  0.00  0.00    +0.099 A 
ATOM     11  C   UNL     1       2.117   0.757  -3.387  0.00  0.00    +0.042 A 
ATOM     12  C   UNL     1       2.773   1.413  -4.413  0.00  0.00    +0.010 A 
ATOM     13  C   UNL     1       4.087   1.816  -4.208  0.00  0.00    -0.014 A 
ATOM     14  C   UNL     1       4.694   1.552  -2.997  0.00  0.00    +0.089 A 
ATOM     15  N   UNL     1       4.042   0.928  -2.034  0.00  0.00    -0.349 N 
ATOM     16  H   UNL     1       4.491   0.759  -1.192  0.00  0.00    +0.167 HD
ENDBRANCH   1  13
BRANCH   1  17
ATOM     17  N   UNL     1       4.638   3.978  -5.162  0.00  0.00    -0.307 N 
ATOM     18  C   UNL     1       5.221   4.826  -6.033  0.00  0.00    +0.251 C 
ATOM     19  O   UNL     1       5.917   4.391  -6.932  0.00  0.00    -0.270 OA
ATOM     20  H   UNL     1       4.083   4.325  -4.446  0.00  0.00    +0.149 HD
BRANCH  18  21
ATOM     21  C   UNL     1       5.018   6.270  -5.897  0.00  0.00    +0.074 A 
ATOM     22  C   UNL     1       5.519   7.298  -6.683  0.00  0.00    +0.021 A 
ATOM     23  C   UNL     1       5.192   8.586  -6.364  0.00  0.00    +0.017 A 
ATOM     24  C   UNL     1       4.375   8.815  -5.269  0.00  0.00    +0.023 A 
ATOM     25  S   UNL     1       4.056   7.158  -4.684  0.00  0.00    -0.084 S 
BRANCH  24  26
ATOM     26  C   UNL     1       3.886  10.100  -4.728  0.00  0.00    +0.024 A 
ATOM     27  C   UNL     1       4.780  11.146  -4.490  0.00  0.00    +0.012 A 
ATOM     28  C   UNL     1       4.317  12.343  -3.984  0.00  0.00    +0.001 A 
ATOM     29  C   UNL     1       2.971  12.510  -3.712  0.00  0.00    +0.003 A 
ATOM     30  C   UNL     1       2.078  11.479  -3.944  0.00  0.00    +0.039 A 
ATOM     31  C   UNL     1       2.526  10.276  -4.457  0.00  0.00    +0.132 A 
ATOM     32  F   UNL     1       1.653   9.272  -4.689  0.00  0.00    -0.205 F 
ENDBRANCH  24  26
ENDBRANCH  18  21
ENDBRANCH   1  17
TORSDOF 4
