REMARK  Name = ZINC39432560
REMARK  9 active torsions:
REMARK  status: ('A' for Active; 'I' for Inactive)
REMARK    1  A    between atoms: C_1  and  C_2
REMARK    2  A    between atoms: C_2  and  C_4
REMARK    3  A    between atoms: C_2  and  S_13
REMARK    4  A    between atoms: N_6  and  C_7
REMARK    5  A    between atoms: S_13  and  C_14
REMARK    6  A    between atoms: C_15  and  C_28
REMARK    7  A    between atoms: C_16  and  C_23
REMARK    8  A    between atoms: C_17  and  C_21
REMARK    9  A    between atoms: C_18  and  N_20
REMARK                            x       y       z     vdW  Elec       q    Type
REMARK                         _______ _______ _______ _____ _____    ______ ____
ROOT
ATOM      1  C   UNL     1      -0.136  -0.101   2.817  0.00  0.00    +0.118 A 
ATOM      2  C   UNL     1       0.257  -0.400   4.135  0.00  0.00    +0.093 A 
ATOM      3  C   UNL     1      -0.568   0.012   5.202  0.00  0.00    +0.023 A 
ATOM      4  C   UNL     1      -1.754   0.710   4.893  0.00  0.00    +0.100 A 
ATOM      5  C   UNL     1      -2.063   0.963   3.544  0.00  0.00    +0.136 A 
ATOM      6  N   UNL     1      -1.257   0.562   2.574  0.00  0.00    -0.224 NA
ENDROOT
BRANCH   3   7
ATOM      7  C   UNL     1      -0.200  -0.279   6.603  0.00  0.00    -0.008 A 
ATOM      8  C   UNL     1      -0.979  -1.132   7.388  0.00  0.00    +0.016 A 
ATOM      9  C   UNL     1      -0.557  -1.333   8.656  0.00  0.00    +0.046 A 
ATOM     10  S   UNL     1       0.915  -0.331   8.732  0.00  0.00    -0.104 S 
ATOM     11  C   UNL     1       0.914   0.275   7.166  0.00  0.00    +0.053 A 
ENDBRANCH   3   7
BRANCH   5  12
ATOM     12  N   UNL     1      -3.221   1.645   3.228  0.00  0.00    -0.342 N 
ATOM     13  H   UNL     1      -3.815   1.945   3.933  0.00  0.00    +0.144 HD
ATOM     14  H   UNL     1      -3.441   1.823   2.300  0.00  0.00    +0.144 HD
ENDBRANCH   5  12
BRANCH   4  15
ATOM     15  C   UNL     1      -2.631   1.153   5.935  0.00  0.00    +0.103 C 
ATOM     16  N   UNL     1      -3.326   1.504   6.762  0.00  0.00    -0.191 NA
ENDBRANCH   4  15
BRANCH   2  17
ATOM     17  C   UNL     1       1.473  -1.113   4.388  0.00  0.00    +0.102 C 
ATOM     18  N   UNL     1       2.438  -1.678   4.589  0.00  0.00    -0.191 NA
ENDBRANCH   2  17
BRANCH   1  19
ATOM     19  S   UNL     1       0.882  -0.609   1.471  0.00  0.00    -0.092 S 
BRANCH  19  21
ATOM     20  C   UNL     1      -0.032   1.519   0.015  0.00  0.00    +0.029 C 
ATOM     21  C   UNL     1      -0.000  -0.010   0.003  0.00  0.00    +0.136 C 
BRANCH  21  22
ATOM     22  C   UNL     1       0.708  -0.488  -1.238  0.00  0.00    +0.230 C 
ATOM     23  O   UNL     1       1.867  -0.839  -1.178  0.00  0.00    -0.274 OA
ATOM     24  N   UNL     1       0.053  -0.526  -2.415  0.00  0.00    -0.285 N 
ATOM     25  H   UNL     1      -0.892  -0.310  -2.452  0.00  0.00    +0.155 HD
BRANCH  24  26
ATOM     26  C   UNL     1       0.736  -0.877  -3.585  0.00  0.00    +0.033 A 
ATOM     27  C   UNL     1       0.406  -0.273  -4.791  0.00  0.00    +0.023 A 
ATOM     28  C   UNL     1       1.082  -0.621  -5.944  0.00  0.00    +0.002 A 
ATOM     29  C   UNL     1       2.086  -1.571  -5.898  0.00  0.00    +0.000 A 
ATOM     30  C   UNL     1       2.416  -2.175  -4.699  0.00  0.00    +0.002 A 
ATOM     31  C   UNL     1       1.748  -1.827  -3.542  0.00  0.00    +0.023 A 
ENDBRANCH  24  26
ENDBRANCH  21  22
ENDBRANCH  19  21
ENDBRANCH   1  19
TORSDOF 8
