REMARK  Name = ZINC36531256
REMARK  10 active torsions:
REMARK  status: ('A' for Active; 'I' for Inactive)
REMARK    1  A    between atoms: C_1  and  C_2
REMARK    2  A    between atoms: C_5  and  C_9
REMARK    3  A    between atoms: C_6  and  C_8
REMARK    4  A    between atoms: C_9  and  C_11
REMARK    5  A    between atoms: C_9  and  N_20
REMARK    6  A    between atoms: N_13  and  C_14
REMARK    7  A    between atoms: N_20  and  C_21
REMARK    8  A    between atoms: C_22  and  C_24
REMARK    9  A    between atoms: C_28  and  O_31
REMARK   10  A    between atoms: C_29  and  O_30
REMARK                            x       y       z     vdW  Elec       q    Type
REMARK                         _______ _______ _______ _____ _____    ______ ____
ROOT
ATOM      1  C   UNL     1       0.356  -3.886  -0.066  0.00  0.00    +0.192 C 
ENDROOT
BRANCH   1   6
ATOM      2  C   UNL     1      -0.048   1.878  -0.024  0.00  0.00    +0.044 C 
ATOM      3  C   UNL     1       0.057   0.375  -0.035  0.00  0.00    -0.050 A 
ATOM      4  C   UNL     1      -1.059  -0.394  -0.305  0.00  0.00    +0.004 A 
ATOM      5  C   UNL     1      -0.963  -1.773  -0.315  0.00  0.00    +0.006 A 
ATOM      6  C   UNL     1       0.251  -2.383  -0.056  0.00  0.00    -0.015 A 
ATOM      7  C   UNL     1       1.367  -1.614   0.213  0.00  0.00    -0.045 A 
ATOM      8  C   UNL     1       1.272  -0.235   0.219  0.00  0.00    +0.007 A 
ATOM      9  C   UNL     1       2.689  -2.279   0.497  0.00  0.00    +0.044 C 
ENDBRANCH   1   6
BRANCH   1  10
ATOM     10  C   UNL     1      -1.024  -4.487   0.023  0.00  0.00    +0.238 C 
ATOM     11  O   UNL     1      -1.517  -5.019  -0.949  0.00  0.00    -0.273 OA
ATOM     12  N   UNL     1      -1.709  -4.432   1.182  0.00  0.00    -0.311 N 
ATOM     13  H   UNL     1      -1.346  -3.944   1.938  0.00  0.00    +0.149 HD
BRANCH  12  14
ATOM     14  C   UNL     1      -3.002  -5.110   1.301  0.00  0.00    +0.073 C 
ATOM     15  C   UNL     1      -4.109  -4.195   0.774  0.00  0.00    +0.022 C 
ATOM     16  C   UNL     1      -5.459  -4.904   0.898  0.00  0.00    +0.002 C 
ATOM     17  C   UNL     1      -5.728  -5.234   2.367  0.00  0.00    +0.000 C 
ATOM     18  C   UNL     1      -4.622  -6.150   2.895  0.00  0.00    +0.002 C 
ATOM     19  C   UNL     1      -3.271  -5.441   2.771  0.00  0.00    +0.022 C 
ENDBRANCH  12  14
ENDBRANCH   1  10
BRANCH   1  20
ATOM     20  N   UNL     1       0.999  -4.322  -1.308  0.00  0.00    -0.285 N 
ATOM     21  C   UNL     1       0.452  -3.907  -2.601  0.00  0.00    +0.133 C 
ATOM     22  C   UNL     1       2.095  -5.106  -1.260  0.00  0.00    +0.251 C 
ATOM     23  O   UNL     1       2.486  -5.539  -0.193  0.00  0.00    -0.270 OA
BRANCH  22  24
ATOM     24  C   UNL     1       2.820  -5.437  -2.501  0.00  0.00    +0.082 A 
ATOM     25  C   UNL     1       3.034  -4.455  -3.473  0.00  0.00    +0.017 A 
ATOM     26  C   UNL     1       3.711  -4.769  -4.631  0.00  0.00    +0.005 A 
ATOM     27  C   UNL     1       4.184  -6.054  -4.839  0.00  0.00    +0.049 A 
ATOM     28  C   UNL     1       3.980  -7.037  -3.886  0.00  0.00    +0.159 A 
ATOM     29  C   UNL     1       3.302  -6.735  -2.709  0.00  0.00    +0.171 A 
BRANCH  29  30
ATOM     30  O   UNL     1       3.105  -7.694  -1.770  0.00  0.00    -0.503 OA
ATOM     31  H   UNL     1       2.285  -8.194  -1.884  0.00  0.00    +0.292 HD
ENDBRANCH  29  30
BRANCH  28  32
ATOM     32  O   UNL     1       4.446  -8.297  -4.098  0.00  0.00    -0.503 OA
ATOM     33  H   UNL     1       5.345  -8.444  -3.772  0.00  0.00    +0.292 HD
ENDBRANCH  28  32
ENDBRANCH  22  24
ENDBRANCH   1  20
TORSDOF 7
