REMARK  Name = ZINC04000074
REMARK  8 active torsions:
REMARK  status: ('A' for Active; 'I' for Inactive)
REMARK    1  A    between atoms: C_1  and  C_2
REMARK    2  A    between atoms: C_2  and  C_28
REMARK    3  A    between atoms: C_10  and  C_16
REMARK    4  A    between atoms: C_12  and  O_15
REMARK    5  A    between atoms: C_17  and  C_18
REMARK    6  A    between atoms: C_21  and  C_24
REMARK    7  A    between atoms: C_24  and  O_26
REMARK    8  A    between atoms: O_26  and  C_27
REMARK                            x       y       z     vdW  Elec       q    Type
REMARK                         _______ _______ _______ _____ _____    ______ ____
ROOT
ATOM      1  C   UNL     1      -0.019   1.526   0.010  0.00  0.00    +0.020 C 
ATOM      2  C   UNL     1       0.002  -0.004   0.002  0.00  0.00    +0.037 C 
ATOM      3  C   UNL     1      -1.403  -0.554   0.141  0.00  0.00    -0.016 A 
ATOM      4  C   UNL     1      -2.539  -0.333  -0.611  0.00  0.00    +0.006 A 
ATOM      5  C   UNL     1      -3.730  -0.947  -0.269  0.00  0.00    +0.000 A 
ATOM      6  C   UNL     1      -3.780  -1.783   0.831  0.00  0.00    +0.002 A 
ATOM      7  C   UNL     1      -2.647  -2.014   1.580  0.00  0.00    +0.023 A 
ATOM      8  C   UNL     1      -1.438  -1.406   1.237  0.00  0.00    +0.036 A 
ATOM      9  N   UNL     1      -0.182  -1.532   1.814  0.00  0.00    -0.301 N 
ATOM     10  C   UNL     1       0.738  -0.537   1.235  0.00  0.00    +0.159 C 
ATOM     11  N   UNL     1       1.976  -1.224   0.887  0.00  0.00    -0.224 NA
ATOM     12  C   UNL     1       2.269  -2.392   1.304  0.00  0.00    +0.186 C 
ATOM     13  C   UNL     1       1.428  -3.284   2.163  0.00  0.00    +0.114 C 
ATOM     14  C   UNL     1       0.278  -2.504   2.817  0.00  0.00    +0.117 C 
ATOM     15  C   UNL     1       0.659  -0.522  -1.279  0.00  0.00    +0.020 C 
ENDROOT
BRANCH  12  16
ATOM     16  O   UNL     1       3.470  -2.879   0.929  0.00  0.00    -0.496 OA
ATOM     17  H   UNL     1       3.984  -2.276   0.376  0.00  0.00    +0.293 HD
ENDBRANCH  12  16
BRANCH  10  18
ATOM     18  C   UNL     1       0.995   0.578   2.216  0.00  0.00    +0.024 C 
ATOM     19  C   UNL     1       0.494   0.510   3.443  0.00  0.00    +0.007 C 
BRANCH  19  20
ATOM     20  C   UNL     1       0.746   1.602   4.404  0.00  0.00    -0.025 A 
ATOM     21  C   UNL     1       1.507   2.709   4.021  0.00  0.00    +0.009 A 
ATOM     22  C   UNL     1       1.742   3.723   4.913  0.00  0.00    +0.015 A 
ATOM     23  C   UNL     1       1.219   3.649   6.208  0.00  0.00    +0.059 A 
ATOM     24  C   UNL     1       0.457   2.542   6.591  0.00  0.00    +0.015 A 
ATOM     25  C   UNL     1       0.218   1.531   5.696  0.00  0.00    +0.009 A 
BRANCH  23  26
ATOM     26  C   UNL     1       1.471   4.740   7.169  0.00  0.00    +0.339 C 
ATOM     27  O   UNL     1       2.134   5.702   6.835  0.00  0.00    -0.245 OA
BRANCH  26  28
ATOM     28  O   UNL     1       0.967   4.669   8.416  0.00  0.00    -0.464 OA
ATOM     29  C   UNL     1       1.251   5.760   9.294  0.00  0.00    +0.280 C 
ENDBRANCH  26  28
ENDBRANCH  23  26
ENDBRANCH  19  20
ENDBRANCH  10  18
TORSDOF 5
