REMARK  Name = ZINC09663191
REMARK  8 active torsions:
REMARK  status: ('A' for Active; 'I' for Inactive)
REMARK    1  A    between atoms: C_4  and  C_7
REMARK    2  A    between atoms: C_7  and  N_8
REMARK    3  A    between atoms: C_9  and  C_29
REMARK    4  A    between atoms: C_12  and  S_13
REMARK    5  A    between atoms: S_13  and  C_14
REMARK    6  A    between atoms: C_14  and  C_15
REMARK    7  A    between atoms: N_17  and  C_18
REMARK    8  A    between atoms: C_19  and  C_26
REMARK                            x       y       z     vdW  Elec       q    Type
REMARK                         _______ _______ _______ _____ _____    ______ ____
ROOT
ATOM      1  S   UNL     1      -3.710   3.360   2.137  0.00  0.00    -0.077 S 
ENDROOT
BRANCH   1   6
ATOM      2  N   UNL     1      -2.557   0.861   1.635  0.00  0.00    -0.298 N 
ATOM      3  C   UNL     1      -2.684  -0.410   2.144  0.00  0.00    +0.167 A 
ATOM      4  N   UNL     1      -3.580  -0.354   3.102  0.00  0.00    -0.128 NA
ATOM      5  N   UNL     1      -4.020   0.848   3.221  0.00  0.00    -0.122 NA
ATOM      6  C   UNL     1      -3.429   1.633   2.348  0.00  0.00    +0.193 A 
BRANCH   3   7
ATOM      7  C   UNL     1      -1.950  -1.613   1.698  0.00  0.00    +0.037 A 
ATOM      8  C   UNL     1      -1.599  -1.775   0.352  0.00  0.00    +0.014 A 
ATOM      9  C   UNL     1      -0.912  -2.918  -0.013  0.00  0.00    +0.020 A 
ATOM     10  C   UNL     1      -0.596  -3.857   0.953  0.00  0.00    +0.111 A 
ATOM     11  N   UNL     1      -0.939  -3.678   2.214  0.00  0.00    -0.263 NA
ATOM     12  C   UNL     1      -1.589  -2.604   2.612  0.00  0.00    +0.122 A 
ENDBRANCH   3   7
BRANCH   2  13
ATOM     13  C   UNL     1      -1.673   1.296   0.550  0.00  0.00    +0.161 C 
BRANCH  13  17
ATOM     14  C   UNL     1       2.192   2.201   2.128  0.00  0.00    +0.000 A 
ATOM     15  C   UNL     1       1.905   0.920   1.694  0.00  0.00    +0.000 A 
ATOM     16  C   UNL     1       0.653   0.626   1.187  0.00  0.00    +0.005 A 
ATOM     17  C   UNL     1      -0.310   1.615   1.109  0.00  0.00    -0.028 A 
ATOM     18  C   UNL     1      -0.025   2.894   1.548  0.00  0.00    +0.005 A 
ATOM     19  C   UNL     1       1.226   3.188   2.056  0.00  0.00    +0.000 A 
ENDBRANCH  13  17
ENDBRANCH   2  13
ENDBRANCH   1   6
BRANCH   1  20
ATOM     20  C   UNL     1      -4.965   3.632   3.413  0.00  0.00    +0.173 C 
BRANCH  20  21
ATOM     21  C   UNL     1      -5.370   5.084   3.417  0.00  0.00    +0.228 C 
ATOM     22  O   UNL     1      -4.860   5.858   2.635  0.00  0.00    -0.275 OA
ATOM     23  N   UNL     1      -6.298   5.521   4.291  0.00  0.00    -0.279 N 
ATOM     24  H   UNL     1      -6.706   4.902   4.916  0.00  0.00    +0.155 HD
BRANCH  23  25
ATOM     25  C   UNL     1      -6.671   6.857   4.295  0.00  0.00    +0.084 A 
ATOM     26  C   UNL     1      -7.601   7.488   5.103  0.00  0.00    +0.068 A 
ATOM     27  C   UNL     1      -7.806   8.923   4.906  0.00  0.00    -0.023 A 
ATOM     28  C   UNL     1      -7.061   9.478   3.934  0.00  0.00    -0.004 A 
ATOM     29  S   UNL     1      -6.092   8.138   3.286  0.00  0.00    -0.077 S 
ATOM     30  C   UNL     1      -7.330  10.952   3.790  0.00  0.00    +0.043 C 
ATOM     31  C   UNL     1      -8.043  11.348   5.101  0.00  0.00    +0.010 C 
ATOM     32  C   UNL     1      -8.683  10.011   5.527  0.00  0.00    +0.037 C 
BRANCH  26  33
ATOM     33  C   UNL     1      -8.349   6.747   6.123  0.00  0.00    +0.244 C 
ATOM     34  O   UNL     1      -7.904   6.647   7.252  0.00  0.00    -0.270 OA
ATOM     35  N   UNL     1      -9.528   6.175   5.811  0.00  0.00    -0.325 N 
ATOM     36  H   UNL     1      -9.882   6.253   4.911  0.00  0.00    +0.145 HD
ATOM     37  H   UNL     1     -10.023   5.684   6.485  0.00  0.00    +0.145 HD
ENDBRANCH  26  33
ENDBRANCH  23  25
ENDBRANCH  20  21
ENDBRANCH   1  20
TORSDOF 8
