REMARK  Name = ZINC09963631
REMARK  8 active torsions:
REMARK  status: ('A' for Active; 'I' for Inactive)
REMARK    1  A    between atoms: C_1  and  C_2
REMARK    2  A    between atoms: C_2  and  C_4
REMARK    3  A    between atoms: C_2  and  N_14
REMARK    4  A    between atoms: C_15  and  C_17
REMARK    5  A    between atoms: C_17  and  N_18
REMARK    6  A    between atoms: C_22  and  C_29
REMARK    7  A    between atoms: C_34  and  O_35
REMARK    8  A    between atoms: O_35  and  C_36
REMARK                            x       y       z     vdW  Elec       q    Type
REMARK                         _______ _______ _______ _____ _____    ______ ____
ROOT
ATOM      1  N   UNL     1       2.376   0.054  -0.018  0.00  0.00    -0.303 N 
ATOM      2  C   UNL     1       1.240  -0.660  -0.013  0.00  0.00    +0.253 A 
ATOM      3  O   UNL     1       1.286  -1.880  -0.023  0.00  0.00    -0.268 OA
ATOM      4  C   UNL     1       0.002  -0.004   0.002  0.00  0.00    +0.079 A 
ATOM      5  C   UNL     1      -0.017   1.380   0.010  0.00  0.00    -0.004 A 
ATOM      6  C   UNL     1       1.210   2.097   0.002  0.00  0.00    -0.020 A 
ATOM      7  C   UNL     1       2.373   1.423  -0.004  0.00  0.00    +0.026 A 
ATOM      8  C   UNL     1       3.713   2.111   0.017  0.00  0.00    +0.054 C 
ATOM      9  C   UNL     1       3.579   3.571  -0.409  0.00  0.00    +0.006 C 
ATOM     10  C   UNL     1       2.462   4.214   0.423  0.00  0.00    +0.005 C 
ATOM     11  C   UNL     1       1.132   3.601  -0.009  0.00  0.00    +0.037 C 
ENDROOT
BRANCH   5  12
ATOM     12  C   UNL     1      -1.306   2.108   0.020  0.00  0.00    +0.024 A 
ATOM     13  C   UNL     1      -1.760   2.713   1.192  0.00  0.00    +0.012 A 
ATOM     14  C   UNL     1      -2.959   3.395   1.194  0.00  0.00    +0.001 A 
ATOM     15  C   UNL     1      -3.720   3.472   0.040  0.00  0.00    +0.004 A 
ATOM     16  C   UNL     1      -3.283   2.872  -1.125  0.00  0.00    +0.046 A 
ATOM     17  C   UNL     1      -2.078   2.188  -1.145  0.00  0.00    +0.128 A 
BRANCH  17  18
ATOM     18  O   UNL     1      -1.648   1.597  -2.289  0.00  0.00    -0.495 OA
ATOM     19  C   UNL     1      -2.488   1.720  -3.438  0.00  0.00    +0.277 C 
ENDBRANCH  17  18
ENDBRANCH   5  12
BRANCH   1  20
ATOM     20  C   UNL     1       3.659  -0.652  -0.039  0.00  0.00    +0.220 C 
BRANCH  20  22
ATOM     21  N   UNL     1       5.242  -1.516  -1.733  0.00  0.00    -0.307 N 
ATOM     22  C   UNL     1       4.084  -0.879  -1.467  0.00  0.00    +0.233 C 
ATOM     23  O   UNL     1       3.384  -0.489  -2.377  0.00  0.00    -0.274 OA
ATOM     24  H   UNL     1       5.802  -1.828  -1.005  0.00  0.00    +0.149 HD
BRANCH  21  26
ATOM     25  C   UNL     1       5.001  -3.015  -3.650  0.00  0.00    +0.033 C 
ATOM     26  C   UNL     1       5.655  -1.737  -3.121  0.00  0.00    +0.104 C 
BRANCH  26  27
ATOM     27  C   UNL     1       7.154  -1.877  -3.183  0.00  0.00    +0.018 A 
ATOM     28  C   UNL     1       7.855  -2.297  -2.068  0.00  0.00    +0.009 A 
ATOM     29  C   UNL     1       9.229  -2.432  -2.123  0.00  0.00    +0.004 A 
ATOM     30  C   UNL     1       9.909  -2.135  -3.289  0.00  0.00    +0.049 A 
ATOM     31  C   UNL     1       9.213  -1.706  -4.409  0.00  0.00    +0.162 A 
ATOM     32  C   UNL     1       7.830  -1.578  -4.356  0.00  0.00    +0.167 A 
ATOM     33  O   UNL     1       7.126  -1.167  -5.446  0.00  0.00    -0.485 OA
ATOM     34  C   UNL     1       7.869  -0.522  -6.486  0.00  0.00    +0.270 C 
ATOM     35  C   UNL     1       9.132  -1.350  -6.758  0.00  0.00    +0.270 C 
ATOM     36  O   UNL     1       9.896  -1.413  -5.549  0.00  0.00    -0.485 OA
ENDBRANCH  26  27
ENDBRANCH  21  26
ENDBRANCH  20  22
ENDBRANCH   1  20
TORSDOF 6
