REMARK  Name = ZINC06806162
REMARK  6 active torsions:
REMARK  status: ('A' for Active; 'I' for Inactive)
REMARK    1  A    between atoms: C_1  and  C_2
REMARK    2  A    between atoms: C_5  and  N_9
REMARK    3  A    between atoms: C_6  and  C_8
REMARK    4  A    between atoms: C_10  and  C_12
REMARK    5  A    between atoms: C_25  and  C_30
REMARK    6  A    between atoms: C_28  and  C_29
REMARK                            x       y       z     vdW  Elec       q    Type
REMARK                         _______ _______ _______ _____ _____    ______ ____
ROOT
ATOM      1  C   UNL     1      -0.134  -6.343  -1.187  0.00  0.00    +0.093 C 
ATOM      2  C   UNL     1      -0.238  -6.848  -2.628  0.00  0.00    +0.016 C 
ATOM      3  C   UNL     1      -0.300  -8.377  -2.631  0.00  0.00    +0.020 C 
ATOM      4  C   UNL     1      -1.546  -8.835  -1.867  0.00  0.00    +0.107 C 
ATOM      5  N   UNL     1      -1.526  -8.235  -0.526  0.00  0.00    -0.307 N 
ATOM      6  C   UNL     1      -1.378  -6.778  -0.406  0.00  0.00    +0.119 C 
ATOM      7  C   UNL     1      -1.645  -9.029   0.606  0.00  0.00    +0.186 A 
ATOM      8  N   UNL     1      -1.657  -8.690   1.887  0.00  0.00    -0.124 NA
ATOM      9  N   UNL     1      -1.775  -9.549   2.803  0.00  0.00    -0.121 NA
ATOM     10  C   UNL     1      -1.895 -10.840   2.542  0.00  0.00    +0.202 A 
ATOM     11  S   UNL     1      -1.835 -10.803   0.753  0.00  0.00    -0.013 S 
ATOM     12  N   UNL     1      -2.034 -11.922   3.414  0.00  0.00    -0.296 N 
ATOM     13  C   UNL     1      -2.145 -13.232   3.045  0.00  0.00    +0.023 A 
ATOM     14  C   UNL     1      -2.261 -13.976   4.163  0.00  0.00    +0.023 A 
ATOM     15  C   UNL     1      -2.220 -13.096   5.263  0.00  0.00    +0.023 A 
ATOM     16  C   UNL     1      -2.075 -11.847   4.777  0.00  0.00    +0.023 A 
ATOM     17  C   UNL     1      -1.977 -10.585   5.596  0.00  0.00    +0.064 C 
ATOM     18  C   UNL     1      -2.140 -13.756   1.632  0.00  0.00    +0.064 C 
ENDROOT
BRANCH   1  20
ATOM     19  N   UNL     1       0.059  -4.170  -0.021  0.00  0.00    -0.285 N 
ATOM     20  C   UNL     1      -0.040  -4.839  -1.187  0.00  0.00    +0.222 C 
ATOM     21  O   UNL     1      -0.054  -4.230  -2.236  0.00  0.00    -0.275 OA
ATOM     22  H   UNL     1       0.135  -4.658   0.814  0.00  0.00    +0.155 HD
BRANCH  19  27
ATOM     23  C   UNL     1       0.025   1.503   0.005  0.00  0.00    +0.044 C 
ATOM     24  C   UNL     1       0.034  -0.004  -0.002  0.00  0.00    -0.050 A 
ATOM     25  C   UNL     1       0.631  -0.685  -1.046  0.00  0.00    +0.005 A 
ATOM     26  C   UNL     1       0.641  -2.066  -1.055  0.00  0.00    +0.024 A 
ATOM     27  C   UNL     1       0.051  -2.771  -0.014  0.00  0.00    +0.036 A 
ATOM     28  C   UNL     1      -0.548  -2.083   1.033  0.00  0.00    -0.029 A 
ATOM     29  C   UNL     1      -0.550  -0.702   1.039  0.00  0.00    +0.008 A 
ATOM     30  C   UNL     1      -1.190  -2.844   2.165  0.00  0.00    +0.045 C 
ENDBRANCH  19  27
ENDBRANCH   1  20
TORSDOF 2
