REMARK  Name = ZINC20368793
REMARK  15 active torsions:
REMARK  status: ('A' for Active; 'I' for Inactive)
REMARK    1  A    between atoms: C_1  and  C_2
REMARK    2  A    between atoms: C_2  and  C_3
REMARK    3  A    between atoms: C_3  and  C_4
REMARK    4  A    between atoms: C_4  and  C_5
REMARK    5  A    between atoms: C_5  and  C_6
REMARK    6  A    between atoms: C_6  and  N_7
REMARK    7  A    between atoms: N_7  and  S_8
REMARK    8  A    between atoms: S_8  and  C_11
REMARK    9  A    between atoms: C_14  and  N_17
REMARK   10  A    between atoms: C_18  and  C_20
REMARK   11  A    between atoms: C_26  and  C_28
REMARK   12  A    between atoms: N_33  and  C_35
REMARK   13  A    between atoms: C_35  and  C_36
REMARK   14  A    between atoms: C_35  and  C_37
REMARK   15  A    between atoms: C_35  and  C_38
REMARK                            x       y       z     vdW  Elec       q    Type
REMARK                         _______ _______ _______ _____ _____    ______ ____
ROOT
ATOM      1  N   UNL     1      -0.011   0.966   0.007  0.00  0.00    -0.285 N 
ATOM      2  C   UNL     1      -1.247   1.477  -0.160  0.00  0.00    +0.220 C 
ATOM      3  O   UNL     1      -1.388   2.660  -0.386  0.00  0.00    -0.275 OA
ATOM      4  H   UNL     1       0.123  -0.119   0.129  0.00  0.00    +0.155 HD
ENDROOT
BRANCH   2   5
ATOM      5  C   UNL     1      -2.453   0.579  -0.066  0.00  0.00    +0.078 C 
ATOM      6  C   UNL     1      -2.358  -0.516  -1.131  0.00  0.00    +0.032 C 
ATOM      7  C   UNL     1      -3.568  -1.447  -1.010  0.00  0.00    +0.108 C 
ATOM      8  N   UNL     1      -4.794  -0.641  -1.081  0.00  0.00    -0.301 N 
ATOM      9  C   UNL     1      -4.948   0.494  -0.161  0.00  0.00    +0.108 C 
ATOM     10  C   UNL     1      -3.722   1.404  -0.292  0.00  0.00    +0.032 C 
ATOM     11  C   UNL     1      -5.760  -0.938  -1.973  0.00  0.00    +0.221 C 
ATOM     12  O   UNL     1      -6.768  -0.265  -2.022  0.00  0.00    -0.275 OA
BRANCH  11  13
ATOM     13  C   UNL     1      -5.588  -2.106  -2.910  0.00  0.00    +0.101 C 
ATOM     14  C   UNL     1      -5.535  -3.439  -2.128  0.00  0.00    +0.110 C 
ATOM     15  C   UNL     1      -6.273  -4.418  -3.014  0.00  0.00    +0.217 C 
ATOM     16  O   UNL     1      -6.222  -5.625  -2.909  0.00  0.00    -0.276 OA
ATOM     17  N   UNL     1      -6.994  -3.756  -3.935  0.00  0.00    -0.296 N 
ATOM     18  C   UNL     1      -6.845  -2.303  -3.785  0.00  0.00    +0.121 C 
BRANCH  17  19
ATOM     19  C   UNL     1      -7.821  -4.401  -4.958  0.00  0.00    +0.029 C 
ATOM     20  C   UNL     1      -7.729  -5.920  -4.805  0.00  0.00    +0.031 C 
ATOM     21  C   UNL     1      -9.276  -3.958  -4.790  0.00  0.00    +0.031 C 
ATOM     22  C   UNL     1      -7.322  -3.997  -6.347  0.00  0.00    +0.031 C 
ENDBRANCH  17  19
ENDBRANCH  11  13
ENDBRANCH   2   5
BRANCH   1  26
ATOM     23  C   UNL     1       3.300   3.494   0.064  0.00  0.00    +0.105 A 
ATOM     24  C   UNL     1       2.090   3.930   0.572  0.00  0.00    +0.030 A 
ATOM     25  C   UNL     1       0.991   3.095   0.554  0.00  0.00    +0.025 A 
ATOM     26  C   UNL     1       1.101   1.815   0.026  0.00  0.00    +0.034 A 
ATOM     27  C   UNL     1       2.319   1.378  -0.478  0.00  0.00    +0.025 A 
ATOM     28  C   UNL     1       3.413   2.220  -0.463  0.00  0.00    +0.030 A 
BRANCH  23  29
ATOM     29  S   UNL     1       4.701   4.562   0.089  0.00  0.00    +0.058 S 
ATOM     30  O   UNL     1       5.572   4.114  -0.939  0.00  0.00    -0.153 OA
ATOM     31  O   UNL     1       4.197   5.891   0.136  0.00  0.00    -0.153 OA
BRANCH  29  32
ATOM     32  N   UNL     1       5.488   4.304   1.523  0.00  0.00    -0.190 NA
ATOM     33  H   UNL     1       5.403   5.052   2.325  0.00  0.00    +0.148 HD
BRANCH  32  34
ATOM     34  C   UNL     1       6.104   3.003   1.797  0.00  0.00    +0.106 C 
BRANCH  34  35
ATOM     35  C   UNL     1       7.064   3.132   2.981  0.00  0.00    +0.017 C 
BRANCH  35  36
ATOM     36  C   UNL     1       7.707   1.774   3.266  0.00  0.00    +0.001 C 
BRANCH  36  37
ATOM     37  C   UNL     1       8.667   1.903   4.451  0.00  0.00    -0.000 C 
BRANCH  37  39
ATOM     38  C   UNL     1      10.270   0.673   5.920  0.00  0.00    +0.004 C 
ATOM     39  C   UNL     1       9.310   0.544   4.736  0.00  0.00    -0.003 C 
ENDBRANCH  37  39
ENDBRANCH  36  37
ENDBRANCH  35  36
ENDBRANCH  34  35
ENDBRANCH  32  34
ENDBRANCH  29  32
ENDBRANCH  23  29
ENDBRANCH   1  26
TORSDOF 11
