REMARK  Name = ZINC38621158
REMARK  10 active torsions:
REMARK  status: ('A' for Active; 'I' for Inactive)
REMARK    1  A    between atoms: C_1  and  C_2
REMARK    2  A    between atoms: C_4  and  C_40
REMARK    3  A    between atoms: C_5  and  N_9
REMARK    4  A    between atoms: C_6  and  C_8
REMARK    5  A    between atoms: C_10  and  C_12
REMARK    6  A    between atoms: N_14  and  C_15
REMARK    7  A    between atoms: C_15  and  C_16
REMARK    8  A    between atoms: C_16  and  C_18
REMARK    9  A    between atoms: C_16  and  N_27
REMARK   10  A    between atoms: N_30  and  C_33
REMARK                            x       y       z     vdW  Elec       q    Type
REMARK                         _______ _______ _______ _____ _____    ______ ____
ROOT
ATOM      1  C   UNL     1      -0.086  -9.421   4.108  0.00  0.00    +0.104 C 
ENDROOT
BRANCH   1   2
ATOM      2  C   UNL     1      -0.206 -10.917   4.242  0.00  0.00    -0.025 A 
ATOM      3  C   UNL     1      -1.442 -11.524   4.125  0.00  0.00    +0.009 A 
ATOM      4  C   UNL     1      -1.557 -12.896   4.247  0.00  0.00    +0.050 A 
ATOM      5  C   UNL     1      -0.431 -13.667   4.488  0.00  0.00    +0.166 A 
ATOM      6  C   UNL     1       0.815 -13.056   4.605  0.00  0.00    +0.167 A 
ATOM      7  C   UNL     1       0.923 -11.680   4.476  0.00  0.00    +0.054 A 
ATOM      8  O   UNL     1       1.753 -14.019   4.838  0.00  0.00    -0.453 OA
ATOM      9  C   UNL     1       1.015 -15.179   5.268  0.00  0.00    +0.466 C 
ATOM     10  O   UNL     1      -0.273 -15.013   4.647  0.00  0.00    -0.453 OA
ENDBRANCH   1   2
BRANCH   1  11
ATOM     11  N   UNL     1      -0.764  -8.772   5.239  0.00  0.00    -0.291 NA
ATOM     12  C   UNL     1      -0.554  -9.527   6.481  0.00  0.00    +0.104 C 
ATOM     13  C   UNL     1      -1.118  -8.729   7.661  0.00  0.00    +0.120 C 
ATOM     14  N   UNL     1      -2.519  -8.389   7.369  0.00  0.00    -0.325 N 
ATOM     15  C   UNL     1      -2.826  -7.753   6.079  0.00  0.00    +0.120 C 
ATOM     16  C   UNL     1      -2.195  -8.589   4.961  0.00  0.00    +0.104 C 
BRANCH  14  17
ATOM     17  C   UNL     1      -3.532  -8.663   8.293  0.00  0.00    +0.065 A 
ATOM     18  C   UNL     1      -3.881  -7.715   9.245  0.00  0.00    +0.026 A 
ATOM     19  C   UNL     1      -4.883  -7.989  10.156  0.00  0.00    +0.002 A 
ATOM     20  C   UNL     1      -5.538  -9.206  10.122  0.00  0.00    +0.003 A 
ATOM     21  C   UNL     1      -5.194 -10.154   9.176  0.00  0.00    +0.040 A 
ATOM     22  C   UNL     1      -4.197  -9.885   8.257  0.00  0.00    +0.144 A 
ATOM     23  F   UNL     1      -3.864 -10.809   7.329  0.00  0.00    -0.204 F 
ENDBRANCH  14  17
ENDBRANCH   1  11
BRANCH   1  24
ATOM     24  C   UNL     1      -0.738  -8.973   2.798  0.00  0.00    +0.128 C 
BRANCH  24  27
ATOM     25  C   UNL     1      -1.312  -6.883   1.685  0.00  0.00    +0.299 C 
ATOM     26  O   UNL     1      -1.886  -7.528   0.832  0.00  0.00    -0.265 OA
ATOM     27  N   UNL     1      -0.705  -7.511   2.711  0.00  0.00    -0.306 N 
ATOM     28  H   UNL     1      -0.246  -6.995   3.393  0.00  0.00    +0.149 HD
BRANCH  25  30
ATOM     29  N   UNL     1      -1.886  -4.764   0.570  0.00  0.00    -0.277 N 
ATOM     30  C   UNL     1      -1.279  -5.392   1.596  0.00  0.00    +0.303 C 
ATOM     31  O   UNL     1      -0.705  -4.746   2.449  0.00  0.00    -0.265 OA
ATOM     32  H   UNL     1      -2.270  -5.281  -0.156  0.00  0.00    +0.155 HD
BRANCH  29  37
ATOM     33  C   UNL     1      -2.192   0.898   0.490  0.00  0.00    +0.044 C 
ATOM     34  C   UNL     1      -2.111  -0.606   0.511  0.00  0.00    -0.050 A 
ATOM     35  C   UNL     1      -0.880  -1.229   0.608  0.00  0.00    +0.008 A 
ATOM     36  C   UNL     1      -0.802  -2.608   0.627  0.00  0.00    -0.029 A 
ATOM     37  C   UNL     1      -1.961  -3.369   0.551  0.00  0.00    +0.040 A 
ATOM     38  C   UNL     1      -3.196  -2.740   0.455  0.00  0.00    -0.029 A 
ATOM     39  C   UNL     1      -3.268  -1.361   0.440  0.00  0.00    +0.008 A 
ATOM     40  C   UNL     1      -4.457  -3.562   0.371  0.00  0.00    +0.045 C 
ATOM     41  C   UNL     1       0.540  -3.286   0.731  0.00  0.00    +0.045 C 
ENDBRANCH  29  37
ENDBRANCH  25  30
ENDBRANCH  24  27
ENDBRANCH   1  24
TORSDOF 7
