REMARK  Name = ZINC39599024
REMARK  9 active torsions:
REMARK  status: ('A' for Active; 'I' for Inactive)
REMARK    1  A    between atoms: C_1  and  C_2
REMARK    2  A    between atoms: C_2  and  C_3
REMARK    3  A    between atoms: C_6  and  C_9
REMARK    4  A    between atoms: C_13  and  C_22
REMARK    5  A    between atoms: N_24  and  C_25
REMARK    6  A    between atoms: C_25  and  C_26
REMARK    7  A    between atoms: C_26  and  C_27
REMARK    8  A    between atoms: C_30  and  O_36
REMARK    9  A    between atoms: O_36  and  C_37
REMARK                            x       y       z     vdW  Elec       q    Type
REMARK                         _______ _______ _______ _____ _____    ______ ____
ROOT
ATOM      1  C   UNL     1      -5.394  -1.996   0.042  0.00  0.00    +0.247 C 
ATOM      2  O   UNL     1      -5.918  -2.309   1.093  0.00  0.00    -0.270 OA
ATOM      3  N   UNL     1      -6.071  -2.133  -1.115  0.00  0.00    -0.296 N 
ATOM      4  C   UNL     1      -5.565  -1.929  -2.493  0.00  0.00    +0.121 C 
ATOM      5  C   UNL     1      -6.220  -3.058  -3.320  0.00  0.00    +0.100 C 
ATOM      6  C   UNL     1      -7.484  -3.441  -2.531  0.00  0.00    -0.004 C 
ATOM      7  C   UNL     1      -7.489  -2.526  -1.297  0.00  0.00    +0.115 C 
ATOM      8  C   UNL     1      -7.414  -4.902  -2.097  0.00  0.00    -0.010 C 
ATOM      9  C   UNL     1      -8.706  -5.274  -1.364  0.00  0.00    -0.082 C 
ATOM     10  N   UNL     1      -9.854  -5.061  -2.254  0.00  0.00    +0.379 N 
ATOM     11  C   UNL     1      -9.968  -3.637  -2.592  0.00  0.00    -0.082 C 
ATOM     12  C   UNL     1      -8.729  -3.196  -3.377  0.00  0.00    -0.010 C 
ATOM     13  H   UNL     1      -9.726  -5.597  -3.100  0.00  0.00    -0.086 HD
ATOM     14  H   UNL     1     -10.697  -5.364  -1.791  0.00  0.00    -0.086 HD
ENDROOT
BRANCH   1  18
ATOM     15  C   UNL     1      -1.429  -0.473   0.015  0.00  0.00    -0.048 A 
ATOM     16  C   UNL     1      -1.849  -1.282   1.056  0.00  0.00    +0.004 A 
ATOM     17  C   UNL     1      -3.136  -1.780   1.071  0.00  0.00    +0.013 A 
ATOM     18  C   UNL     1      -4.014  -1.466   0.033  0.00  0.00    +0.037 A 
ATOM     19  C   UNL     1      -3.584  -0.649  -1.014  0.00  0.00    +0.013 A 
ATOM     20  C   UNL     1      -2.296  -0.154  -1.014  0.00  0.00    +0.004 A 
BRANCH  15  22
ATOM     21  C   UNL     1       0.013   1.412   0.735  0.00  0.00    +0.009 C 
ATOM     22  C   UNL     1      -0.022   0.067   0.006  0.00  0.00    +0.032 C 
ENDBRANCH  15  22
ENDBRANCH   1  18
BRANCH   5  23
ATOM     23  C   UNL     1      -6.587  -2.558  -4.693  0.00  0.00    +0.218 C 
ATOM     24  O   UNL     1      -6.792  -1.376  -4.873  0.00  0.00    -0.275 OA
ATOM     25  N   UNL     1      -6.689  -3.423  -5.721  0.00  0.00    -0.315 N 
ATOM     26  H   UNL     1      -6.525  -4.369  -5.577  0.00  0.00    +0.149 HD
BRANCH  25  27
ATOM     27  C   UNL     1      -7.045  -2.937  -7.056  0.00  0.00    +0.109 C 
BRANCH  27  28
ATOM     28  C   UNL     1      -7.092  -4.114  -8.032  0.00  0.00    +0.056 C 
BRANCH  28  29
ATOM     29  C   UNL     1      -7.459  -3.613  -9.405  0.00  0.00    -0.021 A 
ATOM     30  C   UNL     1      -6.541  -3.069 -10.409  0.00  0.00    +0.006 A 
ATOM     31  C   UNL     1      -5.162  -2.848 -10.442  0.00  0.00    +0.056 A 
ATOM     32  C   UNL     1      -4.586  -2.304 -11.573  0.00  0.00    +0.121 A 
ATOM     33  C   UNL     1      -5.373  -1.977 -12.674  0.00  0.00    +0.047 A 
ATOM     34  C   UNL     1      -6.734  -2.190 -12.652  0.00  0.00    +0.030 A 
ATOM     35  C   UNL     1      -7.333  -2.737 -11.523  0.00  0.00    +0.047 A 
ATOM     36  N   UNL     1      -8.636  -3.062 -11.205  0.00  0.00    -0.360 N 
ATOM     37  C   UNL     1      -8.689  -3.587  -9.943  0.00  0.00    +0.087 A 
ATOM     38  H   UNL     1      -9.399  -2.940 -11.791  0.00  0.00    +0.165 HD
BRANCH  32  39
ATOM     39  O   UNL     1      -3.244  -2.087 -11.611  0.00  0.00    -0.495 OA
ATOM     40  C   UNL     1      -2.713  -1.522 -12.811  0.00  0.00    +0.277 C 
ENDBRANCH  32  39
ENDBRANCH  28  29
ENDBRANCH  27  28
ENDBRANCH  25  27
ENDBRANCH   5  23
TORSDOF 7
