REMARK  Name = ZINC03885259
REMARK  3 active torsions:
REMARK  status: ('A' for Active; 'I' for Inactive)
REMARK    1  A    between atoms: C_4  and  C_7
REMARK    2  A    between atoms: N_8  and  S_9
REMARK    3  A    between atoms: S_9  and  C_12
REMARK                            x       y       z     vdW  Elec       q    Type
REMARK                         _______ _______ _______ _____ _____    ______ ____
ROOT
ATOM      1  C   UNL     1       3.700  -0.694  -0.131  0.00  0.00    +0.158 C 
ATOM      2  N   UNL     1       3.719  -1.975   0.052  0.00  0.00    -0.116 NA
ATOM      3 CL   UNL     1       5.189   0.178  -0.324  0.00  0.00    -0.060 Cl
ENDROOT
BRANCH   1   7
ATOM      4  C   UNL     1      -0.004   1.380  -0.258  0.00  0.00    +0.000 A 
ATOM      5  C   UNL     1       0.374   0.716   0.896  0.00  0.00    +0.001 A 
ATOM      6  C   UNL     1       1.576   0.040   0.944  0.00  0.00    +0.011 A 
ATOM      7  C   UNL     1       2.411   0.027  -0.175  0.00  0.00    +0.013 A 
ATOM      8  C   UNL     1       2.023   0.699  -1.335  0.00  0.00    +0.011 A 
ATOM      9  C   UNL     1       0.819   1.371  -1.370  0.00  0.00    +0.001 A 
ENDBRANCH   1   7
BRANCH   2  10
ATOM     10  S   UNL     1       2.301  -2.831   0.062  0.00  0.00    +0.106 S 
ATOM     11  O   UNL     1       1.573  -2.398   1.203  0.00  0.00    -0.146 OA
ATOM     12  O   UNL     1       1.771  -2.755  -1.254  0.00  0.00    -0.146 OA
BRANCH  10  13
ATOM     13  C   UNL     1       2.714  -4.521   0.341  0.00  0.00    +0.150 A 
ATOM     14  C   UNL     1       2.826  -5.190   1.515  0.00  0.00    +0.037 A 
ATOM     15  C   UNL     1       3.165  -6.530   1.493  0.00  0.00    +0.010 A 
ATOM     16  C   UNL     1       3.376  -7.135   0.299  0.00  0.00    +0.047 A 
ATOM     17  S   UNL     1       3.088  -5.798  -0.849  0.00  0.00    -0.076 S 
ENDBRANCH  10  13
ENDBRANCH   2  10
TORSDOF 3
