REMARK  Name = ZINC04873254
REMARK  4 active torsions:
REMARK  status: ('A' for Active; 'I' for Inactive)
REMARK    1  A    between atoms: C_1  and  C_2
REMARK    2  A    between atoms: C_9  and  C_11
REMARK    3  A    between atoms: C_24  and  C_27
REMARK    4  A    between atoms: C_31  and  N_33
REMARK                            x       y       z     vdW  Elec       q    Type
REMARK                         _______ _______ _______ _____ _____    ______ ____
ROOT
ATOM      1  C   UNL     1      -5.009   3.267   1.656  0.00  0.00    +0.037 A 
ATOM      2  C   UNL     1      -5.176   2.729   2.936  0.00  0.00    +0.015 A 
ATOM      3  C   UNL     1      -4.156   2.016   3.520  0.00  0.00    +0.024 A 
ATOM      4  C   UNL     1      -2.952   1.822   2.848  0.00  0.00    +0.031 A 
ATOM      5  C   UNL     1      -2.779   2.365   1.572  0.00  0.00    -0.019 A 
ATOM      6  C   UNL     1      -3.804   3.070   0.975  0.00  0.00    +0.019 A 
ATOM      7  C   UNL     1      -1.502   2.104   0.874  0.00  0.00    +0.049 C 
ATOM      8  C   UNL     1      -0.971   3.024  -0.164  0.00  0.00    -0.023 C 
ATOM      9  C   UNL     1       0.355   2.997  -0.117  0.00  0.00    -0.030 C 
ATOM     10  C   UNL     1       0.820   2.062   1.002  0.00  0.00    +0.033 C 
ATOM     11  C   UNL     1      -0.380   2.103   1.957  0.00  0.00    +0.029 C 
ATOM     12  C   UNL     1      -0.636   0.869   2.803  0.00  0.00    +0.105 C 
ATOM     13  N   UNL     1      -1.932   1.108   3.475  0.00  0.00    -0.336 N 
ATOM     14  H   UNL     1      -2.075   0.760   4.369  0.00  0.00    +0.147 HD
ENDROOT
BRANCH   1  22
ATOM     15  C   UNL     1      -8.251   5.011  -0.254  0.00  0.00    +0.028 C 
ATOM     16  C   UNL     1      -8.085   5.458   1.200  0.00  0.00    +0.073 C 
ATOM     17  C   UNL     1      -9.332   5.064   2.007  0.00  0.00    +0.022 C 
ATOM     18  C   UNL     1      -9.101   5.392   3.484  0.00  0.00    +0.003 C 
ATOM     19  C   UNL     1      -7.912   4.583   4.008  0.00  0.00    +0.019 C 
ATOM     20  C   UNL     1      -6.653   4.967   3.225  0.00  0.00    +0.108 C 
ATOM     21  N   UNL     1      -6.916   4.792   1.790  0.00  0.00    -0.295 N 
ATOM     22  C   UNL     1      -6.098   4.038   1.029  0.00  0.00    +0.247 C 
ATOM     23  O   UNL     1      -6.259   3.994  -0.176  0.00  0.00    -0.270 OA
ENDBRANCH   1  22
BRANCH  12  24
ATOM     24  C   UNL     1      -0.721  -0.354   1.927  0.00  0.00    -0.025 A 
ATOM     25  C   UNL     1      -1.944  -0.766   1.432  0.00  0.00    +0.005 A 
ATOM     26  C   UNL     1      -2.021  -1.885   0.624  0.00  0.00    +0.003 A 
ATOM     27  C   UNL     1      -0.877  -2.598   0.320  0.00  0.00    +0.033 A 
ATOM     28  C   UNL     1       0.346  -2.190   0.820  0.00  0.00    +0.127 A 
ATOM     29  C   UNL     1       0.424  -1.067   1.623  0.00  0.00    +0.038 A 
BRANCH  28  30
ATOM     30  N   UNL     1       1.571  -2.953   0.494  0.00  0.00    +0.056 N 
ATOM     31  O   UNL     1       2.648  -2.593   0.934  0.00  0.00    -0.126 OA
ATOM     32  O   UNL     1       1.502  -3.942  -0.214  0.00  0.00    -0.126 OA
ENDBRANCH  28  30
ENDBRANCH  12  24
TORSDOF 3
