REMARK  Name = ZINC39532740
REMARK  11 active torsions:
REMARK  status: ('A' for Active; 'I' for Inactive)
REMARK    1  A    between atoms: C_1  and  C_2
REMARK    2  A    between atoms: C_2  and  C_3
REMARK    3  A    between atoms: C_4  and  C_34
REMARK    4  A    between atoms: C_5  and  C_9
REMARK    5  A    between atoms: N_11  and  C_12
REMARK    6  A    between atoms: N_11  and  C_19
REMARK    7  A    between atoms: C_12  and  C_13
REMARK    8  A    between atoms: C_19  and  C_20
REMARK    9  A    between atoms: N_23  and  C_26
REMARK   10  A    between atoms: C_26  and  C_27
REMARK   11  A    between atoms: C_32  and  C_33
REMARK                            x       y       z     vdW  Elec       q    Type
REMARK                         _______ _______ _______ _____ _____    ______ ____
ROOT
ATOM      1  C   UNL     1       1.360  -0.409   4.484  0.00  0.00    +0.246 C 
ATOM      2  O   UNL     1       2.155   0.505   4.537  0.00  0.00    -0.273 OA
ATOM      3  N   UNL     1       0.534  -0.644   5.523  0.00  0.00    -0.297 N 
ENDROOT
BRANCH   1   6
ATOM      4  C   UNL     1       0.731  -0.503   1.223  0.00  0.00    +0.064 C 
ATOM      5  C   UNL     1       0.140  -0.866   2.363  0.00  0.00    -0.015 C 
ATOM      6  C   UNL     1       1.294  -1.282   3.258  0.00  0.00    +0.241 C 
ATOM      7  N   UNL     1       2.471  -1.069   2.399  0.00  0.00    -0.170 NA
ATOM      8  N   UNL     1       2.072  -0.650   1.310  0.00  0.00    -0.158 NA
ATOM      9  C   UNL     1      -1.332  -0.862   2.688  0.00  0.00    +0.044 C 
BRANCH   4  11
ATOM     10  C   UNL     1      -0.019   1.526   0.010  0.00  0.00    +0.010 C 
ATOM     11  C   UNL     1       0.002  -0.004   0.002  0.00  0.00    +0.054 C 
ENDBRANCH   4  11
ENDBRANCH   1   6
BRANCH   3  12
ATOM     12  C   UNL     1      -0.427  -1.748   5.460  0.00  0.00    +0.139 C 
BRANCH  12  13
ATOM     13  C   UNL     1       0.218  -3.018   6.017  0.00  0.00    +0.136 C 
ATOM     14  C   UNL     1      -0.744  -4.213   5.844  0.00  0.00    +0.035 C 
ATOM     15  C   UNL     1      -0.538  -4.997   7.169  0.00  0.00    +0.031 C 
ATOM     16  C   UNL     1      -0.286  -3.834   8.162  0.00  0.00    +0.160 C 
ATOM     17  O   UNL     1       0.470  -2.862   7.418  0.00  0.00    -0.375 OA
ENDBRANCH  12  13
ENDBRANCH   3  12
BRANCH   3  18
ATOM     18  C   UNL     1       0.598   0.205   6.716  0.00  0.00    +0.111 C 
BRANCH  18  19
ATOM     19  C   UNL     1      -0.360   1.387   6.553  0.00  0.00    +0.003 C 
ATOM     20  C   UNL     1       0.120   2.280   5.405  0.00  0.00    -0.014 C 
ATOM     21  C   UNL     1      -0.797   3.501   5.299  0.00  0.00    -0.078 C 
ATOM     22  N   UNL     1      -0.759   4.256   6.557  0.00  0.00    +0.382 N 
ATOM     23  C   UNL     1      -1.286   3.429   7.650  0.00  0.00    -0.078 C 
ATOM     24  C   UNL     1      -0.388   2.205   7.847  0.00  0.00    -0.014 C 
ATOM     25  H   UNL     1       0.193   4.517   6.763  0.00  0.00    -0.081 HD
BRANCH  22  26
ATOM     26  C   UNL     1      -1.579   5.468   6.424  0.00  0.00    -0.043 C 
BRANCH  26  27
ATOM     27  C   UNL     1      -1.444   6.305   7.670  0.00  0.00    -0.061 A 
ATOM     28  C   UNL     1      -2.425   6.259   8.643  0.00  0.00    +0.002 A 
ATOM     29  C   UNL     1      -2.301   7.027   9.785  0.00  0.00    +0.000 A 
ATOM     30  C   UNL     1      -1.196   7.841   9.955  0.00  0.00    +0.000 A 
ATOM     31  C   UNL     1      -0.215   7.886   8.982  0.00  0.00    +0.003 A 
ATOM     32  C   UNL     1      -0.337   7.114   7.842  0.00  0.00    -0.049 A 
ATOM     33  C   UNL     1       0.735   7.159   6.784  0.00  0.00    +0.044 C 
ENDBRANCH  26  27
ENDBRANCH  22  26
ENDBRANCH  18  19
ENDBRANCH   3  18
TORSDOF 8
