REMARK  Name = ZINC39757243
REMARK  11 active torsions:
REMARK  status: ('A' for Active; 'I' for Inactive)
REMARK    1  A    between atoms: C_1  and  C_2
REMARK    2  A    between atoms: C_7  and  N_8
REMARK    3  A    between atoms: C_9  and  C_11
REMARK    4  A    between atoms: C_11  and  C_13
REMARK    5  A    between atoms: C_11  and  S_14
REMARK    6  A    between atoms: S_14  and  C_15
REMARK    7  A    between atoms: C_18  and  C_21
REMARK    8  A    between atoms: N_19  and  C_20
REMARK    9  A    between atoms: C_21  and  C_23
REMARK   10  A    between atoms: C_21  and  N_24
REMARK   11  A    between atoms: C_25  and  C_27
REMARK                            x       y       z     vdW  Elec       q    Type
REMARK                         _______ _______ _______ _____ _____    ______ ____
ROOT
ATOM      1  C   UNL     1      -1.046  -0.007   7.559  0.00  0.00    +0.192 A 
ATOM      2  N   UNL     1      -0.771   1.275   7.626  0.00  0.00    -0.122 NA
ATOM      3  N   UNL     1      -1.043   1.720   8.800  0.00  0.00    -0.132 NA
ATOM      4  C   UNL     1      -1.504   0.757   9.547  0.00  0.00    +0.154 A 
ATOM      5  N   UNL     1      -1.528  -0.376   8.782  0.00  0.00    -0.308 N 
ATOM      6  C   UNL     1      -1.974  -1.710   9.191  0.00  0.00    +0.152 C 
ENDROOT
BRANCH   4   7
ATOM      7  C   UNL     1      -1.936   0.872  10.986  0.00  0.00    +0.138 C 
ATOM      8  C   UNL     1      -3.294   1.574  11.056  0.00  0.00    +0.036 C 
BRANCH   7   9
ATOM      9  N   UNL     1      -0.945   1.651  11.733  0.00  0.00    -0.302 N 
ATOM     10  C   UNL     1      -0.819   1.482  13.065  0.00  0.00    +0.245 C 
ATOM     11  O   UNL     1      -1.528   0.683  13.645  0.00  0.00    -0.270 OA
ATOM     12  H   UNL     1      -0.380   2.289  11.270  0.00  0.00    +0.150 HD
BRANCH  10  13
ATOM     13  C   UNL     1       0.180   2.268  13.818  0.00  0.00    +0.038 A 
ATOM     14  C   UNL     1       0.992   3.190  13.154  0.00  0.00    +0.014 A 
ATOM     15  C   UNL     1       1.923   3.921  13.862  0.00  0.00    +0.022 A 
ATOM     16  C   UNL     1       2.055   3.741  15.229  0.00  0.00    +0.059 A 
ATOM     17  C   UNL     1       1.253   2.827  15.894  0.00  0.00    +0.060 A 
ATOM     18  C   UNL     1       0.313   2.094  15.197  0.00  0.00    +0.034 A 
ATOM     19 CL   UNL     1       1.425   2.608  17.607  0.00  0.00    -0.082 Cl
ATOM     20 CL   UNL     1       3.230   4.663  16.113  0.00  0.00    -0.082 Cl
ENDBRANCH  10  13
ENDBRANCH   7   9
ENDBRANCH   4   7
BRANCH   1  21
ATOM     21  S   UNL     1      -0.839  -1.051   6.155  0.00  0.00    -0.074 S 
BRANCH  21  22
ATOM     22  C   UNL     1      -0.168   0.052   4.882  0.00  0.00    +0.137 C 
ATOM     23  C   UNL     1       1.218   0.541   5.310  0.00  0.00    +0.029 C 
BRANCH  22  25
ATOM     24  N   UNL     1       0.025  -0.015   2.417  0.00  0.00    -0.284 N 
ATOM     25  C   UNL     1      -0.056  -0.694   3.578  0.00  0.00    +0.230 C 
ATOM     26  O   UNL     1      -0.040  -1.907   3.573  0.00  0.00    -0.274 OA
ATOM     27  H   UNL     1       0.078   0.954   2.425  0.00  0.00    +0.155 HD
BRANCH  24  34
ATOM     28  C   UNL     1      -1.264   1.184   0.181  0.00  0.00    +0.045 C 
ATOM     29  C   UNL     1      -0.584  -0.158   0.084  0.00  0.00    -0.029 A 
ATOM     30  C   UNL     1      -0.568  -0.840  -1.117  0.00  0.00    +0.005 A 
ATOM     31  C   UNL     1       0.056  -2.071  -1.206  0.00  0.00    +0.000 A 
ATOM     32  C   UNL     1       0.667  -2.622  -0.095  0.00  0.00    +0.002 A 
ATOM     33  C   UNL     1       0.655  -1.945   1.108  0.00  0.00    +0.023 A 
ATOM     34  C   UNL     1       0.034  -0.706   1.201  0.00  0.00    +0.036 A 
ENDBRANCH  24  34
ENDBRANCH  22  25
ENDBRANCH  21  22
ENDBRANCH   1  21
TORSDOF 7
