REMARK  Name = ZINC04965803
REMARK  9 active torsions:
REMARK  status: ('A' for Active; 'I' for Inactive)
REMARK    1  A    between atoms: C_1  and  C_2
REMARK    2  A    between atoms: C_2  and  C_3
REMARK    3  A    between atoms: C_2  and  N_4
REMARK    4  A    between atoms: C_5  and  C_7
REMARK    5  A    between atoms: N_13  and  C_20
REMARK    6  A    between atoms: C_16  and  C_18
REMARK    7  A    between atoms: C_16  and  C_19
REMARK    8  A    between atoms: C_20  and  C_21
REMARK    9  A    between atoms: N_23  and  C_24
REMARK                            x       y       z     vdW  Elec       q    Type
REMARK                         _______ _______ _______ _____ _____    ______ ____
ROOT
ATOM      1  C   UNL     1       2.742  -1.042  -2.461  0.00  0.00    +0.039 A 
ATOM      2  C   UNL     1       2.008  -1.375  -3.603  0.00  0.00    +0.017 A 
ATOM      3  C   UNL     1       2.655  -1.828  -4.733  0.00  0.00    +0.048 A 
ATOM      4  C   UNL     1       4.035  -1.956  -4.739  0.00  0.00    +0.143 A 
ATOM      5  C   UNL     1       4.775  -1.625  -3.602  0.00  0.00    +0.079 A 
ATOM      6  C   UNL     1       4.135  -1.165  -2.468  0.00  0.00    +0.040 A 
ATOM      7  N   UNL     1       6.171  -1.763  -3.628  0.00  0.00    -0.256 N 
ATOM      8  C   UNL     1       6.793  -1.899  -4.820  0.00  0.00    +0.264 C 
ATOM      9  O   UNL     1       7.995  -2.050  -4.865  0.00  0.00    -0.271 OA
ATOM     10  C   UNL     1       5.985  -1.865  -6.092  0.00  0.00    +0.181 C 
ATOM     11  O   UNL     1       4.681  -2.401  -5.849  0.00  0.00    -0.475 OA
ATOM     12  C   UNL     1       6.687  -2.702  -7.163  0.00  0.00    +0.065 C 
ATOM     13  C   UNL     1       5.859  -0.420  -6.577  0.00  0.00    +0.065 C 
ENDROOT
BRANCH   1  15
ATOM     14  N   UNL     1       0.707  -0.439  -1.246  0.00  0.00    -0.309 N 
ATOM     15  C   UNL     1       2.049  -0.557  -1.252  0.00  0.00    +0.244 C 
ATOM     16  O   UNL     1       2.689  -0.264  -0.261  0.00  0.00    -0.270 OA
ATOM     17  H   UNL     1       0.196  -0.673  -2.037  0.00  0.00    +0.149 HD
BRANCH  14  19
ATOM     18  C   UNL     1       0.006   1.573  -0.045  0.00  0.00    +0.027 C 
ATOM     19  C   UNL     1       0.019   0.043  -0.046  0.00  0.00    +0.067 C 
ATOM     20  C   UNL     1      -1.420  -0.478  -0.039  0.00  0.00    +0.027 C 
ENDBRANCH  14  19
ENDBRANCH   1  15
BRANCH   7  21
ATOM     21  C   UNL     1       6.943  -1.757  -2.383  0.00  0.00    +0.209 C 
BRANCH  21  22
ATOM     22  C   UNL     1       7.071  -3.166  -1.865  0.00  0.00    +0.235 C 
ATOM     23  O   UNL     1       6.566  -4.085  -2.475  0.00  0.00    -0.274 OA
ATOM     24  N   UNL     1       7.745  -3.406  -0.722  0.00  0.00    -0.282 N 
ATOM     25  H   UNL     1       8.203  -2.681  -0.268  0.00  0.00    +0.155 HD
BRANCH  24  26
ATOM     26  C   UNL     1       7.785  -4.701  -0.191  0.00  0.00    +0.069 A 
ATOM     27  C   UNL     1       7.814  -5.800  -1.039  0.00  0.00    +0.026 A 
ATOM     28  C   UNL     1       7.854  -7.076  -0.512  0.00  0.00    +0.002 A 
ATOM     29  C   UNL     1       7.864  -7.261   0.859  0.00  0.00    +0.003 A 
ATOM     30  C   UNL     1       7.834  -6.170   1.707  0.00  0.00    +0.040 A 
ATOM     31  C   UNL     1       7.800  -4.889   1.187  0.00  0.00    +0.144 A 
ATOM     32  F   UNL     1       7.777  -3.822   2.015  0.00  0.00    -0.204 F 
ENDBRANCH  24  26
ENDBRANCH  21  22
ENDBRANCH   7  21
TORSDOF 5
