REMARK  Name = ZINC64711638
REMARK  13 active torsions:
REMARK  status: ('A' for Active; 'I' for Inactive)
REMARK    1  A    between atoms: C_1  and  C_2
REMARK    2  A    between atoms: C_2  and  C_3
REMARK    3  A    between atoms: C_2  and  O_21
REMARK    4  A    between atoms: C_3  and  O_5
REMARK    5  A    between atoms: O_5  and  C_6
REMARK    6  A    between atoms: C_6  and  C_7
REMARK    7  A    between atoms: C_12  and  O_13
REMARK    8  A    between atoms: O_13  and  C_14
REMARK    9  A    between atoms: C_14  and  C_15
REMARK   10  A    between atoms: C_15  and  O_16
REMARK   11  A    between atoms: O_16  and  C_17
REMARK   12  A    between atoms: O_21  and  C_22
REMARK   13  A    between atoms: C_22  and  C_23
REMARK                            x       y       z     vdW  Elec       q    Type
REMARK                         _______ _______ _______ _____ _____    ______ ____
ROOT
ATOM      1  C   UNL     1       4.075  -0.340  -2.631  0.00  0.00    +0.035 A 
ATOM      2  C   UNL     1       4.616   0.374  -1.579  0.00  0.00    +0.060 A 
ATOM      3  C   UNL     1       5.955   0.727  -1.595  0.00  0.00    +0.167 A 
ATOM      4  C   UNL     1       6.757   0.362  -2.674  0.00  0.00    +0.170 A 
ATOM      5  C   UNL     1       6.213  -0.354  -3.727  0.00  0.00    +0.095 A 
ATOM      6  C   UNL     1       4.872  -0.710  -3.704  0.00  0.00    +0.131 A 
ATOM      7  O   UNL     1       8.023   0.824  -2.453  0.00  0.00    -0.452 OA
ATOM      8  C   UNL     1       7.893   1.825  -1.426  0.00  0.00    +0.466 C 
ATOM      9  O   UNL     1       6.720   1.418  -0.698  0.00  0.00    -0.453 OA
ENDROOT
BRANCH   1  10
ATOM     10  C   UNL     1       2.617  -0.723  -2.610  0.00  0.00    +0.271 C 
BRANCH  10  11
ATOM     11  O   UNL     1       2.013  -0.232  -1.412  0.00  0.00    -0.458 OA
BRANCH  11  12
ATOM     12  C   UNL     1       0.707  -0.490  -1.238  0.00  0.00    +0.336 C 
ATOM     13  O   UNL     1       0.098  -1.112  -2.075  0.00  0.00    -0.248 OA
BRANCH  12  15
ATOM     14  C   UNL     1      -0.019   1.526   0.010  0.00  0.00    +0.050 C 
ATOM     15  C   UNL     1       0.002  -0.004   0.002  0.00  0.00    +0.223 C 
BRANCH  15  16
ATOM     16  O   UNL     1      -1.339  -0.499   0.012  0.00  0.00    -0.365 OA
BRANCH  16  17
ATOM     17  C   UNL     1      -1.871  -0.707   1.322  0.00  0.00    +0.164 C 
BRANCH  17  18
ATOM     18  C   UNL     1      -3.303  -1.234   1.212  0.00  0.00    +0.015 C 
ATOM     19  C   UNL     1      -4.424  -0.357   1.772  0.00  0.00    +0.006 C 
ATOM     20  C   UNL     1      -4.011  -1.633   2.508  0.00  0.00    +0.006 C 
ENDBRANCH  17  18
ENDBRANCH  16  17
ENDBRANCH  15  16
ENDBRANCH  12  15
ENDBRANCH  11  12
ENDBRANCH  10  11
ENDBRANCH   1  10
BRANCH   6  21
ATOM     21  O   UNL     1       4.339  -1.417  -4.735  0.00  0.00    -0.489 OA
BRANCH  21  22
ATOM     22  C   UNL     1       5.218  -1.764  -5.807  0.00  0.00    +0.257 C 
BRANCH  22  23
ATOM     23  C   UNL     1       4.445  -2.552  -6.867  0.00  0.00    +0.200 C 
BRANCH  23  24
ATOM     24  O   UNL     1       3.449  -1.711  -7.452  0.00  0.00    -0.380 OA
ATOM     25  C   UNL     1       2.665  -2.353  -8.460  0.00  0.00    +0.194 C 
ENDBRANCH  23  24
ENDBRANCH  22  23
ENDBRANCH  21  22
ENDBRANCH   6  21
TORSDOF 11
