REMARK  Name = ZINC20831086
REMARK  12 active torsions:
REMARK  status: ('A' for Active; 'I' for Inactive)
REMARK    1  A    between atoms: C_1  and  C_2
REMARK    2  A    between atoms: C_5  and  N_8
REMARK    3  A    between atoms: N_8  and  C_9
REMARK    4  A    between atoms: C_9  and  C_10
REMARK    5  A    between atoms: C_13  and  S_18
REMARK    6  A    between atoms: N_14  and  C_15
REMARK    7  A    between atoms: C_15  and  C_16
REMARK    8  A    between atoms: S_18  and  C_19
REMARK    9  A    between atoms: C_19  and  C_20
REMARK   10  A    between atoms: C_26  and  S_28
REMARK   11  A    between atoms: S_28  and  C_29
REMARK   12  A    between atoms: C_29  and  C_30
REMARK                            x       y       z     vdW  Elec       q    Type
REMARK                         _______ _______ _______ _____ _____    ______ ____
ROOT
ATOM      1  C   UNL     1      -0.447  -9.107  -0.042  0.00  0.00    +0.152 A 
ATOM      2  N   UNL     1       0.763  -8.625  -0.051  0.00  0.00    -0.132 NA
ATOM      3  N   UNL     1       0.727  -7.340  -0.049  0.00  0.00    -0.122 NA
ATOM      4  C   UNL     1      -0.519  -6.929  -0.029  0.00  0.00    +0.192 A 
ATOM      5  N   UNL     1      -1.308  -8.044  -0.028  0.00  0.00    -0.301 N 
ENDROOT
BRANCH   1   6
ATOM      6  C   UNL     1      -0.829 -10.565  -0.046  0.00  0.00    +0.178 C 
BRANCH   6   7
ATOM      7  N   UNL     1      -0.966 -11.030  -1.429  0.00  0.00    -0.337 N 
ATOM      8  H   UNL     1      -0.793 -10.334  -2.263  0.00  0.00    +0.147 HD
BRANCH   7  13
ATOM      9  C   UNL     1      -2.386 -16.418  -2.481  0.00  0.00    +0.044 C 
ATOM     10  C   UNL     1      -2.008 -14.986  -2.201  0.00  0.00    -0.050 A 
ATOM     11  C   UNL     1      -1.792 -14.112  -3.251  0.00  0.00    +0.005 A 
ATOM     12  C   UNL     1      -1.446 -12.799  -2.998  0.00  0.00    +0.023 A 
ATOM     13  C   UNL     1      -1.316 -12.357  -1.688  0.00  0.00    +0.027 A 
ATOM     14  C   UNL     1      -1.528 -13.239  -0.636  0.00  0.00    +0.023 A 
ATOM     15  C   UNL     1      -1.879 -14.549  -0.895  0.00  0.00    +0.005 A 
ENDBRANCH   7  13
ENDBRANCH   6   7
ENDBRANCH   1   6
BRANCH   5  16
ATOM     16  C   UNL     1      -2.772  -8.092  -0.013  0.00  0.00    +0.152 C 
BRANCH  16  17
ATOM     17  C   UNL     1      -3.288  -8.100  -1.429  0.00  0.00    -0.013 C 
ATOM     18  C   UNL     1      -4.093  -9.053  -1.828  0.00  0.00    +0.005 C 
ENDBRANCH  16  17
ENDBRANCH   5  16
BRANCH   4  19
ATOM     19  S   UNL     1      -1.071  -5.256  -0.015  0.00  0.00    -0.077 S 
BRANCH  19  20
ATOM     20  C   UNL     1       0.524  -4.400  -0.026  0.00  0.00    +0.173 C 
BRANCH  20  21
ATOM     21  C   UNL     1       0.294  -2.910  -0.016  0.00  0.00    +0.229 C 
ATOM     22  O   UNL     1      -0.836  -2.471  -0.003  0.00  0.00    -0.275 OA
ATOM     23  N   UNL     1       1.345  -2.067  -0.021  0.00  0.00    -0.263 N 
ATOM     24  C   UNL     1       1.133  -0.690  -0.013  0.00  0.00    +0.189 A 
ATOM     25  N   UNL     1       0.002  -0.004   0.002  0.00  0.00    -0.125 NA
ATOM     26  N   UNL     1      -0.015   1.257   0.009  0.00  0.00    -0.133 NA
ATOM     27  C   UNL     1       1.100   1.973   0.002  0.00  0.00    +0.160 A 
ATOM     28  S   UNL     1       2.314   0.656  -0.017  0.00  0.00    -0.024 S 
ATOM     29  H   UNL     1       2.370  -2.465  -0.033  0.00  0.00    +0.157 HD
BRANCH  27  30
ATOM     30  S   UNL     1       1.324   3.720   0.009  0.00  0.00    -0.088 S 
BRANCH  30  31
ATOM     31  C   UNL     1      -0.365   4.380   0.028  0.00  0.00    +0.171 C 
BRANCH  31  32
ATOM     32  C   UNL     1      -0.317   5.886   0.035  0.00  0.00    +0.221 C 
ATOM     33  O   UNL     1       0.752   6.458   0.028  0.00  0.00    -0.275 OA
ATOM     34  N   UNL     1      -1.462   6.597   0.050  0.00  0.00    -0.329 N 
ATOM     35  H   UNL     1      -1.426   7.697   0.055  0.00  0.00    +0.145 HD
ATOM     36  H   UNL     1      -2.431   6.078   0.057  0.00  0.00    +0.145 HD
ENDBRANCH  31  32
ENDBRANCH  30  31
ENDBRANCH  27  30
ENDBRANCH  20  21
ENDBRANCH  19  20
ENDBRANCH   4  19
TORSDOF 11
