REMARK  Name = ZINC54614815
REMARK  17 active torsions:
REMARK  status: ('A' for Active; 'I' for Inactive)
REMARK    1  A    between atoms: C_1  and  C_2
REMARK    2  A    between atoms: C_2  and  C_3
REMARK    3  A    between atoms: C_3  and  C_4
REMARK    4  A    between atoms: C_4  and  C_5
REMARK    5  A    between atoms: C_5  and  C_6
REMARK    6  A    between atoms: C_6  and  O_7
REMARK    7  A    between atoms: O_7  and  C_8
REMARK    8  A    between atoms: C_11  and  C_14
REMARK    9  A    between atoms: C_16  and  C_29
REMARK   10  A    between atoms: C_17  and  C_28
REMARK   11  A    between atoms: C_22  and  S_24
REMARK   12  A    between atoms: S_24  and  C_25
REMARK   13  A    between atoms: C_25  and  C_26
REMARK   14  A    between atoms: C_26  and  C_27
REMARK   15  A    between atoms: N_31  and  C_32
REMARK   16  A    between atoms: C_36  and  C_39
REMARK   17  A    between atoms: C_37  and  C_38
REMARK                            x       y       z     vdW  Elec       q    Type
REMARK                         _______ _______ _______ _____ _____    ______ ____
ROOT
ATOM      1  C   UNL     1      -4.789 -10.328  -0.002  0.00  0.00    +0.177 C 
ATOM      2  C   UNL     1      -5.557 -10.677   1.245  0.00  0.00    +0.060 C 
ATOM      3  C   UNL     1      -6.839 -11.070   1.229  0.00  0.00    +0.018 C 
ATOM      4  N   UNL     1      -7.551 -11.197   0.061  0.00  0.00    -0.287 N 
ATOM      5  C   UNL     1      -6.838 -11.162  -1.129  0.00  0.00    +0.219 A 
ATOM      6  N   UNL     1      -5.543 -10.762  -1.175  0.00  0.00    -0.220 N 
ATOM      7  N   UNL     1      -5.143 -10.858  -2.507  0.00  0.00    -0.141 NA
ATOM      8  C   UNL     1      -6.183 -11.292  -3.185  0.00  0.00    +0.210 A 
ATOM      9  N   UNL     1      -7.210 -11.472  -2.341  0.00  0.00    -0.187 NA
ATOM     10  C   UNL     1      -7.521 -11.384   2.535  0.00  0.00    +0.061 C 
ATOM     11  H   UNL     1      -8.515 -11.307   0.068  0.00  0.00    +0.155 HD
ENDROOT
BRANCH   1  15
ATOM     12  C   UNL     1      -4.195  -6.100  -0.175  0.00  0.00    +0.121 A 
ATOM     13  C   UNL     1      -3.103  -6.954  -0.145  0.00  0.00    +0.046 A 
ATOM     14  C   UNL     1      -3.297  -8.321  -0.089  0.00  0.00    +0.009 A 
ATOM     15  C   UNL     1      -4.580  -8.837  -0.063  0.00  0.00    -0.018 A 
ATOM     16  C   UNL     1      -5.670  -7.988  -0.094  0.00  0.00    +0.009 A 
ATOM     17  C   UNL     1      -5.481  -6.620  -0.144  0.00  0.00    +0.046 A 
BRANCH  12  18
ATOM     18  O   UNL     1      -4.006  -4.755  -0.230  0.00  0.00    -0.492 OA
BRANCH  18  19
ATOM     19  C   UNL     1      -2.655  -4.290  -0.260  0.00  0.00    +0.229 C 
BRANCH  19  20
ATOM     20  C   UNL     1      -2.643  -2.762  -0.321  0.00  0.00    +0.041 C 
BRANCH  20  21
ATOM     21  C   UNL     1      -1.197  -2.264  -0.353  0.00  0.00    +0.003 C 
BRANCH  21  22
ATOM     22  C   UNL     1      -1.185  -0.735  -0.414  0.00  0.00    -0.000 C 
BRANCH  22  24
ATOM     23  C   UNL     1       0.274   1.291  -0.506  0.00  0.00    +0.004 C 
ATOM     24  C   UNL     1       0.262  -0.238  -0.446  0.00  0.00    -0.003 C 
ENDBRANCH  22  24
ENDBRANCH  21  22
ENDBRANCH  20  21
ENDBRANCH  19  20
ENDBRANCH  18  19
ENDBRANCH  12  18
ENDBRANCH   1  15
BRANCH   2  25
ATOM     25  C   UNL     1      -4.896 -10.585   2.492  0.00  0.00    +0.248 C 
ATOM     26  O   UNL     1      -4.152 -11.479   2.854  0.00  0.00    -0.270 OA
ATOM     27  N   UNL     1      -5.088  -9.509   3.279  0.00  0.00    -0.281 N 
ATOM     28  H   UNL     1      -5.729  -8.828   3.022  0.00  0.00    +0.155 HD
BRANCH  27  29
ATOM     29  C   UNL     1      -4.364  -9.373   4.468  0.00  0.00    +0.037 A 
ATOM     30  C   UNL     1      -4.037 -10.498   5.216  0.00  0.00    +0.023 A 
ATOM     31  C   UNL     1      -3.322 -10.361   6.389  0.00  0.00    +0.002 A 
ATOM     32  C   UNL     1      -2.933  -9.106   6.821  0.00  0.00    +0.004 A 
ATOM     33  C   UNL     1      -3.257  -7.985   6.079  0.00  0.00    -0.046 A 
ATOM     34  C   UNL     1      -3.966  -8.115   4.901  0.00  0.00    -0.026 A 
ATOM     35  C   UNL     1      -4.314  -6.894   4.090  0.00  0.00    +0.046 C 
ATOM     36  C   UNL     1      -2.830  -6.619   6.553  0.00  0.00    +0.044 C 
ENDBRANCH  27  29
ENDBRANCH   2  25
BRANCH   8  37
ATOM     37  S   UNL     1      -6.222 -11.587  -4.922  0.00  0.00    -0.084 S 
BRANCH  37  38
ATOM     38  C   UNL     1      -7.914 -12.163  -5.231  0.00  0.00    +0.077 C 
BRANCH  38  39
ATOM     39  C   UNL     1      -8.087 -12.461  -6.722  0.00  0.00    +0.008 C 
ATOM     40  C   UNL     1      -9.514 -12.947  -6.983  0.00  0.00    +0.004 C 
ENDBRANCH  38  39
ENDBRANCH  37  38
ENDBRANCH   8  37
TORSDOF 12
