REMARK  Name = ZINC66597528
REMARK  9 active torsions:
REMARK  status: ('A' for Active; 'I' for Inactive)
REMARK    1  A    between atoms: C_1  and  C_2
REMARK    2  A    between atoms: C_5  and  C_9
REMARK    3  A    between atoms: C_6  and  C_8
REMARK    4  A    between atoms: C_9  and  C_10
REMARK    5  A    between atoms: C_10  and  C_12
REMARK    6  A    between atoms: C_10  and  N_13
REMARK    7  A    between atoms: N_16  and  C_17
REMARK    8  A    between atoms: C_17  and  C_19
REMARK    9  A    between atoms: C_17  and  C_20
REMARK                            x       y       z     vdW  Elec       q    Type
REMARK                         _______ _______ _______ _____ _____    ______ ____
ROOT
ATOM      1  N   UNL     1      -2.601  -4.319   1.760  0.00  0.00    -0.297 N 
ATOM      2  C   UNL     1      -3.903  -3.970   1.735  0.00  0.00    +0.300 C 
ATOM      3  O   UNL     1      -4.570  -4.182   0.741  0.00  0.00    -0.253 OA
ATOM      4  N   UNL     1      -4.465  -3.387   2.812  0.00  0.00    -0.293 N 
ATOM      5  H   UNL     1      -2.069  -4.150   2.553  0.00  0.00    +0.151 HD
ATOM      6  H   UNL     1      -3.933  -3.218   3.606  0.00  0.00    +0.151 HD
ENDROOT
BRANCH   1   7
ATOM      7  C   UNL     1      -1.990  -4.953   0.589  0.00  0.00    +0.076 C 
ATOM      8  C   UNL     1      -2.220  -6.464   0.649  0.00  0.00    +0.028 C 
BRANCH   7   9
ATOM      9  C   UNL     1      -0.487  -4.665   0.580  0.00  0.00    +0.057 C 
BRANCH   9  14
ATOM     10  C   UNL     1       0.388   1.001  -0.143  0.00  0.00    +0.044 C 
ATOM     11  C   UNL     1       0.160  -0.477   0.045  0.00  0.00    -0.050 A 
ATOM     12  C   UNL     1       0.246  -1.034   1.308  0.00  0.00    +0.003 A 
ATOM     13  C   UNL     1       0.037  -2.389   1.480  0.00  0.00    +0.004 A 
ATOM     14  C   UNL     1      -0.260  -3.187   0.391  0.00  0.00    -0.043 A 
ATOM     15  C   UNL     1      -0.347  -2.630  -0.871  0.00  0.00    -0.047 A 
ATOM     16  C   UNL     1      -0.142  -1.274  -1.043  0.00  0.00    +0.007 A 
ATOM     17  C   UNL     1      -0.670  -3.500  -2.058  0.00  0.00    +0.044 C 
ENDBRANCH   9  14
ENDBRANCH   7   9
ENDBRANCH   1   7
BRANCH   4  18
ATOM     18  C   UNL     1      -5.880  -3.008   2.785  0.00  0.00    +0.102 C 
ATOM     19  C   UNL     1      -6.026  -1.627   2.144  0.00  0.00    +0.033 C 
BRANCH  18  20
ATOM     20  C   UNL     1      -6.416  -2.967   4.193  0.00  0.00    -0.027 A 
ATOM     21  C   UNL     1      -5.644  -2.445   5.214  0.00  0.00    +0.007 A 
ATOM     22  C   UNL     1      -6.128  -2.405   6.505  0.00  0.00    +0.024 A 
ATOM     23  C   UNL     1      -7.403  -2.892   6.789  0.00  0.00    +0.037 A 
ATOM     24  C   UNL     1      -8.169  -3.413   5.755  0.00  0.00    -0.017 A 
ATOM     25  C   UNL     1      -7.685  -3.448   4.466  0.00  0.00    +0.011 A 
ATOM     26  C   UNL     1      -9.477  -3.851   6.373  0.00  0.00    +0.133 C 
ATOM     27  C   UNL     1      -9.324  -3.507   7.839  0.00  0.00    +0.222 C 
ATOM     28  O   UNL     1     -10.147  -3.689   8.711  0.00  0.00    -0.275 OA
ATOM     29  N   UNL     1      -8.106  -2.961   7.992  0.00  0.00    -0.285 N 
ATOM     30  H   UNL     1      -7.756  -2.650   8.842  0.00  0.00    +0.155 HD
ENDBRANCH  18  20
ENDBRANCH   4  18
TORSDOF 5
