REMARK  Name = ZINC08667321
REMARK  8 active torsions:
REMARK  status: ('A' for Active; 'I' for Inactive)
REMARK    1  A    between atoms: C_1  and  N_2
REMARK    2  A    between atoms: N_7  and  C_10
REMARK    3  A    between atoms: N_11  and  C_14
REMARK    4  A    between atoms: C_14  and  C_15
REMARK    5  A    between atoms: C_15  and  N_51
REMARK    6  A    between atoms: C_16  and  C_18
REMARK    7  A    between atoms: C_16  and  C_24
REMARK    8  A    between atoms: C_16  and  N_51
REMARK                            x       y       z     vdW  Elec       q    Type
REMARK                         _______ _______ _______ _____ _____    ______ ____
ROOT
ATOM      1  N   UNL     1      -0.721   1.581  -1.188  0.00  0.00    +0.387 N 
ATOM      2  H   UNL     1      -1.095   2.518  -0.995  0.00  0.00    -0.084 HD
ATOM      3  H   UNL     1      -0.063   1.630  -1.974  0.00  0.00    -0.084 HD
ENDROOT
BRANCH   1   4
ATOM      4  C   UNL     1      -1.831   0.676  -1.537  0.00  0.00    -0.059 C 
BRANCH   4   5
ATOM      5  C   UNL     1      -2.546   1.214  -2.778  0.00  0.00    +0.104 C 
BRANCH   5  16
ATOM      6  C   UNL     1      -7.712  -1.961  -3.548  0.00  0.00    +0.155 C 
ATOM      7  N   UNL     1      -6.954  -0.886  -2.902  0.00  0.00    -0.280 N 
ATOM      8  C   UNL     1      -5.626  -0.678  -3.237  0.00  0.00    +0.168 A 
ATOM      9  C   UNL     1      -4.927   0.343  -2.607  0.00  0.00    +0.151 A 
ATOM     10  C   UNL     1      -5.591   1.144  -1.653  0.00  0.00    +0.282 A 
ATOM     11  O   UNL     1      -5.001   2.049  -1.090  0.00  0.00    -0.265 OA
ATOM     12  N   UNL     1      -6.886   0.892  -1.368  0.00  0.00    -0.262 N 
ATOM     13  C   UNL     1      -7.548  -0.103  -1.982  0.00  0.00    +0.333 A 
ATOM     14  O   UNL     1      -8.715  -0.300  -1.701  0.00  0.00    -0.246 OA
ATOM     15  C   UNL     1      -7.579   1.716  -0.375  0.00  0.00    +0.157 C 
ATOM     16  N   UNL     1      -3.650   0.320  -3.132  0.00  0.00    -0.326 N 
ATOM     17  C   UNL     1      -3.612  -0.685  -4.029  0.00  0.00    +0.202 A 
ATOM     18  N   UNL     1      -4.781  -1.270  -4.086  0.00  0.00    -0.218 NA
ENDBRANCH   5  16
ENDBRANCH   4   5
ENDBRANCH   1   4
BRANCH   1  19
ATOM     19  C   UNL     1      -0.013   1.086   0.008  0.00  0.00    -0.010 C 
BRANCH  19  20
ATOM     20  C   UNL     1       1.401   1.607  -0.003  0.00  0.00    -0.057 A 
ATOM     21  C   UNL     1       1.657   2.902  -0.413  0.00  0.00    +0.003 A 
ATOM     22  C   UNL     1       2.953   3.383  -0.418  0.00  0.00    +0.015 A 
ATOM     23  C   UNL     1       3.995   2.564  -0.023  0.00  0.00    +0.018 A 
ATOM     24  C   UNL     1       3.740   1.267   0.382  0.00  0.00    +0.015 A 
ATOM     25  C   UNL     1       2.443   0.789   0.393  0.00  0.00    +0.003 A 
ATOM     26 BR   UNL     1       5.769   3.218  -0.038  0.00  0.00    -0.050 Br
ENDBRANCH  19  20
BRANCH  19  27
ATOM     27  C   UNL     1      -0.718   1.572   1.248  0.00  0.00    -0.057 A 
ATOM     28  C   UNL     1      -1.223   2.858   1.297  0.00  0.00    +0.002 A 
ATOM     29  C   UNL     1      -1.874   3.302   2.432  0.00  0.00    +0.000 A 
ATOM     30  C   UNL     1      -2.012   2.463   3.523  0.00  0.00    +0.000 A 
ATOM     31  C   UNL     1      -1.502   1.179   3.476  0.00  0.00    +0.000 A 
ATOM     32  C   UNL     1      -0.855   0.734   2.339  0.00  0.00    +0.002 A 
ENDBRANCH  19  27
ENDBRANCH   1  19
TORSDOF 6
