REMARK  Name = ZINC49519613
REMARK  2 active torsions:
REMARK  status: ('A' for Active; 'I' for Inactive)
REMARK    1  A    between atoms: C_3  and  C_6
REMARK    2  A    between atoms: C_9  and  C_14
REMARK                            x       y       z     vdW  Elec       q    Type
REMARK                         _______ _______ _______ _____ _____    ______ ____
ROOT
ATOM      1  C   UNL     1       3.724   1.666  -0.032  0.00  0.00    +0.056 A 
ATOM      2  C   UNL     1       4.041   3.019  -0.019  0.00  0.00    +0.028 A 
ATOM      3  C   UNL     1       5.367   3.417  -0.027  0.00  0.00    +0.020 A 
ATOM      4  C   UNL     1       6.372   2.443  -0.049  0.00  0.00    +0.101 A 
ATOM      5  C   UNL     1       6.010   1.074  -0.062  0.00  0.00    +0.261 A 
ATOM      6  O   UNL     1       6.875   0.216  -0.080  0.00  0.00    -0.267 OA
ATOM      7  N   UNL     1       4.711   0.718  -0.048  0.00  0.00    -0.321 N 
ATOM      8  H   UNL     1       4.472  -0.222  -0.053  0.00  0.00    +0.169 HD
ENDROOT
BRANCH   4   9
ATOM      9  C   UNL     1       7.785   2.836  -0.058  0.00  0.00    +0.255 C 
ATOM     10  O   UNL     1       8.653   1.987   0.019  0.00  0.00    -0.270 OA
ATOM     11  N   UNL     1       8.122   4.138  -0.151  0.00  0.00    -0.259 N 
ATOM     12  C   UNL     1       9.457   4.504  -0.267  0.00  0.00    +0.188 A 
ATOM     13  N   UNL     1      10.547   3.750  -0.312  0.00  0.00    -0.126 NA
ATOM     14  N   UNL     1      11.699   4.253  -0.421  0.00  0.00    -0.148 NA
ATOM     15  C   UNL     1      11.893   5.554  -0.497  0.00  0.00    +0.183 A 
ATOM     16  S   UNL     1      10.199   6.128  -0.407  0.00  0.00    -0.039 S 
ATOM     17  H   UNL     1       7.432   4.820  -0.137  0.00  0.00    +0.157 HD
ENDBRANCH   4   9
BRANCH   1  20
ATOM     18  C   UNL     1      -0.016   1.351  -0.003  0.00  0.00    +0.008 A 
ATOM     19  C   UNL     1       1.176   2.035  -0.007  0.00  0.00    +0.017 A 
ATOM     20  C   UNL     1       2.321   1.251  -0.023  0.00  0.00    +0.036 A 
ATOM     21  S   UNL     1       1.636  -0.395  -0.031  0.00  0.00    -0.095 S 
ATOM     22  C   UNL     1       0.002  -0.005  -0.014  0.00  0.00    +0.046 A 
ENDBRANCH   1  20
TORSDOF 2
