REMARK  Name = ZINC39455166
REMARK  12 active torsions:
REMARK  status: ('A' for Active; 'I' for Inactive)
REMARK    1  A    between atoms: C_1  and  C_2
REMARK    2  A    between atoms: C_4  and  C_9
REMARK    3  A    between atoms: C_5  and  C_8
REMARK    4  A    between atoms: C_9  and  C_10
REMARK    5  A    between atoms: C_10  and  N_11
REMARK    6  A    between atoms: N_11  and  C_12
REMARK    7  A    between atoms: N_11  and  C_13
REMARK    8  A    between atoms: C_13  and  C_14
REMARK    9  A    between atoms: N_16  and  C_27
REMARK   10  A    between atoms: C_18  and  C_20
REMARK   11  A    between atoms: C_30  and  O_33
REMARK   12  A    between atoms: O_33  and  C_34
REMARK                            x       y       z     vdW  Elec       q    Type
REMARK                         _______ _______ _______ _____ _____    ______ ____
ROOT
ATOM      1  C   UNL     1      -2.365  -1.835  -6.355  0.00  0.00    -0.048 C 
ATOM      2  C   UNL     1      -1.915  -2.436  -7.438  0.00  0.00    +0.093 C 
ATOM      3  N   UNL     1      -2.502  -1.933  -8.583  0.00  0.00    -0.242 N 
ATOM      4  N   UNL     1      -3.395  -0.945  -8.283  0.00  0.00    -0.225 NA
ATOM      5  C   UNL     1      -3.380  -0.810  -6.812  0.00  0.00    +0.129 C 
ATOM      6  H   UNL     1      -4.320  -1.181  -8.611  0.00  0.00    +0.146 HD
ENDROOT
BRANCH   5   7
ATOM      7  C   UNL     1      -2.942   0.577  -6.418  0.00  0.00    -0.022 A 
ATOM      8  C   UNL     1      -2.001   1.247  -7.178  0.00  0.00    +0.006 A 
ATOM      9  C   UNL     1      -1.598   2.519  -6.817  0.00  0.00    +0.003 A 
ATOM     10  C   UNL     1      -2.136   3.123  -5.697  0.00  0.00    +0.038 A 
ATOM     11  C   UNL     1      -3.079   2.454  -4.935  0.00  0.00    +0.124 A 
ATOM     12  C   UNL     1      -3.486   1.182  -5.301  0.00  0.00    +0.044 A 
ATOM     13  F   UNL     1      -3.605   3.043  -3.839  0.00  0.00    -0.205 F 
ENDBRANCH   5   7
BRANCH   3  14
ATOM     14  C   UNL     1      -2.219  -2.378  -9.879  0.00  0.00    +0.050 A 
ATOM     15  C   UNL     1      -2.861  -1.801 -10.967  0.00  0.00    +0.028 A 
ATOM     16  C   UNL     1      -2.581  -2.240 -12.246  0.00  0.00    +0.047 A 
ATOM     17  C   UNL     1      -1.658  -3.257 -12.444  0.00  0.00    +0.120 A 
ATOM     18  C   UNL     1      -1.016  -3.833 -11.358  0.00  0.00    +0.047 A 
ATOM     19  C   UNL     1      -1.291  -3.392 -10.079  0.00  0.00    +0.028 A 
BRANCH  17  20
ATOM     20  O   UNL     1      -1.383  -3.689 -13.704  0.00  0.00    -0.495 OA
ATOM     21  C   UNL     1      -0.423  -4.740 -13.834  0.00  0.00    +0.277 C 
ENDBRANCH  17  20
ENDBRANCH   3  14
BRANCH   1  22
ATOM     22  C   UNL     1      -1.953  -2.119  -4.933  0.00  0.00    -0.045 C 
BRANCH  22  23
ATOM     23  N   UNL     1      -0.895  -1.182  -4.533  0.00  0.00    +0.381 N 
ATOM     24  C   UNL     1       0.307  -1.425  -5.342  0.00  0.00    -0.096 C 
ATOM     25  H   UNL     1      -1.212  -0.235  -4.679  0.00  0.00    -0.082 HD
BRANCH  23  26
ATOM     26  C   UNL     1      -0.577  -1.379  -3.113  0.00  0.00    -0.074 C 
BRANCH  26  27
ATOM     27  C   UNL     1       0.433  -0.322  -2.664  0.00  0.00    +0.016 C 
BRANCH  27  30
ATOM     28  C   UNL     1      -0.019   1.526   0.010  0.00  0.00    +0.039 C 
ATOM     29  C   UNL     1       0.002  -0.004   0.002  0.00  0.00    +0.153 C 
ATOM     30  C   UNL     1       0.759  -0.524  -1.207  0.00  0.00    -0.023 C 
ATOM     31  C   UNL     1       1.780  -1.203  -0.679  0.00  0.00    +0.061 C 
ATOM     32  N   UNL     1       1.738  -1.160   0.671  0.00  0.00    -0.159 NA
ATOM     33  N   UNL     1       0.787  -0.521   1.136  0.00  0.00    -0.180 NA
ATOM     34  C   UNL     1       2.837  -1.919  -1.480  0.00  0.00    +0.067 C 
ENDBRANCH  27  30
ENDBRANCH  26  27
ENDBRANCH  23  26
ENDBRANCH  22  23
ENDBRANCH   1  22
TORSDOF 8
