REMARK  Name = ZINC33022307
REMARK  7 active torsions:
REMARK  status: ('A' for Active; 'I' for Inactive)
REMARK    1  A    between atoms: C_4  and  C_7
REMARK    2  A    between atoms: C_7  and  N_8
REMARK    3  A    between atoms: C_14  and  C_17
REMARK    4  A    between atoms: C_24  and  S_25
REMARK    5  A    between atoms: S_25  and  C_26
REMARK    6  A    between atoms: C_26  and  C_27
REMARK    7  A    between atoms: N_29  and  C_30
REMARK                            x       y       z     vdW  Elec       q    Type
REMARK                         _______ _______ _______ _____ _____    ______ ____
ROOT
ATOM      1  N   UNL     1       9.662   2.805   1.506  0.00  0.00    -0.282 N 
ATOM      2  C   UNL     1      10.890   2.726   0.951  0.00  0.00    +0.279 A 
ATOM      3  O   UNL     1      11.855   3.236   1.496  0.00  0.00    -0.265 OA
ATOM      4  C   UNL     1      11.034   2.043  -0.271  0.00  0.00    +0.131 A 
ATOM      5  C   UNL     1       9.898   1.473  -0.862  0.00  0.00    +0.097 A 
ATOM      6  C   UNL     1      10.322   0.860  -2.057  0.00  0.00    +0.056 A 
ATOM      7  C   UNL     1      11.665   1.058  -2.174  0.00  0.00    +0.049 A 
ATOM      8  N   UNL     1      12.108   1.776  -1.095  0.00  0.00    -0.349 N 
ATOM      9  H   UNL     1      13.112   2.133  -0.823  0.00  0.00    +0.166 HD
ATOM     10  N   UNL     1       8.698   1.587  -0.245  0.00  0.00    -0.221 NA
ATOM     11  C   UNL     1       8.585   2.233   0.892  0.00  0.00    +0.173 A 
ENDROOT
BRANCH   7  12
ATOM     12  C   UNL     1      12.509   0.576  -3.288  0.00  0.00    -0.002 A 
ATOM     13  C   UNL     1      13.877   0.848  -3.300  0.00  0.00    +0.010 A 
ATOM     14  C   UNL     1      14.660   0.391  -4.340  0.00  0.00    +0.001 A 
ATOM     15  C   UNL     1      14.089  -0.327  -5.375  0.00  0.00    +0.000 A 
ATOM     16  C   UNL     1      12.732  -0.596  -5.373  0.00  0.00    +0.001 A 
ATOM     17  C   UNL     1      11.939  -0.149  -4.336  0.00  0.00    +0.010 A 
ENDBRANCH   7  12
BRANCH   1  18
ATOM     18  C   UNL     1       9.484   3.511   2.778  0.00  0.00    +0.162 C 
BRANCH  18  22
ATOM     19  C   UNL     1       9.991   0.768   6.013  0.00  0.00    +0.000 A 
ATOM     20  C   UNL     1      11.080   1.459   5.516  0.00  0.00    +0.000 A 
ATOM     21  C   UNL     1      10.916   2.347   4.469  0.00  0.00    +0.005 A 
ATOM     22  C   UNL     1       9.663   2.543   3.919  0.00  0.00    -0.028 A 
ATOM     23  C   UNL     1       8.573   1.855   4.419  0.00  0.00    +0.005 A 
ATOM     24  C   UNL     1       8.738   0.964   5.463  0.00  0.00    +0.000 A 
ENDBRANCH  18  22
ENDBRANCH   1  18
BRANCH  11  25
ATOM     25  S   UNL     1       7.000   2.360   1.651  0.00  0.00    -0.078 S 
BRANCH  25  26
ATOM     26  C   UNL     1       6.000   1.457   0.442  0.00  0.00    +0.173 C 
BRANCH  26  27
ATOM     27  C   UNL     1       4.563   1.435   0.895  0.00  0.00    +0.224 C 
ATOM     28  O   UNL     1       4.245   1.976   1.933  0.00  0.00    -0.275 OA
ATOM     29  N   UNL     1       3.630   0.814   0.146  0.00  0.00    -0.312 N 
ATOM     30  H   UNL     1       3.917   0.323  -0.795  0.00  0.00    +0.149 HD
BRANCH  29  31
ATOM     31  C   UNL     1       2.232   0.792   0.586  0.00  0.00    +0.073 C 
ATOM     32  C   UNL     1       1.453   1.995  -0.001  0.00  0.00    +0.022 C 
ATOM     33  C   UNL     1      -0.019   1.534   0.011  0.00  0.00    +0.002 C 
ATOM     34  C   UNL     1       0.002  -0.004   0.002  0.00  0.00    +0.002 C 
ATOM     35  C   UNL     1       1.486  -0.425  -0.014  0.00  0.00    +0.022 C 
ENDBRANCH  29  31
ENDBRANCH  26  27
ENDBRANCH  25  26
ENDBRANCH  11  25
TORSDOF 7
