REMARK  Name = ZINC15841680
REMARK  6 active torsions:
REMARK  status: ('A' for Active; 'I' for Inactive)
REMARK    1  A    between atoms: C_1  and  C_2
REMARK    2  A    between atoms: C_2  and  C_3
REMARK    3  A    between atoms: C_3  and  C_28
REMARK    4  A    between atoms: N_15  and  C_20
REMARK    5  A    between atoms: C_23  and  O_26
REMARK    6  A    between atoms: O_26  and  C_27
REMARK                            x       y       z     vdW  Elec       q    Type
REMARK                         _______ _______ _______ _____ _____    ______ ____
ROOT
ATOM      1  C   UNL     1      -0.892   0.832   2.429  0.00  0.00    +0.004 C 
ATOM      2  C   UNL     1      -0.328   2.251   2.414  0.00  0.00    +0.047 C 
ATOM      3  C   UNL     1      -1.344   3.223   2.950  0.00  0.00    -0.037 A 
ATOM      4  C   UNL     1      -0.947   4.319   3.687  0.00  0.00    +0.004 A 
ATOM      5  C   UNL     1      -1.891   5.210   4.168  0.00  0.00    +0.000 A 
ATOM      6  C   UNL     1      -3.237   5.011   3.914  0.00  0.00    +0.001 A 
ATOM      7  C   UNL     1      -3.649   3.917   3.180  0.00  0.00    +0.010 A 
ATOM      8  C   UNL     1      -2.703   3.016   2.694  0.00  0.00    +0.002 A 
ATOM      9  C   UNL     1      -3.111   1.836   1.908  0.00  0.00    +0.060 A 
ATOM     10  C   UNL     1      -2.243   0.792   1.771  0.00  0.00    +0.048 A 
ATOM     11  C   UNL     1      -2.634  -0.323   1.002  0.00  0.00    +0.265 A 
ATOM     12  O   UNL     1      -1.876  -1.266   0.858  0.00  0.00    -0.267 OA
ATOM     13  N   UNL     1      -3.854  -0.336   0.428  0.00  0.00    -0.229 N 
ATOM     14  C   UNL     1      -4.697   0.700   0.582  0.00  0.00    +0.334 A 
ATOM     15  O   UNL     1      -5.793   0.663   0.057  0.00  0.00    -0.246 OA
ATOM     16  N   UNL     1      -4.347   1.779   1.309  0.00  0.00    -0.306 N 
ATOM     17  H   UNL     1      -4.969   2.517   1.410  0.00  0.00    +0.170 HD
ATOM     18  C   UNL     1       0.062  -0.097   1.677  0.00  0.00    +0.016 C 
ENDROOT
BRANCH  13  19
ATOM     19  C   UNL     1      -4.247  -1.442  -0.339  0.00  0.00    +0.055 A 
ATOM     20  C   UNL     1      -3.951  -1.489  -1.694  0.00  0.00    +0.030 A 
ATOM     21  C   UNL     1      -4.333  -2.581  -2.448  0.00  0.00    +0.047 A 
ATOM     22  C   UNL     1      -5.024  -3.626  -1.853  0.00  0.00    +0.120 A 
ATOM     23  C   UNL     1      -5.326  -3.578  -0.499  0.00  0.00    +0.047 A 
ATOM     24  C   UNL     1      -4.938  -2.490   0.256  0.00  0.00    +0.030 A 
BRANCH  22  25
ATOM     25  O   UNL     1      -5.406  -4.699  -2.596  0.00  0.00    -0.495 OA
ATOM     26  C   UNL     1      -5.062  -4.682  -3.983  0.00  0.00    +0.277 C 
ENDBRANCH  22  25
ENDBRANCH  13  19
BRANCH   1  28
ATOM     27  C   UNL     1       0.352   0.381   4.548  0.00  0.00    +0.005 C 
ATOM     28  C   UNL     1      -1.023   0.356   3.877  0.00  0.00    +0.008 C 
ENDBRANCH   1  28
TORSDOF 3
