REMARK  Name = ZINC15033706
REMARK  4 active torsions:
REMARK  status: ('A' for Active; 'I' for Inactive)
REMARK    1  A    between atoms: C_4  and  C_7
REMARK    2  A    between atoms: C_16  and  C_17
REMARK    3  A    between atoms: C_16  and  N_57
REMARK    4  A    between atoms: N_19  and  N_20
REMARK                            x       y       z     vdW  Elec       q    Type
REMARK                         _______ _______ _______ _____ _____    ______ ____
ROOT
ATOM      1  C   UNL     1       3.259   5.606  -1.126  0.00  0.00    +0.021 C 
ENDROOT
BRANCH   1  10
ATOM      2  C   UNL     1       4.615   6.992  -2.575  0.00  0.00    -0.005 C 
ATOM      3  C   UNL     1       5.209   7.076  -3.979  0.00  0.00    -0.047 A 
ATOM      4  C   UNL     1       5.679   8.254  -4.553  0.00  0.00    +0.010 A 
ATOM      5  C   UNL     1       6.190   8.239  -5.807  0.00  0.00    +0.045 A 
ATOM      6  S   UNL     1       6.028   6.515  -6.250  0.00  0.00    -0.101 S 
ATOM      7  C   UNL     1       5.297   5.950  -4.740  0.00  0.00    -0.010 A 
ATOM      8  C   UNL     1       4.866   4.573  -4.350  0.00  0.00    +0.024 C 
ATOM      9  C   UNL     1       4.633   4.568  -2.830  0.00  0.00    -0.072 C 
ATOM     10  N   UNL     1       3.808   5.752  -2.489  0.00  0.00    +0.393 N 
ATOM     11  H   UNL     1       3.030   5.817  -3.156  0.00  0.00    -0.080 HD
BRANCH   2  15
ATOM     12  C   UNL     1       2.059  10.347  -1.897  0.00  0.00    +0.000 A 
ATOM     13  C   UNL     1       3.340  10.337  -1.376  0.00  0.00    +0.000 A 
ATOM     14  C   UNL     1       4.167   9.251  -1.596  0.00  0.00    +0.002 A 
ATOM     15  C   UNL     1       3.713   8.175  -2.336  0.00  0.00    -0.057 A 
ATOM     16  C   UNL     1       2.435   8.188  -2.861  0.00  0.00    +0.002 A 
ATOM     17  C   UNL     1       1.606   9.271  -2.637  0.00  0.00    +0.000 A 
ENDBRANCH   2  15
ENDBRANCH   1  10
BRANCH   1  18
ATOM     18  C   UNL     1       2.277   4.462  -1.123  0.00  0.00    +0.213 C 
ATOM     19  O   UNL     1       2.079   3.830  -2.140  0.00  0.00    -0.276 OA
ATOM     20  N   UNL     1       1.619   4.142   0.008  0.00  0.00    -0.225 N 
ATOM     21  H   UNL     1       1.778   4.647   0.821  0.00  0.00    +0.173 HD
BRANCH  20  22
ATOM     22  N   UNL     1       0.707   3.079   0.011  0.00  0.00    -0.137 N 
ATOM     23  C   UNL     1      -0.634   3.231   0.024  0.00  0.00    +0.263 C 
ATOM     24  O   UNL     1      -1.255   4.272   0.035  0.00  0.00    -0.271 OA
ATOM     25  C   UNL     1      -1.199   1.829   0.017  0.00  0.00    +0.114 C 
ATOM     26  C   UNL     1      -2.026   1.585   1.274  0.00  0.00    +0.035 C 
ATOM     27  C   UNL     1      -2.558   0.149   1.265  0.00  0.00    +0.003 C 
ATOM     28  C   UNL     1      -3.417  -0.067   0.017  0.00  0.00    +0.000 C 
ATOM     29  C   UNL     1      -2.569   0.161  -1.235  0.00  0.00    +0.003 C 
ATOM     30  C   UNL     1      -2.038   1.597  -1.235  0.00  0.00    +0.035 C 
ATOM     31  N   UNL     1      -0.011   0.966   0.007  0.00  0.00    -0.284 N 
ATOM     32  C   UNL     1       1.056   1.787   0.002  0.00  0.00    +0.326 C 
ATOM     33  O   UNL     1       2.208   1.399  -0.011  0.00  0.00    -0.251 OA
ATOM     34  H   UNL     1       0.002  -0.004   0.002  0.00  0.00    +0.151 HD
ENDBRANCH  20  22
ENDBRANCH   1  18
TORSDOF 4
