REMARK  Name = ZINC11789249
REMARK  11 active torsions:
REMARK  status: ('A' for Active; 'I' for Inactive)
REMARK    1  A    between atoms: C_1  and  C_2
REMARK    2  A    between atoms: C_2  and  C_3
REMARK    3  A    between atoms: C_3  and  C_4
REMARK    4  A    between atoms: C_4  and  C_18
REMARK    5  A    between atoms: N_7  and  C_11
REMARK    6  A    between atoms: C_11  and  C_12
REMARK    7  A    between atoms: C_23  and  C_24
REMARK    8  A    between atoms: C_23  and  N_73
REMARK    9  A    between atoms: C_29  and  C_30
REMARK   10  A    between atoms: C_33  and  O_36
REMARK   11  A    between atoms: O_36  and  C_37
REMARK                            x       y       z     vdW  Elec       q    Type
REMARK                         _______ _______ _______ _____ _____    ______ ____
ROOT
ATOM      1  C   UNL     1       0.912  -1.718   0.390  0.00  0.00    +0.018 C 
ATOM      2  C   UNL     1       0.146  -2.999   0.732  0.00  0.00    -0.013 C 
ATOM      3  C   UNL     1       0.686  -3.576   2.043  0.00  0.00    -0.078 C 
ATOM      4  C   UNL     1       1.297  -1.368   2.832  0.00  0.00    -0.078 C 
ATOM      5  C   UNL     1       0.774  -0.724   1.546  0.00  0.00    -0.013 C 
ATOM      6  N   UNL     1       0.501  -2.580   3.119  0.00  0.00    +0.382 N 
ATOM      7  H   UNL     1      -0.491  -2.323   3.168  0.00  0.00    -0.081 HD
ENDROOT
BRANCH   1   8
ATOM      8  C   UNL     1       0.335  -1.103  -0.886  0.00  0.00    +0.115 C 
ATOM      9  C   UNL     1       0.990   0.233  -1.177  0.00  0.00    +0.247 C 
ATOM     10  O   UNL     1       2.163   0.441  -1.399  0.00  0.00    -0.273 OA
ATOM     11  N   UNL     1      -0.004   1.142  -1.138  0.00  0.00    -0.222 N 
ATOM     12  C   UNL     1      -1.184   0.572  -0.865  0.00  0.00    +0.309 C 
ATOM     13  O   UNL     1      -2.229   1.188  -0.782  0.00  0.00    -0.252 OA
ATOM     14  N   UNL     1      -1.085  -0.759  -0.699  0.00  0.00    -0.285 N 
ATOM     15  H   UNL     1      -1.808  -1.373  -0.496  0.00  0.00    +0.151 HD
BRANCH   8  16
ATOM     16  C   UNL     1       0.507  -2.056  -2.071  0.00  0.00    +0.035 C 
BRANCH  16  18
ATOM     17  C   UNL     1       0.143  -2.345  -4.526  0.00  0.00    +0.004 C 
ATOM     18  C   UNL     1      -0.029  -1.392  -3.341  0.00  0.00    -0.001 C 
ENDBRANCH  16  18
ENDBRANCH   8  16
BRANCH  11  19
ATOM     19  C   UNL     1       0.183   2.577  -1.366  0.00  0.00    +0.149 C 
BRANCH  19  20
ATOM     20  C   UNL     1       0.481   3.271  -0.036  0.00  0.00    +0.136 C 
ATOM     21  C   UNL     1       0.566   4.798  -0.248  0.00  0.00    +0.035 C 
ATOM     22  C   UNL     1       1.744   5.195   0.683  0.00  0.00    +0.031 C 
ATOM     23  C   UNL     1       2.652   3.946   0.558  0.00  0.00    +0.160 C 
ATOM     24  O   UNL     1       1.748   2.833   0.468  0.00  0.00    -0.375 OA
ENDBRANCH  19  20
ENDBRANCH  11  19
ENDBRANCH   1   8
BRANCH   6  25
ATOM     25  C   UNL     1       0.912  -3.157   4.416  0.00  0.00    -0.039 C 
BRANCH  25  26
ATOM     26  C   UNL     1      -0.129  -4.156   4.852  0.00  0.00    -0.019 A 
ATOM     27  C   UNL     1       0.005  -5.500   4.843  0.00  0.00    +0.107 A 
ATOM     28  N   UNL     1      -1.144  -6.037   5.306  0.00  0.00    -0.284 N 
ATOM     29  H   UNL     1      -1.335  -7.013   5.411  0.00  0.00    +0.188 HD
ATOM     30  N   UNL     1      -2.022  -4.990   5.613  0.00  0.00    -0.174 NA
ATOM     31  C   UNL     1      -1.413  -3.854   5.347  0.00  0.00    +0.094 A 
BRANCH  31  32
ATOM     32  C   UNL     1      -1.979  -2.495   5.532  0.00  0.00    +0.003 A 
ATOM     33  C   UNL     1      -1.198  -1.482   6.087  0.00  0.00    +0.013 A 
ATOM     34  C   UNL     1      -1.726  -0.219   6.254  0.00  0.00    +0.046 A 
ATOM     35  C   UNL     1      -3.037   0.042   5.879  0.00  0.00    +0.120 A 
ATOM     36  C   UNL     1      -3.819  -0.966   5.330  0.00  0.00    +0.046 A 
ATOM     37  C   UNL     1      -3.295  -2.230   5.157  0.00  0.00    +0.013 A 
BRANCH  35  38
ATOM     38  O   UNL     1      -3.556   1.286   6.049  0.00  0.00    -0.495 OA
ATOM     39  C   UNL     1      -2.697   2.275   6.619  0.00  0.00    +0.277 C 
ENDBRANCH  35  38
ENDBRANCH  31  32
ENDBRANCH  25  26
ENDBRANCH   6  25
TORSDOF 9
