REMARK  Name = ZINC06788282
REMARK  11 active torsions:
REMARK  status: ('A' for Active; 'I' for Inactive)
REMARK    1  A    between atoms: C_1  and  C_2
REMARK    2  A    between atoms: C_2  and  C_3
REMARK    3  A    between atoms: C_3  and  C_4
REMARK    4  A    between atoms: C_4  and  N_5
REMARK    5  A    between atoms: N_5  and  C_6
REMARK    6  A    between atoms: C_7  and  N_19
REMARK    7  A    between atoms: N_8  and  C_15
REMARK    8  A    between atoms: C_15  and  C_16
REMARK    9  A    between atoms: C_16  and  C_17
REMARK   10  A    between atoms: C_16  and  C_18
REMARK   11  A    between atoms: C_20  and  C_22
REMARK                            x       y       z     vdW  Elec       q    Type
REMARK                         _______ _______ _______ _____ _____    ______ ____
ROOT
ATOM      1  C   UNL     1      -0.016  -1.003   0.317  0.00  0.00    +0.140 A 
ATOM      2  C   UNL     1       0.980  -1.632   1.036  0.00  0.00    +0.127 A 
ATOM      3  N   UNL     1       2.282  -1.540   0.602  0.00  0.00    -0.280 N 
ATOM      4  C   UNL     1       2.582  -0.841  -0.508  0.00  0.00    +0.331 A 
ATOM      5  O   UNL     1       3.740  -0.768  -0.872  0.00  0.00    -0.246 OA
ATOM      6  N   UNL     1       1.625  -0.226  -1.224  0.00  0.00    -0.273 N 
ATOM      7  H   UNL     1       1.874   0.281  -2.050  0.00  0.00    +0.173 HD
ATOM      8  C   UNL     1       0.334  -0.285  -0.843  0.00  0.00    +0.277 A 
ATOM      9  O   UNL     1      -0.526   0.280  -1.497  0.00  0.00    -0.266 OA
ENDROOT
BRANCH   1  10
ATOM     10  N   UNL     1      -1.360  -1.079   0.735  0.00  0.00    -0.260 N 
ATOM     11  C   UNL     1      -1.720  -0.586   1.937  0.00  0.00    +0.251 C 
ATOM     12  O   UNL     1      -2.866  -0.711   2.326  0.00  0.00    -0.270 OA
BRANCH  11  13
ATOM     13  C   UNL     1      -0.724   0.106   2.781  0.00  0.00    +0.039 A 
ATOM     14  C   UNL     1      -0.889   0.152   4.166  0.00  0.00    +0.013 A 
ATOM     15  C   UNL     1       0.044   0.799   4.949  0.00  0.00    +0.002 A 
ATOM     16  C   UNL     1       1.144   1.401   4.364  0.00  0.00    +0.020 A 
ATOM     17  C   UNL     1       1.315   1.360   2.991  0.00  0.00    +0.042 A 
ATOM     18  C   UNL     1       0.390   0.711   2.197  0.00  0.00    +0.033 A 
ATOM     19 CL   UNL     1       2.699   2.118   2.267  0.00  0.00    -0.084 Cl
ENDBRANCH  11  13
BRANCH  10  20
ATOM     20  C   UNL     1      -2.365  -1.693  -0.136  0.00  0.00    +0.114 C 
BRANCH  20  21
ATOM     21  C   UNL     1      -2.541  -3.164   0.246  0.00  0.00    +0.019 C 
BRANCH  21  23
ATOM     22  C   UNL     1      -3.766  -5.276  -0.282  0.00  0.00    +0.004 C 
ATOM     23  C   UNL     1      -3.590  -3.805  -0.664  0.00  0.00    -0.002 C 
ENDBRANCH  21  23
ENDBRANCH  20  21
ENDBRANCH  10  20
ENDBRANCH   1  10
BRANCH   2  24
ATOM     24  N   UNL     1       0.674  -2.342   2.172  0.00  0.00    -0.343 N 
ATOM     25  H   UNL     1       1.378  -2.597   2.789  0.00  0.00    +0.144 HD
ATOM     26  H   UNL     1      -0.246  -2.588   2.357  0.00  0.00    +0.144 HD
ENDBRANCH   2  24
BRANCH   3  27
ATOM     27  C   UNL     1       3.349  -2.203   1.356  0.00  0.00    +0.131 C 
BRANCH  27  28
ATOM     28  C   UNL     1       3.541  -3.626   0.826  0.00  0.00    +0.003 C 
ATOM     29  C   UNL     1       4.041  -3.569  -0.618  0.00  0.00    +0.009 C 
ATOM     30  C   UNL     1       4.566  -4.359   1.693  0.00  0.00    +0.009 C 
ENDBRANCH  27  28
ENDBRANCH   3  27
TORSDOF 8
