REMARK  Name = ZINC12880391
REMARK  14 active torsions:
REMARK  status: ('A' for Active; 'I' for Inactive)
REMARK    1  A    between atoms: C_1  and  C_2
REMARK    2  A    between atoms: C_2  and  C_3
REMARK    3  A    between atoms: C_3  and  O_4
REMARK    4  A    between atoms: O_4  and  C_5
REMARK    5  A    between atoms: C_8  and  C_14
REMARK    6  A    between atoms: C_10  and  O_11
REMARK    7  A    between atoms: O_11  and  C_12
REMARK    8  A    between atoms: C_12  and  C_13
REMARK    9  A    between atoms: N_21  and  C_36
REMARK   10  A    between atoms: C_24  and  C_35
REMARK   11  A    between atoms: C_36  and  C_37
REMARK   12  A    between atoms: C_37  and  C_38
REMARK   13  A    between atoms: C_38  and  C_39
REMARK   14  A    between atoms: C_38  and  C_40
REMARK                            x       y       z     vdW  Elec       q    Type
REMARK                         _______ _______ _______ _____ _____    ______ ____
ROOT
ATOM      1  C   UNL     1      -0.013   1.086   0.008  0.00  0.00    +0.069 C 
ATOM      2  C   UNL     1      -0.722   1.582   1.274  0.00  0.00    +0.122 C 
ATOM      3  N   UNL     1      -0.429   3.017   1.451  0.00  0.00    -0.280 N 
ATOM      4  C   UNL     1      -1.427   3.901   1.364  0.00  0.00    +0.234 C 
ATOM      5  O   UNL     1      -2.560   3.474   1.300  0.00  0.00    -0.274 OA
ATOM      6  C   UNL     1      -1.236   5.383   1.340  0.00  0.00    +0.203 C 
ATOM      7  N   UNL     1       0.168   5.756   1.378  0.00  0.00    -0.291 N 
ATOM      8  C   UNL     1       1.161   4.881   1.537  0.00  0.00    +0.245 C 
ATOM      9  O   UNL     1       2.298   5.304   1.552  0.00  0.00    -0.273 OA
ATOM     10  C   UNL     1       0.957   3.411   1.699  0.00  0.00    +0.151 C 
ATOM     11  C   UNL     1       1.841   2.646   0.744  0.00  0.00    +0.054 A 
ATOM     12  C   UNL     1       1.401   1.609  -0.003  0.00  0.00    -0.008 A 
ATOM     13  C   UNL     1       2.529   1.137  -0.779  0.00  0.00    +0.004 A 
ATOM     14  C   UNL     1       2.673   0.107  -1.713  0.00  0.00    +0.010 A 
ATOM     15  C   UNL     1       3.918  -0.061  -2.266  0.00  0.00    +0.001 A 
ATOM     16  C   UNL     1       4.990   0.747  -1.923  0.00  0.00    +0.002 A 
ATOM     17  C   UNL     1       4.877   1.774  -1.002  0.00  0.00    +0.026 A 
ATOM     18  C   UNL     1       3.623   1.967  -0.424  0.00  0.00    +0.047 A 
ATOM     19  N   UNL     1       3.170   2.867   0.497  0.00  0.00    -0.356 N 
ATOM     20  H   UNL     1       3.707   3.558   0.914  0.00  0.00    +0.166 HD
ATOM     21  C   UNL     1       1.331   3.029   3.133  0.00  0.00    +0.048 C 
ENDROOT
BRANCH   1  25
ATOM     22  C   UNL     1      -2.088   2.513  -3.448  0.00  0.00    +0.162 A 
ATOM     23  C   UNL     1      -1.561   3.410  -2.534  0.00  0.00    +0.050 A 
ATOM     24  C   UNL     1      -0.890   2.946  -1.417  0.00  0.00    +0.008 A 
ATOM     25  C   UNL     1      -0.745   1.587  -1.210  0.00  0.00    -0.035 A 
ATOM     26  C   UNL     1      -1.264   0.686  -2.122  0.00  0.00    +0.053 A 
ATOM     27  C   UNL     1      -1.941   1.145  -3.240  0.00  0.00    +0.162 A 
BRANCH  22  28
ATOM     28  O   UNL     1      -2.748   2.968  -4.547  0.00  0.00    -0.488 OA
BRANCH  28  29
ATOM     29  C   UNL     1      -2.860   4.385  -4.696  0.00  0.00    +0.229 C 
BRANCH  29  31
ATOM     30  C   UNL     1      -3.748   6.220  -6.139  0.00  0.00    +0.007 C 
ATOM     31  C   UNL     1      -3.628   4.703  -5.980  0.00  0.00    +0.038 C 
ENDBRANCH  29  31
ENDBRANCH  28  29
ENDBRANCH  22  28
BRANCH  27  32
ATOM     32  O   UNL     1      -2.457   0.260  -4.135  0.00  0.00    -0.489 OA
BRANCH  32  33
ATOM     33  C   UNL     1      -2.268  -1.129  -3.857  0.00  0.00    +0.226 C 
ATOM     34  C   UNL     1      -2.912  -1.964  -4.965  0.00  0.00    +0.048 C 
ENDBRANCH  32  33
ENDBRANCH  27  32
ENDBRANCH   1  25
BRANCH   7  35
ATOM     35  C   UNL     1       0.511   7.173   1.232  0.00  0.00    +0.108 C 
BRANCH  35  36
ATOM     36  C   UNL     1       0.548   7.833   2.612  0.00  0.00    +0.022 C 
BRANCH  36  37
ATOM     37  C   UNL     1       0.907   9.312   2.459  0.00  0.00    -0.016 C 
ATOM     38  C   UNL     1       0.822  10.001   3.823  0.00  0.00    +0.007 C 
ATOM     39  C   UNL     1       2.330   9.439   1.913  0.00  0.00    +0.007 C 
ENDBRANCH  36  37
ENDBRANCH  35  36
ENDBRANCH   7  35
TORSDOF 9
