REMARK  Name = ZINC12614455
REMARK  10 active torsions:
REMARK  status: ('A' for Active; 'I' for Inactive)
REMARK    1  A    between atoms: C_1  and  C_2
REMARK    2  A    between atoms: C_7  and  N_24
REMARK    3  A    between atoms: C_8  and  C_13
REMARK    4  A    between atoms: N_17  and  C_21
REMARK    5  A    between atoms: C_21  and  C_22
REMARK    6  A    between atoms: N_24  and  C_25
REMARK    7  A    between atoms: C_27  and  C_32
REMARK    8  A    between atoms: C_27  and  C_33
REMARK    9  A    between atoms: C_28  and  C_30
REMARK   10  A    between atoms: C_28  and  C_31
REMARK                            x       y       z     vdW  Elec       q    Type
REMARK                         _______ _______ _______ _____ _____    ______ ____
ROOT
ATOM      1  C   UNL     1       4.560   6.734  -0.190  0.00  0.00    +0.045 C 
ATOM      2  C   UNL     1       4.311   5.258  -0.014  0.00  0.00    -0.034 A 
ATOM      3  C   UNL     1       5.383   4.395   0.249  0.00  0.00    +0.008 A 
ATOM      4  C   UNL     1       5.149   3.061   0.407  0.00  0.00    +0.047 A 
ATOM      5  C   UNL     1       3.835   2.570   0.303  0.00  0.00    +0.142 A 
ATOM      6  N   UNL     1       3.616   1.264   0.459  0.00  0.00    -0.214 NA
ATOM      7  C   UNL     1       2.399   0.748   0.371  0.00  0.00    +0.134 A 
ATOM      8  C   UNL     1       1.298   1.597   0.107  0.00  0.00    +0.081 A 
ATOM      9  C   UNL     1       1.543   2.981  -0.061  0.00  0.00    +0.267 A 
ATOM     10  O   UNL     1       0.626   3.749  -0.294  0.00  0.00    -0.267 OA
ATOM     11  N   UNL     1       2.810   3.437   0.046  0.00  0.00    -0.267 N 
ATOM     12  C   UNL     1       3.054   4.769  -0.110  0.00  0.00    +0.099 A 
ENDROOT
BRANCH   8  13
ATOM     13  C   UNL     1      -0.013   1.076   0.008  0.00  0.00    +0.037 C 
ATOM     14  C   UNL     1      -0.287   0.087  -0.892  0.00  0.00    +0.077 C 
ATOM     15  C   UNL     1      -1.484  -0.661  -1.078  0.00  0.00    +0.259 C 
ATOM     16  O   UNL     1      -2.463  -0.462  -0.379  0.00  0.00    -0.269 OA
ATOM     17  N   UNL     1      -1.504  -1.579  -2.029  0.00  0.00    -0.252 N 
ATOM     18  C   UNL     1      -0.419  -1.800  -2.803  0.00  0.00    +0.121 C 
ATOM     19  S   UNL     1      -0.221  -2.925  -4.079  0.00  0.00    -0.027 S 
ATOM     20  S   UNL     1       0.755  -0.616  -2.162  0.00  0.00    -0.061 S 
BRANCH  17  21
ATOM     21  C   UNL     1      -2.720  -2.366  -2.248  0.00  0.00    +0.141 C 
BRANCH  21  22
ATOM     22  C   UNL     1      -3.600  -1.665  -3.249  0.00  0.00    -0.015 C 
ATOM     23  C   UNL     1      -4.000  -2.296  -4.325  0.00  0.00    +0.005 C 
ENDBRANCH  21  22
ENDBRANCH  17  21
ENDBRANCH   8  13
BRANCH   7  24
ATOM     24  N   UNL     1       2.206  -0.606   0.537  0.00  0.00    -0.326 N 
ATOM     25  H   UNL     1       1.313  -0.980   0.473  0.00  0.00    +0.148 HD
BRANCH  24  26
ATOM     26  C   UNL     1       3.352  -1.483   0.811  0.00  0.00    +0.069 C 
ATOM     27  C   UNL     1       3.995  -1.897  -0.512  0.00  0.00    +0.009 C 
ATOM     28  C   UNL     1       5.177  -2.830  -0.259  0.00  0.00    -0.072 C 
ATOM     29  C   UNL     1       4.032  -3.681   1.808  0.00  0.00    -0.072 C 
ATOM     30  C   UNL     1       2.862  -2.740   1.528  0.00  0.00    +0.009 C 
ATOM     31  C   UNL     1       4.864  -3.133   2.973  0.00  0.00    -0.010 C 
ATOM     32  C   UNL     1       3.442  -5.034   2.264  0.00  0.00    -0.010 C 
ATOM     33  C   UNL     1       6.370  -2.017   0.257  0.00  0.00    -0.010 C 
ATOM     34  C   UNL     1       5.591  -3.436  -1.619  0.00  0.00    -0.010 C 
ATOM     35  N   UNL     1       4.884  -3.988   0.627  0.00  0.00    +0.386 N 
ATOM     36  H   UNL     1       5.778  -4.361   0.969  0.00  0.00    -0.084 HD
ATOM     37  H   UNL     1       4.406  -4.704   0.068  0.00  0.00    -0.084 HD
ENDBRANCH  24  26
ENDBRANCH   7  24
TORSDOF 5
