REMARK  Name = ZINC13206076
REMARK  10 active torsions:
REMARK  status: ('A' for Active; 'I' for Inactive)
REMARK    1  A    between atoms: C_1  and  C_2
REMARK    2  A    between atoms: C_5  and  C_8
REMARK    3  A    between atoms: C_11  and  S_16
REMARK    4  A    between atoms: N_12  and  C_13
REMARK    5  A    between atoms: C_13  and  C_14
REMARK    6  A    between atoms: S_16  and  C_17
REMARK    7  A    between atoms: C_17  and  C_18
REMARK    8  A    between atoms: C_29  and  C_31
REMARK    9  A    between atoms: C_31  and  O_33
REMARK   10  A    between atoms: O_33  and  C_34
REMARK                            x       y       z     vdW  Elec       q    Type
REMARK                         _______ _______ _______ _____ _____    ______ ____
ROOT
ATOM      1  S   UNL     1       5.502   5.860   3.361  0.00  0.00    -0.077 S 
ENDROOT
BRANCH   1   5
ATOM      2  C   UNL     1       8.012   3.603   5.330  0.00  0.00    +0.165 A 
ATOM      3  N   UNL     1       7.399   2.742   4.551  0.00  0.00    -0.128 NA
ATOM      4  N   UNL     1       6.526   3.347   3.829  0.00  0.00    -0.122 NA
ATOM      5  C   UNL     1       6.528   4.633   4.101  0.00  0.00    +0.193 A 
ATOM      6  N   UNL     1       7.477   4.842   5.061  0.00  0.00    -0.291 N 
BRANCH   2  11
ATOM      7  C   UNL     1      12.169   2.425   9.130  0.00  0.00    +0.044 C 
ATOM      8  C   UNL     1      11.081   2.733   8.135  0.00  0.00    -0.050 A 
ATOM      9  C   UNL     1      10.354   3.905   8.250  0.00  0.00    +0.004 A 
ATOM     10  C   UNL     1       9.357   4.194   7.342  0.00  0.00    +0.012 A 
ATOM     11  C   UNL     1       9.080   3.300   6.306  0.00  0.00    +0.019 A 
ATOM     12  C   UNL     1       9.812   2.117   6.199  0.00  0.00    +0.012 A 
ATOM     13  C   UNL     1      10.812   1.843   7.110  0.00  0.00    +0.004 A 
ENDBRANCH   2  11
BRANCH   6  14
ATOM     14  C   UNL     1       7.846   6.118   5.678  0.00  0.00    +0.250 C 
BRANCH  14  15
ATOM     15  C   UNL     1       6.926   6.399   6.839  0.00  0.00    +0.375 C 
ATOM     16  O   UNL     1       6.052   5.614   7.121  0.00  0.00    -0.244 OA
ATOM     17  O   UNL     1       7.078   7.522   7.559  0.00  0.00    -0.244 OA
ENDBRANCH  14  15
ENDBRANCH   6  14
ENDBRANCH   1   5
BRANCH   1  18
ATOM     18  C   UNL     1       4.552   4.827   2.219  0.00  0.00    +0.173 C 
BRANCH  18  19
ATOM     19  C   UNL     1       3.580   5.688   1.454  0.00  0.00    +0.227 C 
ATOM     20  O   UNL     1       3.534   6.882   1.661  0.00  0.00    -0.275 OA
ATOM     21  N   UNL     1       2.761   5.131   0.539  0.00  0.00    -0.283 N 
ATOM     22  C   UNL     1       2.881   3.717   0.169  0.00  0.00    +0.144 C 
ATOM     23  C   UNL     1       1.511   3.089   0.111  0.00  0.00    -0.027 A 
ATOM     24  C   UNL     1       1.436   1.707   0.004  0.00  0.00    +0.005 A 
ATOM     25  C   UNL     1       0.212   1.075  -0.065  0.00  0.00    +0.000 A 
ATOM     26  C   UNL     1      -0.949   1.825  -0.036  0.00  0.00    +0.000 A 
ATOM     27  C   UNL     1      -0.876   3.198   0.075  0.00  0.00    +0.004 A 
ATOM     28  C   UNL     1       0.356   3.837   0.151  0.00  0.00    -0.040 A 
ATOM     29  C   UNL     1       0.358   5.337   0.283  0.00  0.00    +0.069 C 
ATOM     30  C   UNL     1       1.710   5.917  -0.128  0.00  0.00    +0.189 C 
BRANCH  30  31
ATOM     31  C   UNL     1       1.800   7.358   0.304  0.00  0.00    +0.328 C 
ATOM     32  O   UNL     1       1.288   7.712   1.340  0.00  0.00    -0.249 OA
BRANCH  31  33
ATOM     33  O   UNL     1       2.448   8.249  -0.462  0.00  0.00    -0.467 OA
ATOM     34  C   UNL     1       2.495   9.620   0.016  0.00  0.00    +0.280 C 
ENDBRANCH  31  33
ENDBRANCH  30  31
ENDBRANCH  18  19
ENDBRANCH   1  18
TORSDOF 8
