REMARK  Name = ZINC00910612
REMARK  7 active torsions:
REMARK  status: ('A' for Active; 'I' for Inactive)
REMARK    1  A    between atoms: C_1  and  C_2
REMARK    2  A    between atoms: C_6  and  C_15
REMARK    3  A    between atoms: C_13  and  C_14
REMARK    4  A    between atoms: C_15  and  C_17
REMARK    5  A    between atoms: C_15  and  N_30
REMARK    6  A    between atoms: N_21  and  C_22
REMARK    7  A    between atoms: C_22  and  C_23
REMARK                            x       y       z     vdW  Elec       q    Type
REMARK                         _______ _______ _______ _____ _____    ______ ____
ROOT
ATOM      1  C   UNL     1      -5.633   3.817  -0.439  0.00  0.00    +0.179 C 
ENDROOT
BRANCH   1   7
ATOM      2  C   UNL     1       0.907   0.694   1.319  0.00  0.00    +0.044 C 
ATOM      3  C   UNL     1      -0.513   0.582   0.829  0.00  0.00    -0.047 A 
ATOM      4  C   UNL     1      -1.288   1.703   0.733  0.00  0.00    +0.013 A 
ATOM      5  C   UNL     1      -2.606   1.599   0.278  0.00  0.00    -0.001 A 
ATOM      6  C   UNL     1      -3.463   2.780   0.162  0.00  0.00    +0.021 A 
ATOM      7  C   UNL     1      -4.727   2.620  -0.302  0.00  0.00    +0.045 A 
ATOM      8  C   UNL     1      -5.201   1.336  -0.645  0.00  0.00    +0.255 A 
ATOM      9  O   UNL     1      -6.344   1.214  -1.050  0.00  0.00    -0.268 OA
ATOM     10  N   UNL     1      -4.423   0.245  -0.538  0.00  0.00    -0.322 N 
ATOM     11  H   UNL     1      -4.781  -0.623  -0.783  0.00  0.00    +0.169 HD
ATOM     12  C   UNL     1      -3.125   0.341  -0.084  0.00  0.00    +0.049 A 
ATOM     13  C   UNL     1      -2.320  -0.787   0.028  0.00  0.00    +0.030 A 
ATOM     14  C   UNL     1      -1.024  -0.661   0.479  0.00  0.00    -0.046 A 
ATOM     15  C   UNL     1      -0.151  -1.884   0.594  0.00  0.00    +0.044 C 
ENDBRANCH   1   7
BRANCH   1  16
ATOM     16  N   UNL     1      -6.900   3.554   0.258  0.00  0.00    -0.315 N 
ATOM     17  C   UNL     1      -7.896   4.607  -0.038  0.00  0.00    +0.111 C 
ATOM     18  C   UNL     1      -8.732   4.656   1.261  0.00  0.00    +0.056 C 
ATOM     19  C   UNL     1      -7.761   4.145   2.306  0.00  0.00    -0.025 A 
ATOM     20  C   UNL     1      -6.712   3.517   1.645  0.00  0.00    +0.034 A 
ATOM     21  C   UNL     1      -5.673   2.966   2.393  0.00  0.00    +0.023 A 
ATOM     22  C   UNL     1      -5.694   3.041   3.770  0.00  0.00    +0.002 A 
ATOM     23  C   UNL     1      -6.745   3.663   4.418  0.00  0.00    +0.000 A 
ATOM     24  C   UNL     1      -7.778   4.215   3.683  0.00  0.00    +0.005 A 
ENDBRANCH   1  16
BRANCH   1  25
ATOM     25  C   UNL     1      -5.907   4.075  -1.898  0.00  0.00    +0.177 A 
ATOM     26  N   UNL     1      -6.562   3.295  -2.722  0.00  0.00    -0.111 NA
ATOM     27  N   UNL     1      -6.584   3.864  -3.877  0.00  0.00    -0.023 NA
ATOM     28  N   UNL     1      -5.952   4.984  -3.814  0.00  0.00    -0.044 NA
ATOM     29  N   UNL     1      -5.520   5.150  -2.610  0.00  0.00    -0.223 N 
BRANCH  29  30
ATOM     30  C   UNL     1      -4.752   6.294  -2.111  0.00  0.00    +0.182 C 
BRANCH  30  31
ATOM     31  C   UNL     1      -3.287   6.077  -2.394  0.00  0.00    -0.026 A 
ATOM     32  C   UNL     1      -2.463   5.559  -1.413  0.00  0.00    +0.008 A 
ATOM     33  C   UNL     1      -1.121   5.355  -1.672  0.00  0.00    +0.038 A 
ATOM     34  C   UNL     1      -0.600   5.680  -2.913  0.00  0.00    +0.123 A 
ATOM     35  C   UNL     1      -1.425   6.204  -3.894  0.00  0.00    +0.038 A 
ATOM     36  C   UNL     1      -2.768   6.402  -3.634  0.00  0.00    +0.008 A 
ATOM     37  F   UNL     1       0.712   5.486  -3.167  0.00  0.00    -0.205 F 
ENDBRANCH  30  31
ENDBRANCH  29  30
ENDBRANCH   1  25
TORSDOF 5
