REMARK  Name = ZINC64891302
REMARK  6 active torsions:
REMARK  status: ('A' for Active; 'I' for Inactive)
REMARK    1  A    between atoms: C_6  and  C_7
REMARK    2  A    between atoms: C_7  and  C_8
REMARK    3  A    between atoms: N_10  and  C_11
REMARK    4  A    between atoms: C_11  and  C_12
REMARK    5  A    between atoms: C_14  and  C_17
REMARK    6  A    between atoms: N_27  and  C_28
REMARK                            x       y       z     vdW  Elec       q    Type
REMARK                         _______ _______ _______ _____ _____    ______ ____
ROOT
ATOM      1  C   UNL     1      -4.608  -2.714  -3.015  0.00  0.00    +0.245 A 
ATOM      2  N   UNL     1      -5.802  -2.195  -3.006  0.00  0.00    -0.190 NA
ATOM      3  C   UNL     1      -6.728  -3.171  -3.001  0.00  0.00    +0.202 A 
ATOM      4  N   UNL     1      -6.116  -4.329  -3.007  0.00  0.00    -0.056 NA
ATOM      5  O   UNL     1      -4.724  -4.048  -3.022  0.00  0.00    -0.336 OA
ENDROOT
BRANCH   3   6
ATOM      6  C   UNL     1      -8.198  -2.969  -2.990  0.00  0.00    +0.025 A 
ATOM      7  C   UNL     1      -8.725  -1.677  -2.989  0.00  0.00    +0.014 A 
ATOM      8  C   UNL     1     -10.089  -1.485  -2.979  0.00  0.00    +0.029 A 
ATOM      9  C   UNL     1     -10.944  -2.579  -2.969  0.00  0.00    +0.070 A 
ATOM     10  C   UNL     1     -10.422  -3.875  -2.969  0.00  0.00    +0.068 A 
ATOM     11  C   UNL     1      -9.052  -4.069  -2.986  0.00  0.00    +0.039 A 
ATOM     12  N   UNL     1     -11.509  -4.747  -2.958  0.00  0.00    -0.306 N 
ATOM     13  H   UNL     1     -11.460  -5.715  -2.955  0.00  0.00    +0.170 HD
ATOM     14  C   UNL     1     -12.639  -4.014  -2.950  0.00  0.00    +0.328 A 
ATOM     15  O   UNL     1     -13.768  -4.468  -2.939  0.00  0.00    -0.247 OA
ATOM     16  N   UNL     1     -12.330  -2.704  -2.957  0.00  0.00    -0.289 N 
BRANCH  16  17
ATOM     17  C   UNL     1     -13.290  -1.597  -2.951  0.00  0.00    +0.092 C 
ATOM     18  C   UNL     1     -14.220  -1.710  -1.725  0.00  0.00    +0.025 C 
ATOM     19  C   UNL     1     -15.600  -1.243  -2.251  0.00  0.00    +0.002 C 
ATOM     20  C   UNL     1     -15.638  -1.834  -3.682  0.00  0.00    +0.002 C 
ATOM     21  C   UNL     1     -14.192  -1.676  -4.196  0.00  0.00    +0.025 C 
ENDBRANCH  16  17
ENDBRANCH   3   6
BRANCH   1  22
ATOM     22  C   UNL     1      -3.313  -1.943  -3.024  0.00  0.00    +0.203 C 
BRANCH  22  25
ATOM     23  C   UNL     1      -1.738  -1.024  -1.407  0.00  0.00    +0.218 C 
ATOM     24  O   UNL     1      -1.070  -0.616  -2.333  0.00  0.00    -0.275 OA
ATOM     25  N   UNL     1      -2.880  -1.701  -1.646  0.00  0.00    -0.306 N 
ATOM     26  H   UNL     1      -3.414  -2.027  -0.905  0.00  0.00    +0.149 HD
BRANCH  23  27
ATOM     27  C   UNL     1      -1.293  -0.775   0.011  0.00  0.00    +0.130 C 
BRANCH  27  33
ATOM     28  C   UNL     1      -0.017   1.378   0.010  0.00  0.00    +0.005 A 
ATOM     29  C   UNL     1       1.171   2.086   0.002  0.00  0.00    +0.020 A 
ATOM     30  C   UNL     1       2.378   1.410  -0.013  0.00  0.00    +0.041 A 
ATOM     31  C   UNL     1       2.396   0.027  -0.021  0.00  0.00    +0.020 A 
ATOM     32  C   UNL     1       1.208  -0.679  -0.013  0.00  0.00    +0.005 A 
ATOM     33  C   UNL     1       0.002  -0.004   0.002  0.00  0.00    -0.039 A 
ATOM     34 CL   UNL     1       3.870   2.298  -0.023  0.00  0.00    -0.084 Cl
ENDBRANCH  27  33
ENDBRANCH  23  27
ENDBRANCH  22  25
ENDBRANCH   1  22
TORSDOF 6
