REMARK  Name = ZINC39388828
REMARK  6 active torsions:
REMARK  status: ('A' for Active; 'I' for Inactive)
REMARK    1  A    between atoms: C_1  and  C_2
REMARK    2  A    between atoms: C_5  and  N_8
REMARK    3  A    between atoms: C_16  and  C_19
REMARK    4  A    between atoms: N_21  and  C_22
REMARK    5  A    between atoms: C_22  and  C_23
REMARK    6  A    between atoms: C_23  and  C_24
REMARK                            x       y       z     vdW  Elec       q    Type
REMARK                         _______ _______ _______ _____ _____    ______ ____
ROOT
ATOM      1  N   UNL     1       0.058  -4.167  -0.021  0.00  0.00    -0.294 N 
ATOM      2  C   UNL     1      -0.033  -5.043  -1.208  0.00  0.00    +0.127 C 
ATOM      3  C   UNL     1      -0.009  -6.491  -0.663  0.00  0.00    +0.130 C 
ATOM      4  N   UNL     1      -0.437  -6.333   0.731  0.00  0.00    -0.259 N 
ATOM      5  C   UNL     1       0.178  -5.048   1.148  0.00  0.00    +0.272 C 
ATOM      6  N   UNL     1      -0.412  -4.381   2.311  0.00  0.00    -0.231 N 
ATOM      7  N   UNL     1      -1.212  -5.034   3.081  0.00  0.00    -0.174 NA
ATOM      8  C   UNL     1      -1.594  -6.265   2.849  0.00  0.00    +0.204 C 
ATOM      9  C   UNL     1      -1.188  -6.987   1.624  0.00  0.00    +0.274 C 
ATOM     10  O   UNL     1      -1.515  -8.143   1.438  0.00  0.00    -0.268 OA
ATOM     11  H   UNL     1      -0.201  -3.453   2.501  0.00  0.00    +0.172 HD
ENDROOT
BRANCH   1  16
ATOM     12  C   UNL     1      -0.017   1.503   0.012  0.00  0.00    +0.044 C 
ATOM     13  C   UNL     1       0.003  -0.004   0.003  0.00  0.00    -0.050 A 
ATOM     14  C   UNL     1      -1.126  -0.707  -0.378  0.00  0.00    +0.005 A 
ATOM     15  C   UNL     1      -1.111  -2.088  -0.387  0.00  0.00    +0.023 A 
ATOM     16  C   UNL     1       0.040  -2.771  -0.013  0.00  0.00    +0.032 A 
ATOM     17  C   UNL     1       1.171  -2.062   0.369  0.00  0.00    +0.023 A 
ATOM     18  C   UNL     1       1.151  -0.681   0.370  0.00  0.00    +0.005 A 
ENDBRANCH   1  16
BRANCH   8  19
ATOM     19  C   UNL     1      -2.457  -6.945   3.828  0.00  0.00    +0.269 C 
ATOM     20  O   UNL     1      -2.820  -8.088   3.627  0.00  0.00    -0.268 OA
ATOM     21  N   UNL     1      -2.845  -6.301   4.946  0.00  0.00    -0.310 N 
ATOM     22  H   UNL     1      -2.555  -5.390   5.106  0.00  0.00    +0.149 HD
BRANCH  21  23
ATOM     23  C   UNL     1      -3.704  -6.979   5.920  0.00  0.00    +0.109 C 
BRANCH  23  24
ATOM     24  C   UNL     1      -3.994  -6.034   7.088  0.00  0.00    +0.056 C 
BRANCH  24  25
ATOM     25  C   UNL     1      -4.878  -6.730   8.091  0.00  0.00    -0.021 A 
ATOM     26  C   UNL     1      -4.440  -7.617   9.171  0.00  0.00    +0.003 A 
ATOM     27  C   UNL     1      -3.195  -8.077   9.604  0.00  0.00    +0.010 A 
ATOM     28  C   UNL     1      -3.119  -8.922  10.676  0.00  0.00    +0.001 A 
ATOM     29  C   UNL     1      -4.271  -9.327  11.337  0.00  0.00    +0.002 A 
ATOM     30  C   UNL     1      -5.509  -8.885  10.926  0.00  0.00    +0.026 A 
ATOM     31  C   UNL     1      -5.610  -8.024   9.838  0.00  0.00    +0.047 A 
ATOM     32  N   UNL     1      -6.671  -7.422   9.201  0.00  0.00    -0.360 N 
ATOM     33  C   UNL     1      -6.216  -6.651   8.166  0.00  0.00    +0.087 A 
ATOM     34  H   UNL     1      -7.603  -7.526   9.450  0.00  0.00    +0.165 HD
ENDBRANCH  24  25
ENDBRANCH  23  24
ENDBRANCH  21  23
ENDBRANCH   8  19
TORSDOF 5
