REMARK  Name = ZINC13844900
REMARK  5 active torsions:
REMARK  status: ('A' for Active; 'I' for Inactive)
REMARK    1  A    between atoms: C_7  and  C_18
REMARK    2  A    between atoms: C_8  and  C_11
REMARK    3  A    between atoms: N_28  and  C_29
REMARK    4  A    between atoms: C_29  and  C_30
REMARK    5  A    between atoms: C_30  and  C_31
REMARK                            x       y       z     vdW  Elec       q    Type
REMARK                         _______ _______ _______ _____ _____    ______ ____
ROOT
ATOM      1  C   UNL     1       0.002  -0.004   0.002  0.00  0.00    +0.140 C 
ATOM      2  C   UNL     1       0.463  -0.523   1.341  0.00  0.00    -0.010 A 
ATOM      3  C   UNL     1      -0.029  -0.402   2.620  0.00  0.00    +0.006 A 
ATOM      4  C   UNL     1       0.630  -1.007   3.675  0.00  0.00    +0.000 A 
ATOM      5  C   UNL     1       1.785  -1.736   3.449  0.00  0.00    +0.001 A 
ATOM      6  C   UNL     1       2.288  -1.864   2.170  0.00  0.00    +0.013 A 
ATOM      7  C   UNL     1       1.628  -1.256   1.101  0.00  0.00    +0.042 A 
ATOM      8  C   UNL     1       1.912  -1.212  -0.347  0.00  0.00    +0.248 C 
ATOM      9  O   UNL     1       2.858  -1.752  -0.886  0.00  0.00    -0.270 OA
ATOM     10  N   UNL     1       0.974  -0.490  -0.984  0.00  0.00    -0.286 N 
ENDROOT
BRANCH   1  17
ATOM     11  C   UNL     1       3.379   3.240  -0.013  0.00  0.00    +0.001 A 
ATOM     12  C   UNL     1       2.885   4.538  -0.000  0.00  0.00    +0.002 A 
ATOM     13  C   UNL     1       1.527   4.774   0.013  0.00  0.00    +0.026 A 
ATOM     14  C   UNL     1       0.639   3.703   0.016  0.00  0.00    +0.047 A 
ATOM     15  C   UNL     1       1.145   2.389   0.004  0.00  0.00    +0.006 A 
ATOM     16  C   UNL     1       2.526   2.173  -0.010  0.00  0.00    +0.010 A 
ATOM     17  C   UNL     1      -0.018   1.503   0.010  0.00  0.00    +0.010 A 
ATOM     18  C   UNL     1      -1.119   2.295   0.019  0.00  0.00    +0.053 A 
ATOM     19  N   UNL     1      -0.735   3.616   0.029  0.00  0.00    -0.354 N 
ATOM     20  H   UNL     1      -1.342   4.373   0.038  0.00  0.00    +0.166 HD
BRANCH  18  21
ATOM     21  C   UNL     1      -2.517   1.813   0.022  0.00  0.00    -0.001 A 
ATOM     22  C   UNL     1      -2.905   0.786  -0.840  0.00  0.00    +0.013 A 
ATOM     23  C   UNL     1      -4.209   0.337  -0.829  0.00  0.00    +0.039 A 
ATOM     24  C   UNL     1      -5.136   0.910   0.028  0.00  0.00    +0.123 A 
ATOM     25  C   UNL     1      -4.756   1.933   0.882  0.00  0.00    +0.039 A 
ATOM     26  C   UNL     1      -3.454   2.387   0.883  0.00  0.00    +0.013 A 
ATOM     27  F   UNL     1      -6.413   0.469   0.031  0.00  0.00    -0.205 F 
ENDBRANCH  18  21
ENDBRANCH   1  17
BRANCH  10  28
ATOM     28  C   UNL     1       0.930  -0.230  -2.425  0.00  0.00    +0.113 C 
BRANCH  28  29
ATOM     29  C   UNL     1       1.704   1.052  -2.736  0.00  0.00    +0.054 C 
BRANCH  29  30
ATOM     30  C   UNL     1       1.658   1.319  -4.219  0.00  0.00    -0.046 A 
ATOM     31  C   UNL     1       2.643   0.807  -5.043  0.00  0.00    +0.005 A 
ATOM     32  C   UNL     1       2.598   1.046  -6.404  0.00  0.00    +0.020 A 
ATOM     33  C   UNL     1       1.575   1.809  -6.939  0.00  0.00    +0.041 A 
ATOM     34  C   UNL     1       0.594   2.326  -6.112  0.00  0.00    +0.020 A 
ATOM     35  C   UNL     1       0.636   2.081  -4.753  0.00  0.00    +0.005 A 
ATOM     36 CL   UNL     1       1.523   2.115  -8.647  0.00  0.00    -0.084 Cl
ENDBRANCH  29  30
ENDBRANCH  28  29
ENDBRANCH  10  28
TORSDOF 5
