REMARK  Name = ZINC09416269
REMARK  6 active torsions:
REMARK  status: ('A' for Active; 'I' for Inactive)
REMARK    1  A    between atoms: C_1  and  C_2
REMARK    2  A    between atoms: C_7  and  N_8
REMARK    3  A    between atoms: C_11  and  C_16
REMARK    4  A    between atoms: C_16  and  S_17
REMARK    5  A    between atoms: S_17  and  C_18
REMARK    6  A    between atoms: N_20  and  C_24
REMARK                            x       y       z     vdW  Elec       q    Type
REMARK                         _______ _______ _______ _____ _____    ______ ____
ROOT
ATOM      1  N   UNL     1      -1.198  -0.721   0.010  0.00  0.00    -0.283 N 
ATOM      2  C   UNL     1      -1.181  -2.098  -0.102  0.00  0.00    +0.224 A 
ATOM      3  N   UNL     1      -2.325  -2.774  -0.189  0.00  0.00    -0.198 NA
ATOM      4  C   UNL     1      -2.309  -4.090  -0.301  0.00  0.00    +0.146 A 
ATOM      5  N   UNL     1      -1.160  -4.742  -0.317  0.00  0.00    -0.199 NA
ATOM      6  C   UNL     1      -0.012  -4.074  -0.225  0.00  0.00    +0.217 A 
ATOM      7  N   UNL     1      -0.024  -2.750  -0.117  0.00  0.00    -0.181 NA
ATOM      8  N   UNL     1       1.187  -4.755  -0.242  0.00  0.00    -0.327 N 
ATOM      9  H   UNL     1      -2.036  -0.239  -0.068  0.00  0.00    +0.155 HD
ATOM     10  H   UNL     1       2.023  -4.268  -0.175  0.00  0.00    +0.145 HD
ATOM     11  H   UNL     1       1.195  -5.722  -0.320  0.00  0.00    +0.145 HD
ENDROOT
BRANCH   1  18
ATOM     12  C   UNL     1      -0.988   1.935  -0.989  0.00  0.00    +0.045 C 
ATOM     13  C   UNL     1       0.136   1.276  -0.231  0.00  0.00    -0.029 A 
ATOM     14  C   UNL     1       1.313   1.963  -0.005  0.00  0.00    +0.005 A 
ATOM     15  C   UNL     1       2.347   1.358   0.685  0.00  0.00    +0.000 A 
ATOM     16  C   UNL     1       2.207   0.064   1.152  0.00  0.00    +0.002 A 
ATOM     17  C   UNL     1       1.033  -0.628   0.930  0.00  0.00    +0.023 A 
ATOM     18  C   UNL     1      -0.008  -0.023   0.236  0.00  0.00    +0.036 A 
ENDBRANCH   1  18
BRANCH   4  19
ATOM     19  C   UNL     1      -3.606  -4.851  -0.407  0.00  0.00    +0.152 C 
BRANCH  19  20
ATOM     20  S   UNL     1      -4.181  -5.295   1.251  0.00  0.00    -0.089 S 
BRANCH  20  21
ATOM     21  C   UNL     1      -5.667  -6.148   0.841  0.00  0.00    +0.158 A 
ATOM     22  N   UNL     1      -6.539  -6.714   1.637  0.00  0.00    -0.151 NA
ATOM     23  N   UNL     1      -7.652  -7.339   1.122  0.00  0.00    -0.217 N 
ATOM     24  C   UNL     1      -7.824  -7.356  -0.224  0.00  0.00    +0.150 A 
ATOM     25  S   UNL     1      -9.088  -8.045  -1.149  0.00  0.00    -0.023 S 
ATOM     26  S   UNL     1      -6.378  -6.459  -0.767  0.00  0.00    -0.034 S 
BRANCH  23  27
ATOM     27  C   UNL     1      -8.586  -7.945   1.969  0.00  0.00    +0.067 A 
ATOM     28  C   UNL     1      -9.937  -7.916   1.649  0.00  0.00    +0.030 A 
ATOM     29  C   UNL     1     -10.857  -8.519   2.484  0.00  0.00    +0.040 A 
ATOM     30  C   UNL     1     -10.435  -9.143   3.645  0.00  0.00    +0.124 A 
ATOM     31  C   UNL     1      -9.089  -9.169   3.970  0.00  0.00    +0.040 A 
ATOM     32  C   UNL     1      -8.165  -8.572   3.135  0.00  0.00    +0.030 A 
ATOM     33  F   UNL     1     -11.337  -9.727   4.464  0.00  0.00    -0.205 F 
ENDBRANCH  23  27
ENDBRANCH  20  21
ENDBRANCH  19  20
ENDBRANCH   4  19
TORSDOF 5
