REMARK  Name = ZINC36640607
REMARK  8 active torsions:
REMARK  status: ('A' for Active; 'I' for Inactive)
REMARK    1  A    between atoms: C_1  and  C_2
REMARK    2  A    between atoms: C_2  and  N_3
REMARK    3  A    between atoms: N_3  and  C_4
REMARK    4  A    between atoms: N_3  and  C_6
REMARK    5  A    between atoms: C_4  and  C_5
REMARK    6  A    between atoms: C_6  and  C_7
REMARK    7  A    between atoms: C_7  and  N_8
REMARK    8  A    between atoms: C_20  and  C_22
REMARK                            x       y       z     vdW  Elec       q    Type
REMARK                         _______ _______ _______ _____ _____    ______ ____
ROOT
ATOM      1  N   UNL     1      -0.735  -3.600   1.850  0.00  0.00    -0.252 N 
ATOM      2  C   UNL     1       0.378  -4.354   1.512  0.00  0.00    +0.168 A 
ATOM      3  N   UNL     1       0.623  -5.618   1.768  0.00  0.00    -0.221 NA
ATOM      4  C   UNL     1       1.762  -6.230   1.374  0.00  0.00    +0.116 A 
ATOM      5  C   UNL     1       2.148  -7.576   1.584  0.00  0.00    +0.152 A 
ATOM      6  C   UNL     1       3.350  -8.042   1.115  0.00  0.00    +0.079 A 
ATOM      7  C   UNL     1       4.227  -7.217   0.423  0.00  0.00    +0.127 A 
ATOM      8  C   UNL     1       3.881  -5.895   0.200  0.00  0.00    +0.055 A 
ATOM      9  C   UNL     1       2.678  -5.421   0.666  0.00  0.00    +0.046 A 
ATOM     10  S   UNL     1       1.839  -3.857   0.612  0.00  0.00    -0.052 S 
ATOM     11  F   UNL     1       5.406  -7.699  -0.028  0.00  0.00    -0.205 F 
ATOM     12  F   UNL     1       1.323  -8.411   2.254  0.00  0.00    -0.203 F 
ATOM     13  C   UNL     1      -1.747  -4.162   2.540  0.00  0.00    +0.227 C 
ATOM     14  O   UNL     1      -1.664  -5.316   2.906  0.00  0.00    -0.275 OA
ENDROOT
BRANCH  13  15
ATOM     15  C   UNL     1      -2.981  -3.358   2.858  0.00  0.00    +0.048 C 
ATOM     16  C   UNL     1      -3.619  -2.868   1.557  0.00  0.00    +0.019 C 
ATOM     17  C   UNL     1      -4.872  -2.051   1.879  0.00  0.00    -0.009 C 
ATOM     18  C   UNL     1      -5.871  -2.927   2.638  0.00  0.00    +0.007 C 
ATOM     19  C   UNL     1      -5.232  -3.417   3.940  0.00  0.00    -0.009 C 
ATOM     20  C   UNL     1      -3.979  -4.234   3.617  0.00  0.00    +0.019 C 
ATOM     21  C   UNL     1      -4.849  -2.215   4.804  0.00  0.00    +0.007 C 
ATOM     22  C   UNL     1      -3.850  -1.339   4.045  0.00  0.00    -0.009 C 
ATOM     23  C   UNL     1      -4.489  -0.848   2.744  0.00  0.00    +0.007 C 
ATOM     24  C   UNL     1      -2.598  -2.155   3.722  0.00  0.00    +0.019 C 
ENDBRANCH  13  15
BRANCH   1  25
ATOM     25  C   UNL     1      -0.811  -2.191   1.457  0.00  0.00    +0.097 C 
BRANCH  25  26
ATOM     26  C   UNL     1      -0.681  -2.078  -0.064  0.00  0.00    -0.059 C 
BRANCH  26  27
ATOM     27  N   UNL     1      -0.900  -0.684  -0.472  0.00  0.00    +0.380 N 
ATOM     28  H   UNL     1      -1.791  -0.366  -0.119  0.00  0.00    -0.082 HD
BRANCH  27  30
ATOM     29  C   UNL     1      -0.116   1.626  -0.257  0.00  0.00    -0.017 C 
ATOM     30  C   UNL     1       0.172   0.160   0.073  0.00  0.00    -0.082 C 
ENDBRANCH  27  30
BRANCH  27  31
ATOM     31  C   UNL     1      -0.895  -0.596  -1.938  0.00  0.00    -0.082 C 
ATOM     32  C   UNL     1      -2.079  -1.385  -2.501  0.00  0.00    -0.017 C 
ENDBRANCH  27  31
ENDBRANCH  26  27
ENDBRANCH  25  26
ENDBRANCH   1  25
TORSDOF 6
