REMARK  Name = ZINC40036539
REMARK  13 active torsions:
REMARK  status: ('A' for Active; 'I' for Inactive)
REMARK    1  A    between atoms: C_1  and  C_2
REMARK    2  A    between atoms: C_2  and  C_3
REMARK    3  A    between atoms: C_3  and  C_4
REMARK    4  A    between atoms: C_4  and  C_5
REMARK    5  A    between atoms: C_5  and  O_6
REMARK    6  A    between atoms: O_6  and  C_7
REMARK    7  A    between atoms: C_10  and  C_13
REMARK    8  A    between atoms: N_14  and  N_15
REMARK    9  A    between atoms: N_22  and  C_23
REMARK   10  A    between atoms: C_29  and  C_37
REMARK   11  A    between atoms: C_29  and  C_38
REMARK   12  A    between atoms: C_38  and  C_39
REMARK   13  A    between atoms: C_39  and  C_40
REMARK                            x       y       z     vdW  Elec       q    Type
REMARK                         _______ _______ _______ _____ _____    ______ ____
ROOT
ATOM      1  N   UNL     1       3.586  -8.637  -8.603  0.00  0.00    -0.206 N 
ATOM      2  C   UNL     1       4.088  -9.900  -8.427  0.00  0.00    +0.223 A 
ATOM      3  N   UNL     1       3.679 -10.618  -7.401  0.00  0.00    -0.214 NA
ATOM      4  C   UNL     1       4.147 -11.854  -7.198  0.00  0.00    +0.084 A 
ATOM      5  C   UNL     1       5.080 -12.395  -8.071  0.00  0.00    +0.050 A 
ATOM      6  C   UNL     1       5.508 -11.627  -9.162  0.00  0.00    +0.264 A 
ATOM      7  O   UNL     1       6.325 -12.071  -9.953  0.00  0.00    -0.267 OA
ATOM      8  N   UNL     1       4.994 -10.389  -9.322  0.00  0.00    -0.248 N 
ATOM      9  C   UNL     1       5.621 -13.777  -7.840  0.00  0.00    +0.004 C 
ATOM     10  C   UNL     1       4.538 -14.691  -7.273  0.00  0.00    +0.047 C 
ATOM     11  C   UNL     1       3.876 -14.051  -6.083  0.00  0.00    -0.037 A 
ATOM     12  C   UNL     1       3.684 -12.669  -6.052  0.00  0.00    +0.004 A 
ATOM     13  C   UNL     1       3.066 -12.075  -4.956  0.00  0.00    +0.010 A 
ATOM     14  C   UNL     1       2.648 -12.858  -3.898  0.00  0.00    +0.001 A 
ATOM     15  C   UNL     1       2.843 -14.227  -3.930  0.00  0.00    +0.000 A 
ATOM     16  C   UNL     1       3.455 -14.823  -5.020  0.00  0.00    +0.004 A 
ATOM     17  C   UNL     1       6.121 -14.351  -9.168  0.00  0.00    +0.017 C 
ATOM     18  H   UNL     1       3.935  -8.071  -9.310  0.00  0.00    +0.177 HD
ENDROOT
BRANCH   8  19
ATOM     19  C   UNL     1       5.396  -9.602 -10.408  0.00  0.00    +0.053 A 
ATOM     20  C   UNL     1       4.738  -9.707 -11.626  0.00  0.00    +0.026 A 
ATOM     21  C   UNL     1       5.138  -8.930 -12.695  0.00  0.00    +0.002 A 
ATOM     22  C   UNL     1       6.192  -8.046 -12.554  0.00  0.00    +0.000 A 
ATOM     23  C   UNL     1       6.850  -7.939 -11.342  0.00  0.00    +0.002 A 
ATOM     24  C   UNL     1       6.451  -8.710 -10.268  0.00  0.00    +0.026 A 
ENDBRANCH   8  19
BRANCH   1  26
ATOM     25  C   UNL     1       2.095  -6.966  -7.930  0.00  0.00    +0.138 C 
ATOM     26  N   UNL     1       2.570  -8.163  -7.763  0.00  0.00    -0.188 NA
BRANCH  25  30
ATOM     27  C   UNL     1      -0.984  -5.531  -5.384  0.00  0.00    +0.121 A 
ATOM     28  C   UNL     1      -0.486  -4.718  -6.395  0.00  0.00    +0.046 A 
ATOM     29  C   UNL     1       0.514  -5.180  -7.223  0.00  0.00    +0.013 A 
ATOM     30  C   UNL     1       1.026  -6.468  -7.046  0.00  0.00    -0.005 A 
ATOM     31  C   UNL     1       0.522  -7.282  -6.028  0.00  0.00    +0.013 A 
ATOM     32  C   UNL     1      -0.474  -6.809  -5.200  0.00  0.00    +0.046 A 
BRANCH  27  33
ATOM     33  O   UNL     1      -1.970  -5.072  -4.570  0.00  0.00    -0.492 OA
BRANCH  33  34
ATOM     34  C   UNL     1      -2.449  -3.748  -4.814  0.00  0.00    +0.229 C 
BRANCH  34  35
ATOM     35  C   UNL     1      -3.548  -3.409  -3.805  0.00  0.00    +0.041 C 
BRANCH  35  36
ATOM     36  C   UNL     1      -4.061  -1.991  -4.067  0.00  0.00    +0.003 C 
BRANCH  36  38
ATOM     37  C   UNL     1      -5.673  -0.235  -3.320  0.00  0.00    +0.004 C 
ATOM     38  C   UNL     1      -5.160  -1.652  -3.058  0.00  0.00    -0.003 C 
ENDBRANCH  36  38
ENDBRANCH  35  36
ENDBRANCH  34  35
ENDBRANCH  33  34
ENDBRANCH  27  33
ENDBRANCH  25  30
ENDBRANCH   1  26
BRANCH   9  39
ATOM     39  C   UNL     1       6.787 -13.704  -6.853  0.00  0.00    +0.011 C 
BRANCH  39  40
ATOM     40  C   UNL     1       7.889 -12.812  -7.429  0.00  0.00    -0.003 C 
ATOM     41  C   UNL     1       9.055 -12.739  -6.442  0.00  0.00    +0.004 C 
ENDBRANCH  39  40
ENDBRANCH   9  39
TORSDOF 10
