REMARK  Name = ZINC12486484
REMARK  13 active torsions:
REMARK  status: ('A' for Active; 'I' for Inactive)
REMARK    1  A    between atoms: C_1  and  C_2
REMARK    2  A    between atoms: C_2  and  C_3
REMARK    3  A    between atoms: C_3  and  C_5
REMARK    4  A    between atoms: C_3  and  C_6
REMARK    5  A    between atoms: C_9  and  N_12
REMARK    6  A    between atoms: N_12  and  C_13
REMARK    7  A    between atoms: C_13  and  C_15
REMARK    8  A    between atoms: C_13  and  C_21
REMARK    9  A    between atoms: N_23  and  C_24
REMARK   10  A    between atoms: C_24  and  C_25
REMARK   11  A    between atoms: C_31  and  C_33
REMARK   12  A    between atoms: C_33  and  N_34
REMARK   13  A    between atoms: C_35  and  C_37
REMARK                            x       y       z     vdW  Elec       q    Type
REMARK                         _______ _______ _______ _____ _____    ______ ____
ROOT
ATOM      1  N   UNL     1      -2.206  -3.553  -0.187  0.00  0.00    -0.254 N 
ATOM      2  C   UNL     1      -1.266  -2.608   0.019  0.00  0.00    +0.238 C 
ATOM      3  O   UNL     1      -0.101  -2.851  -0.215  0.00  0.00    -0.274 OA
ENDROOT
BRANCH   1   7
ATOM      4  C   UNL     1      -6.203  -2.733   0.653  0.00  0.00    -0.044 A 
ATOM      5  C   UNL     1      -5.459  -1.841  -0.098  0.00  0.00    +0.006 A 
ATOM      6  C   UNL     1      -4.134  -2.110  -0.378  0.00  0.00    +0.024 A 
ATOM      7  C   UNL     1      -3.548  -3.277   0.095  0.00  0.00    +0.037 A 
ATOM      8  C   UNL     1      -4.300  -4.173   0.845  0.00  0.00    +0.024 A 
ATOM      9  C   UNL     1      -5.623  -3.896   1.126  0.00  0.00    +0.006 A 
BRANCH   4  10
ATOM     10  C   UNL     1      -7.649  -2.436   0.957  0.00  0.00    +0.016 C 
ATOM     11  C   UNL     1      -7.846  -2.359   2.472  0.00  0.00    +0.012 C 
BRANCH  10  13
ATOM     12  C   UNL     1     -10.002  -3.187   0.582  0.00  0.00    +0.004 C 
ATOM     13  C   UNL     1      -8.529  -3.549   0.384  0.00  0.00    +0.004 C 
ENDBRANCH  10  13
ENDBRANCH   4  10
ENDBRANCH   1   7
BRANCH   1  14
ATOM     14  C   UNL     1      -1.821  -4.867  -0.706  0.00  0.00    +0.197 C 
BRANCH  14  15
ATOM     15  C   UNL     1      -0.792  -5.486   0.205  0.00  0.00    -0.018 A 
ATOM     16  C   UNL     1      -0.311  -4.774   1.288  0.00  0.00    +0.006 A 
ATOM     17  C   UNL     1       0.630  -5.343   2.126  0.00  0.00    +0.000 A 
ATOM     18  C   UNL     1       1.096  -6.621   1.876  0.00  0.00    +0.000 A 
ATOM     19  C   UNL     1       0.618  -7.330   0.790  0.00  0.00    +0.000 A 
ATOM     20  C   UNL     1      -0.326  -6.763  -0.046  0.00  0.00    +0.006 A 
ENDBRANCH  14  15
BRANCH  14  21
ATOM     21  C   UNL     1      -1.240  -4.711  -2.088  0.00  0.00    +0.239 C 
ATOM     22  O   UNL     1      -1.115  -3.606  -2.572  0.00  0.00    -0.273 OA
ATOM     23  N   UNL     1      -0.857  -5.799  -2.785  0.00  0.00    -0.311 N 
ATOM     24  H   UNL     1      -0.957  -6.683  -2.398  0.00  0.00    +0.149 HD
BRANCH  23  25
ATOM     25  C   UNL     1      -0.292  -5.647  -4.128  0.00  0.00    +0.135 C 
BRANCH  25  26
ATOM     26  C   UNL     1       0.056  -7.026  -4.694  0.00  0.00    +0.135 C 
ATOM     27  C   UNL     1       0.733  -6.885  -6.075  0.00  0.00    +0.035 C 
ATOM     28  C   UNL     1       0.182  -8.078  -6.887  0.00  0.00    +0.031 C 
ATOM     29  C   UNL     1      -0.763  -8.799  -5.901  0.00  0.00    +0.160 C 
ATOM     30  O   UNL     1      -1.147  -7.784  -4.946  0.00  0.00    -0.375 OA
ENDBRANCH  25  26
ENDBRANCH  23  25
ENDBRANCH  14  21
ENDBRANCH   1  14
BRANCH   2  31
ATOM     31  C   UNL     1      -1.664  -1.252   0.541  0.00  0.00    +0.201 C 
BRANCH  31  32
ATOM     32  N   UNL     1      -0.687  -0.806   1.538  0.00  0.00    -0.300 N 
ATOM     33  C   UNL     1      -0.839   0.388   2.144  0.00  0.00    +0.280 C 
ATOM     34  O   UNL     1      -1.788   1.096   1.863  0.00  0.00    -0.267 OA
ATOM     35  H   UNL     1       0.070  -1.370   1.761  0.00  0.00    +0.150 HD
BRANCH  33  36
ATOM     36  C   UNL     1       0.140   0.834   3.141  0.00  0.00    +0.189 A 
ATOM     37  C   UNL     1       0.105   2.014   3.827  0.00  0.00    +0.054 A 
ATOM     38  C   UNL     1       1.228   2.025   4.669  0.00  0.00    +0.042 A 
ATOM     39  C   UNL     1       1.890   0.865   4.463  0.00  0.00    +0.196 A 
ATOM     40  O   UNL     1       1.228   0.147   3.546  0.00  0.00    -0.458 OA
ENDBRANCH  33  36
ENDBRANCH  31  32
ENDBRANCH   2  31
TORSDOF 11
