REMARK  Name = ZINC33192314
REMARK  6 active torsions:
REMARK  status: ('A' for Active; 'I' for Inactive)
REMARK    1  A    between atoms: C_1  and  C_2
REMARK    2  A    between atoms: C_2  and  C_4
REMARK    3  A    between atoms: C_2  and  N_10
REMARK    4  A    between atoms: C_11  and  C_13
REMARK    5  A    between atoms: N_16  and  S_19
REMARK    6  A    between atoms: S_19  and  C_22
REMARK                            x       y       z     vdW  Elec       q    Type
REMARK                         _______ _______ _______ _____ _____    ______ ____
ROOT
ATOM      1  C   UNL     1      -8.158  -3.749   1.714  0.00  0.00    +0.077 C 
ATOM      2  C   UNL     1      -8.214  -2.686   2.814  0.00  0.00    +0.030 C 
ATOM      3  C   UNL     1      -6.951  -1.821   2.748  0.00  0.00    +0.110 C 
ATOM      4  N   UNL     1      -6.821  -1.277   1.389  0.00  0.00    -0.177 NA
ATOM      5  C   UNL     1      -6.853  -2.205   0.251  0.00  0.00    +0.110 C 
ATOM      6  C   UNL     1      -8.111  -3.066   0.345  0.00  0.00    +0.030 C 
ENDROOT
BRANCH   1   8
ATOM      7  N   UNL     1      -9.550  -5.634   0.922  0.00  0.00    -0.308 N 
ATOM      8  C   UNL     1      -9.382  -4.623   1.798  0.00  0.00    +0.217 C 
ATOM      9  O   UNL     1     -10.218  -4.417   2.652  0.00  0.00    -0.275 OA
ATOM     10  H   UNL     1      -8.792  -5.821   0.147  0.00  0.00    +0.149 HD
BRANCH   7  12
ATOM     11  C   UNL     1     -11.890  -5.826   0.238  0.00  0.00    +0.033 C 
ATOM     12  C   UNL     1     -10.740  -6.484   1.004  0.00  0.00    +0.107 C 
BRANCH  12  13
ATOM     13  C   UNL     1     -10.438  -7.830   0.397  0.00  0.00    +0.011 A 
ATOM     14  C   UNL     1     -10.817  -9.061   0.821  0.00  0.00    +0.014 A 
ATOM     15  C   UNL     1     -10.419 -10.170   0.098  0.00  0.00    +0.028 A 
ATOM     16  C   UNL     1      -9.662  -9.994  -1.014  0.00  0.00    +0.078 A 
ATOM     17  S   UNL     1      -9.496  -8.217  -1.069  0.00  0.00    -0.080 S 
ATOM     18 CL   UNL     1      -9.026 -11.185  -2.104  0.00  0.00    -0.076 Cl
ENDBRANCH  12  13
ENDBRANCH   7  12
ENDBRANCH   1   8
BRANCH   4  19
ATOM     19  S   UNL     1      -6.650   0.352   1.146  0.00  0.00    +0.061 S 
ATOM     20  O   UNL     1      -7.207   0.994   2.285  0.00  0.00    -0.153 OA
ATOM     21  O   UNL     1      -7.104   0.615  -0.175  0.00  0.00    -0.153 OA
BRANCH  19  22
ATOM     22  C   UNL     1      -4.923   0.703   1.164  0.00  0.00    +0.106 A 
ATOM     23  C   UNL     1      -4.293   1.023   2.353  0.00  0.00    +0.029 A 
ATOM     24  C   UNL     1      -2.941   1.299   2.358  0.00  0.00    +0.006 A 
ATOM     25  C   UNL     1      -2.208   1.258   1.179  0.00  0.00    -0.044 A 
ATOM     26  C   UNL     1      -2.834   0.935  -0.003  0.00  0.00    -0.042 A 
ATOM     27  C   UNL     1      -4.196   0.659  -0.007  0.00  0.00    +0.032 A 
ATOM     28  C   UNL     1      -2.100   0.864  -1.316  0.00  0.00    +0.035 C 
ATOM     29  C   UNL     1      -0.765   1.599  -1.226  0.00  0.00    +0.005 C 
ATOM     30  C   UNL     1      -0.013   1.086   0.008  0.00  0.00    +0.005 C 
ATOM     31  C   UNL     1      -0.738   1.584   1.257  0.00  0.00    +0.035 C 
ENDBRANCH  19  22
ENDBRANCH   4  19
TORSDOF 5
