REMARK  Name = ZINC13078146
REMARK  7 active torsions:
REMARK  status: ('A' for Active; 'I' for Inactive)
REMARK    1  A    between atoms: C_1  and  C_2
REMARK    2  A    between atoms: C_3  and  C_12
REMARK    3  A    between atoms: C_4  and  C_11
REMARK    4  A    between atoms: CA_7  and  C_8
REMARK    5  A    between atoms: C_12  and  C_14
REMARK    6  A    between atoms: C_15  and  C_16
REMARK    7  A    between atoms: C_19  and  C_21
REMARK                            x       y       z     vdW  Elec       q    Type
REMARK                         _______ _______ _______ _____ _____    ______ ____
ROOT
ATOM      1  C   UNL     1       0.109  -1.351  -3.586  0.00  0.00    +0.055 C 
ATOM      2  C   UNL     1       0.200  -0.940  -4.879  0.00  0.00    +0.050 C 
ENDROOT
BRANCH   2   3
ATOM      3  C   UNL     1       0.312  -1.891  -5.917  0.00  0.00    +0.129 A 
ATOM      4  C   UNL     1       0.417  -1.609  -7.267  0.00  0.00    +0.050 A 
ATOM      5  C   UNL     1       0.505  -2.835  -7.929  0.00  0.00    +0.050 A 
ATOM      6  C   UNL     1       0.450  -3.818  -6.966  0.00  0.00    +0.136 A 
ATOM      7  O   UNL     1       0.340  -3.231  -5.761  0.00  0.00    -0.455 OA
BRANCH   6   8
ATOM      8  C   UNL     1       0.509  -5.272  -7.214  0.00  0.00    +0.017 A 
ATOM      9  C   UNL     1       0.637  -5.756  -8.518  0.00  0.00    +0.012 A 
ATOM     10  C   UNL     1       0.692  -7.116  -8.743  0.00  0.00    +0.016 A 
ATOM     11  C   UNL     1       0.621  -8.000  -7.680  0.00  0.00    +0.018 A 
ATOM     12  C   UNL     1       0.494  -7.526  -6.385  0.00  0.00    +0.016 A 
ATOM     13  C   UNL     1       0.444  -6.169  -6.145  0.00  0.00    +0.012 A 
ATOM     14 BR   UNL     1       0.696  -9.863  -7.997  0.00  0.00    -0.050 Br
ENDBRANCH   6   8
ENDBRANCH   2   3
BRANCH   1  15
ATOM     15  C   UNL     1      -0.003  -0.399  -2.547  0.00  0.00    +0.188 C 
ATOM     16  O   UNL     1      -0.113   0.785  -2.815  0.00  0.00    -0.287 OA
BRANCH  15  19
ATOM     17  C   UNL     1       2.592  -0.918  -0.778  0.00  0.00    +0.047 C 
ATOM     18  C   UNL     1       1.157  -1.071  -0.346  0.00  0.00    -0.008 A 
ATOM     19  C   UNL     1       0.013  -0.839  -1.138  0.00  0.00    +0.046 A 
ATOM     20  C   UNL     1      -1.091  -1.100  -0.346  0.00  0.00    +0.025 A 
ATOM     21  N   UNL     1      -0.662  -1.474   0.870  0.00  0.00    -0.352 N 
ATOM     22  H   UNL     1      -1.232  -1.714   1.617  0.00  0.00    +0.166 HD
ATOM     23  CA  UNL     1       0.717  -1.467   0.886  0.00  0.00    +0.132 A 
ATOM     24  C   UNL     1      -2.530  -0.984  -0.776  0.00  0.00    +0.064 C 
BRANCH  23  25
ATOM     25  C   UNL     1       1.563  -1.819   2.026  0.00  0.00    +0.403 C 
ATOM     26  O   UNL     1       1.052  -2.161   3.085  0.00  0.00    -0.239 OA
ATOM     27  OXT UNL     1       2.782  -1.772   1.922  0.00  0.00    -0.239 OA
ENDBRANCH  23  25
ENDBRANCH  15  19
ENDBRANCH   1  15
TORSDOF 5
