REMARK  Name = ZINC00899913
REMARK  8 active torsions:
REMARK  status: ('A' for Active; 'I' for Inactive)
REMARK    1  A    between atoms: C_11  and  C_13
REMARK    2  A    between atoms: C_13  and  S_14
REMARK    3  A    between atoms: S_14  and  C_15
REMARK    4  A    between atoms: C_18  and  C_27
REMARK    5  A    between atoms: N_19  and  C_20
REMARK    6  A    between atoms: C_20  and  C_21
REMARK    7  A    between atoms: C_27  and  N_28
REMARK    8  A    between atoms: N_28  and  C_29
REMARK                            x       y       z     vdW  Elec       q    Type
REMARK                         _______ _______ _______ _____ _____    ______ ____
ROOT
ATOM      1  C   UNL     1      -6.364  -0.663   0.642  0.00  0.00    +0.192 A 
ATOM      2  N   UNL     1      -6.294  -0.623  -0.668  0.00  0.00    -0.122 NA
ATOM      3  N   UNL     1      -5.356   0.178  -1.030  0.00  0.00    -0.132 NA
ATOM      4  C   UNL     1      -4.771   0.685   0.018  0.00  0.00    +0.151 A 
ATOM      5  N   UNL     1      -5.395   0.170   1.121  0.00  0.00    -0.302 N 
ENDROOT
BRANCH   1   6
ATOM      6  S   UNL     1      -7.496  -1.614   1.602  0.00  0.00    -0.077 S 
BRANCH   6   7
ATOM      7  C   UNL     1      -8.426  -2.425   0.278  0.00  0.00    +0.173 C 
BRANCH   7  18
ATOM      8  C   UNL     1     -13.421  -6.231   1.761  0.00  0.00    +0.000 A 
ATOM      9  C   UNL     1     -12.357  -5.813   2.540  0.00  0.00    +0.002 A 
ATOM     10  C   UNL     1     -11.348  -5.058   1.978  0.00  0.00    +0.024 A 
ATOM     11  C   UNL     1     -11.400  -4.718   0.631  0.00  0.00    +0.039 A 
ATOM     12  C   UNL     1     -12.464  -5.139  -0.150  0.00  0.00    -0.026 A 
ATOM     13  C   UNL     1     -13.474  -5.895   0.422  0.00  0.00    +0.005 A 
ATOM     14  C   UNL     1     -12.549  -4.799  -1.614  0.00  0.00    +0.038 C 
ATOM     15  C   UNL     1     -11.671  -3.589  -1.934  0.00  0.00    +0.024 C 
ATOM     16  C   UNL     1     -10.265  -3.834  -1.381  0.00  0.00    +0.114 C 
ATOM     17  N   UNL     1     -10.366  -3.947   0.081  0.00  0.00    -0.270 N 
ATOM     18  C   UNL     1      -9.482  -3.316   0.879  0.00  0.00    +0.230 C 
ATOM     19  O   UNL     1      -9.537  -3.465   2.082  0.00  0.00    -0.274 OA
ENDBRANCH   7  18
ENDBRANCH   6   7
ENDBRANCH   1   6
BRANCH   5  20
ATOM     20  C   UNL     1      -5.086   0.454   2.525  0.00  0.00    +0.157 C 
BRANCH  20  21
ATOM     21  C   UNL     1      -5.914   1.651   2.997  0.00  0.00    +0.138 C 
ATOM     22  C   UNL     1      -5.508   2.033   4.437  0.00  0.00    +0.035 C 
ATOM     23  C   UNL     1      -6.878   2.391   5.080  0.00  0.00    +0.031 C 
ATOM     24  C   UNL     1      -7.814   1.392   4.355  0.00  0.00    +0.160 C 
ATOM     25  O   UNL     1      -7.304   1.304   3.015  0.00  0.00    -0.375 OA
ENDBRANCH  20  21
ENDBRANCH   5  20
BRANCH   4  26
ATOM     26  C   UNL     1      -3.624   1.662   0.016  0.00  0.00    +0.178 C 
BRANCH  26  27
ATOM     27  N   UNL     1      -2.356   0.927   0.031  0.00  0.00    -0.337 N 
ATOM     28  H   UNL     1      -2.358  -0.043   0.040  0.00  0.00    +0.147 HD
BRANCH  27  29
ATOM     29  C   UNL     1      -1.144   1.624   0.031  0.00  0.00    +0.028 A 
ATOM     30  C   UNL     1       0.058   0.928   0.045  0.00  0.00    +0.026 A 
ATOM     31  C   UNL     1       1.254   1.619   0.040  0.00  0.00    +0.040 A 
ATOM     32  C   UNL     1       1.256   3.003   0.026  0.00  0.00    +0.124 A 
ATOM     33  C   UNL     1       0.058   3.699   0.018  0.00  0.00    +0.040 A 
ATOM     34  C   UNL     1      -1.140   3.013   0.023  0.00  0.00    +0.026 A 
ATOM     35  F   UNL     1       2.427   3.676   0.021  0.00  0.00    -0.205 F 
ENDBRANCH  27  29
ENDBRANCH  26  27
ENDBRANCH   4  26
TORSDOF 8
