REMARK  Name = ZINC40119374
REMARK  11 active torsions:
REMARK  status: ('A' for Active; 'I' for Inactive)
REMARK    1  A    between atoms: C_1  and  N_2
REMARK    2  A    between atoms: N_2  and  C_3
REMARK    3  A    between atoms: N_2  and  C_4
REMARK    4  A    between atoms: C_4  and  C_5
REMARK    5  A    between atoms: C_5  and  N_6
REMARK    6  A    between atoms: C_7  and  C_9
REMARK    7  A    between atoms: C_20  and  C_22
REMARK    8  A    between atoms: C_22  and  C_23
REMARK    9  A    between atoms: C_23  and  N_24
REMARK   10  A    between atoms: N_24  and  C_25
REMARK   11  A    between atoms: C_30  and  N_31
REMARK                            x       y       z     vdW  Elec       q    Type
REMARK                         _______ _______ _______ _____ _____    ______ ____
ROOT
ATOM      1  C   UNL     1       0.920  -0.748   6.062  0.00  0.00    +0.166 C 
ATOM      2  C   UNL     1       0.949  -2.276   6.046  0.00  0.00    +0.067 C 
ATOM      3  C   UNL     1       1.382  -2.818   7.382  0.00  0.00    -0.040 A 
ATOM      4  C   UNL     1       1.868  -4.119   7.423  0.00  0.00    +0.004 A 
ATOM      5  C   UNL     1       2.272  -4.680   8.616  0.00  0.00    +0.000 A 
ATOM      6  C   UNL     1       2.195  -3.944   9.783  0.00  0.00    +0.000 A 
ATOM      7  C   UNL     1       1.717  -2.650   9.745  0.00  0.00    +0.005 A 
ATOM      8  C   UNL     1       1.314  -2.083   8.544  0.00  0.00    -0.027 A 
ATOM      9  C   UNL     1       0.827  -0.655   8.569  0.00  0.00    +0.144 C 
ATOM     10  N   UNL     1       0.212  -0.320   7.280  0.00  0.00    -0.285 N 
ATOM     11  C   UNL     1      -0.954   0.352   7.213  0.00  0.00    +0.218 C 
ATOM     12  O   UNL     1      -1.494   0.525   6.141  0.00  0.00    -0.276 OA
ENDROOT
BRANCH   1  14
ATOM     13  N   UNL     1       0.433   1.006   4.387  0.00  0.00    -0.316 N 
ATOM     14  C   UNL     1       0.192  -0.239   4.844  0.00  0.00    +0.234 C 
ATOM     15  O   UNL     1      -0.610  -0.949   4.276  0.00  0.00    -0.274 OA
ATOM     16  H   UNL     1       1.074   1.574   4.842  0.00  0.00    +0.149 HD
BRANCH  13  17
ATOM     17  C   UNL     1      -0.275   1.501   3.203  0.00  0.00    +0.085 C 
BRANCH  17  18
ATOM     18  C   UNL     1       0.178   2.930   2.899  0.00  0.00    -0.061 C 
BRANCH  18  20
ATOM     19  C   UNL     1      -1.967   3.528   2.007  0.00  0.00    -0.097 C 
ATOM     20  N   UNL     1      -0.531   3.427   1.712  0.00  0.00    +0.377 N 
ATOM     21  C   UNL     1      -0.011   4.752   1.349  0.00  0.00    -0.097 C 
ATOM     22  H   UNL     1      -0.390   2.788   0.944  0.00  0.00    -0.083 HD
ENDBRANCH  18  20
ENDBRANCH  17  18
ENDBRANCH  13  17
ENDBRANCH   1  14
BRANCH  11  23
ATOM     23  C   UNL     1      -1.587   0.888   8.472  0.00  0.00    +0.114 C 
BRANCH  23  24
ATOM     24  C   UNL     1      -2.893   1.604   8.120  0.00  0.00    +0.111 C 
BRANCH  24  25
ATOM     25  N   UNL     1      -3.509   2.125   9.343  0.00  0.00    -0.342 N 
ATOM     26  H   UNL     1      -3.077   1.986  10.200  0.00  0.00    +0.146 HD
BRANCH  25  27
ATOM     27  C   UNL     1      -4.717   2.822   9.274  0.00  0.00    +0.058 A 
ATOM     28  C   UNL     1      -5.391   2.929   8.064  0.00  0.00    +0.025 A 
ATOM     29  C   UNL     1      -6.586   3.618   8.000  0.00  0.00    +0.002 A 
ATOM     30  C   UNL     1      -7.112   4.201   9.138  0.00  0.00    +0.002 A 
ATOM     31  C   UNL     1      -6.444   4.096  10.344  0.00  0.00    +0.034 A 
ATOM     32  C   UNL     1      -5.252   3.403  10.417  0.00  0.00    +0.147 A 
BRANCH  32  33
ATOM     33  N   UNL     1      -4.540   3.287  11.709  0.00  0.00    +0.058 N 
ATOM     34  O   UNL     1      -3.946   2.270  11.982  0.00  0.00    -0.126 OA
ATOM     35  O   UNL     1      -4.554   4.208  12.492  0.00  0.00    -0.126 OA
ENDBRANCH  32  33
ENDBRANCH  25  27
ENDBRANCH  24  25
ENDBRANCH  23  24
ENDBRANCH  11  23
TORSDOF 9
