REMARK  Name = ZINC29776221
REMARK  4 active torsions:
REMARK  status: ('A' for Active; 'I' for Inactive)
REMARK    1  A    between atoms: C_1  and  C_2
REMARK    2  A    between atoms: C_2  and  C_3
REMARK    3  A    between atoms: C_2  and  C_4
REMARK    4  A    between atoms: C_10  and  C_12
REMARK                            x       y       z     vdW  Elec       q    Type
REMARK                         _______ _______ _______ _____ _____    ______ ____
ROOT
ATOM      1  C   UNL     1       3.019   5.720   3.493  0.00  0.00    +0.053 A 
ATOM      2  C   UNL     1       2.112   6.711   3.315  0.00  0.00    +0.072 A 
ATOM      3  S   UNL     1       0.752   5.793   2.607  0.00  0.00    -0.060 S 
ATOM      4  C   UNL     1       1.505   4.228   2.618  0.00  0.00    +0.165 A 
ATOM      5  N   UNL     1       2.686   4.493   3.142  0.00  0.00    -0.229 NA
ATOM      6  N   UNL     1       0.992   3.009   2.191  0.00  0.00    -0.262 N 
ATOM      7  C   UNL     1      -0.255   2.943   1.684  0.00  0.00    +0.260 C 
ATOM      8  O   UNL     1      -0.929   3.947   1.600  0.00  0.00    -0.271 OA
ATOM      9  H   UNL     1       1.604   2.098   2.267  0.00  0.00    +0.157 HD
ENDROOT
BRANCH   7  10
ATOM     10  C   UNL     1      -0.810   1.621   1.220  0.00  0.00    +0.263 C 
ATOM     11  C   UNL     1      -0.013   1.086   0.008  0.00  0.00    +0.093 C 
ATOM     12  C   UNL     1      -0.817   1.623  -1.160  0.00  0.00    -0.000 A 
ATOM     13  C   UNL     1      -0.527   1.755  -2.500  0.00  0.00    +0.027 A 
ATOM     14  C   UNL     1      -1.466   2.297  -3.361  0.00  0.00    +0.041 A 
ATOM     15  C   UNL     1      -2.693   2.706  -2.869  0.00  0.00    +0.023 A 
ATOM     16  C   UNL     1      -2.986   2.572  -1.528  0.00  0.00    +0.047 A 
ATOM     17  C   UNL     1      -2.048   2.023  -0.656  0.00  0.00    +0.125 A 
ATOM     18  O   UNL     1      -2.134   1.786   0.682  0.00  0.00    -0.479 OA
ATOM     19 CL   UNL     1      -1.105   2.465  -5.050  0.00  0.00    -0.084 Cl
ENDBRANCH   7  10
BRANCH   1  21
ATOM     20  C   UNL     1       5.324   6.474   2.977  0.00  0.00    +0.014 C 
ATOM     21  C   UNL     1       4.374   6.012   4.084  0.00  0.00    +0.032 C 
ATOM     22  C   UNL     1       4.244   7.113   5.138  0.00  0.00    +0.014 C 
ENDBRANCH   1  21
TORSDOF 2
