REMARK  Name = ZINC36039505
REMARK  8 active torsions:
REMARK  status: ('A' for Active; 'I' for Inactive)
REMARK    1  A    between atoms: C_1  and  C_2
REMARK    2  A    between atoms: C_6  and  N_8
REMARK    3  A    between atoms: C_10  and  C_25
REMARK    4  A    between atoms: N_13  and  C_14
REMARK    5  A    between atoms: C_14  and  C_16
REMARK    6  A    between atoms: C_16  and  N_17
REMARK    7  A    between atoms: N_17  and  C_18
REMARK    8  A    between atoms: C_18  and  C_19
REMARK                            x       y       z     vdW  Elec       q    Type
REMARK                         _______ _______ _______ _____ _____    ______ ____
ROOT
ATOM      1  N   UNL     1       0.052  -2.798   2.394  0.00  0.00    -0.287 N 
ATOM      2  C   UNL     1       0.045  -2.244   3.658  0.00  0.00    +0.120 A 
ATOM      3  C   UNL     1       0.064  -3.248   4.553  0.00  0.00    +0.066 A 
ATOM      4  N   UNL     1       0.084  -4.446   3.850  0.00  0.00    -0.326 N 
ATOM      5  C   UNL     1       0.071  -4.152   2.524  0.00  0.00    +0.205 A 
ATOM      6  N   UNL     1       0.078  -5.035   1.526  0.00  0.00    -0.148 NA
ATOM      7  H   UNL     1       0.100  -5.335   4.237  0.00  0.00    +0.169 HD
ENDROOT
BRANCH   1  13
ATOM      8  C   UNL     1      -0.018   1.503   0.010  0.00  0.00    +0.044 C 
ATOM      9  C   UNL     1       0.002  -0.004   0.002  0.00  0.00    -0.048 A 
ATOM     10  C   UNL     1       0.006  -0.688  -1.200  0.00  0.00    +0.003 A 
ATOM     11  C   UNL     1       0.025  -2.071  -1.212  0.00  0.00    +0.002 A 
ATOM     12  C   UNL     1       0.040  -2.773  -0.022  0.00  0.00    +0.026 A 
ATOM     13  C   UNL     1       0.037  -2.089   1.186  0.00  0.00    +0.049 A 
ATOM     14  C   UNL     1       0.023  -0.700   1.194  0.00  0.00    +0.029 A 
ENDBRANCH   1  13
BRANCH   3  15
ATOM     15  C   UNL     1       0.065  -3.101   6.025  0.00  0.00    -0.000 A 
ATOM     16  C   UNL     1       0.038  -1.832   6.603  0.00  0.00    +0.010 A 
ATOM     17  C   UNL     1       0.039  -1.702   7.976  0.00  0.00    +0.001 A 
ATOM     18  C   UNL     1       0.067  -2.828   8.780  0.00  0.00    +0.000 A 
ATOM     19  C   UNL     1       0.094  -4.089   8.214  0.00  0.00    +0.001 A 
ATOM     20  C   UNL     1       0.086  -4.233   6.841  0.00  0.00    +0.010 A 
ENDBRANCH   3  15
BRANCH   6  21
ATOM     21  C   UNL     1       0.096  -6.336   1.790  0.00  0.00    +0.222 C 
ATOM     22  O   UNL     1       0.107  -6.722   2.943  0.00  0.00    -0.276 OA
BRANCH  21  23
ATOM     23  C   UNL     1       0.105  -7.334   0.661  0.00  0.00    +0.017 C 
BRANCH  23  24
ATOM     24  N   UNL     1       0.125  -8.696   1.212  0.00  0.00    +0.386 N 
ATOM     25  H   UNL     1       0.953  -8.818   1.775  0.00  0.00    -0.085 HD
ATOM     26  H   UNL     1      -0.694  -8.840   1.782  0.00  0.00    -0.085 HD
BRANCH  24  27
ATOM     27  C   UNL     1       0.133  -9.669   0.111  0.00  0.00    -0.050 C 
BRANCH  27  28
ATOM     28  C   UNL     1       0.155 -11.087   0.685  0.00  0.00    +0.101 C 
ATOM     29  C   UNL     1       0.199 -12.130  -0.461  0.00  0.00    +0.032 C 
ATOM     30  C   UNL     1       0.849 -13.339   0.266  0.00  0.00    +0.030 C 
ATOM     31  C   UNL     1       1.818 -12.648   1.249  0.00  0.00    +0.160 C 
ATOM     32  O   UNL     1       1.359 -11.303   1.437  0.00  0.00    -0.378 OA
ENDBRANCH  27  28
ENDBRANCH  24  27
ENDBRANCH  23  24
ENDBRANCH  21  23
ENDBRANCH   6  21
TORSDOF 7
