REMARK  Name = ZINC02912674
REMARK  10 active torsions:
REMARK  status: ('A' for Active; 'I' for Inactive)
REMARK    1  A    between atoms: C_1  and  C_2
REMARK    2  A    between atoms: C_2  and  C_3
REMARK    3  A    between atoms: C_2  and  C_4
REMARK    4  A    between atoms: C_2  and  C_5
REMARK    5  A    between atoms: N_11  and  C_16
REMARK    6  A    between atoms: C_16  and  C_17
REMARK    7  A    between atoms: N_19  and  C_20
REMARK    8  A    between atoms: C_20  and  C_21
REMARK    9  A    between atoms: C_21  and  C_22
REMARK   10  A    between atoms: C_22  and  N_65
REMARK                            x       y       z     vdW  Elec       q    Type
REMARK                         _______ _______ _______ _____ _____    ______ ____
ROOT
ATOM      1  C   UNL     1       0.585  -0.664  -1.018  0.00  0.00    +0.231 C 
ATOM      2  O   UNL     1       1.093  -0.046  -1.929  0.00  0.00    -0.274 OA
ATOM      3  N   UNL     1       0.002  -0.004   0.002  0.00  0.00    -0.314 N 
ATOM      4  H   UNL     1      -0.404  -0.499   0.731  0.00  0.00    +0.149 HD
ENDROOT
BRANCH   1   5
ATOM      5  C   UNL     1       0.606  -2.171  -1.026  0.00  0.00    +0.209 C 
BRANCH   5  12
ATOM      6  C   UNL     1      -1.404  -2.642  -4.742  0.00  0.00    -0.040 A 
ATOM      7  C   UNL     1      -0.816  -3.379  -5.753  0.00  0.00    +0.008 A 
ATOM      8  C   UNL     1       0.467  -3.872  -5.601  0.00  0.00    +0.048 A 
ATOM      9  C   UNL     1       1.165  -3.627  -4.431  0.00  0.00    +0.143 A 
ATOM     10  C   UNL     1       0.572  -2.890  -3.410  0.00  0.00    +0.079 A 
ATOM     11  C   UNL     1      -0.713  -2.393  -3.570  0.00  0.00    +0.031 A 
ATOM     12  N   UNL     1       1.291  -2.644  -2.232  0.00  0.00    -0.257 N 
ATOM     13  C   UNL     1       2.626  -2.854  -2.223  0.00  0.00    +0.258 C 
ATOM     14  O   UNL     1       3.263  -2.682  -1.206  0.00  0.00    -0.271 OA
ATOM     15  C   UNL     1       3.319  -3.304  -3.484  0.00  0.00    +0.325 C 
ATOM     16  O   UNL     1       2.428  -4.104  -4.264  0.00  0.00    -0.481 OA
BRANCH   6  18
ATOM     17  C   UNL     1      -3.338  -2.521  -6.288  0.00  0.00    +0.015 C 
ATOM     18  C   UNL     1      -2.803  -2.108  -4.916  0.00  0.00    -0.013 C 
ATOM     19  C   UNL     1      -3.707  -2.680  -3.822  0.00  0.00    +0.015 C 
ATOM     20  C   UNL     1      -2.782  -0.581  -4.815  0.00  0.00    +0.015 C 
ENDBRANCH   6  18
ENDBRANCH   5  12
ENDBRANCH   1   5
BRANCH   3  21
ATOM     21  C   UNL     1      -0.018   1.461   0.010  0.00  0.00    +0.102 C 
BRANCH  21  22
ATOM     22  C   UNL     1      -0.734   1.954   1.269  0.00  0.00    +0.000 C 
BRANCH  22  23
ATOM     23  C   UNL     1      -0.755   3.484   1.277  0.00  0.00    -0.077 C 
BRANCH  23  33
ATOM     24  C   UNL     1      -1.277   5.411   2.651  0.00  0.00    -0.074 C 
ATOM     25  C   UNL     1      -2.292   5.900   3.685  0.00  0.00    +0.017 C 
ATOM     26  C   UNL     1      -2.215   5.047   4.925  0.00  0.00    -0.048 A 
ATOM     27  C   UNL     1      -2.787   5.527   6.094  0.00  0.00    +0.004 A 
ATOM     28  C   UNL     1      -2.743   4.776   7.251  0.00  0.00    +0.000 A 
ATOM     29  C   UNL     1      -2.125   3.538   7.245  0.00  0.00    +0.000 A 
ATOM     30  C   UNL     1      -1.555   3.061   6.083  0.00  0.00    +0.002 A 
ATOM     31  C   UNL     1      -1.597   3.815   4.919  0.00  0.00    -0.061 A 
ATOM     32  C   UNL     1      -0.957   3.253   3.677  0.00  0.00    -0.043 C 
ATOM     33  N   UNL     1      -1.466   3.955   2.487  0.00  0.00    +0.383 N 
ATOM     34  H   UNL     1      -2.468   3.757   2.384  0.00  0.00    -0.081 HD
ENDBRANCH  23  33
ENDBRANCH  22  23
ENDBRANCH  21  22
ENDBRANCH   3  21
TORSDOF 7
