REMARK  Name = ZINC28420351
REMARK  9 active torsions:
REMARK  status: ('A' for Active; 'I' for Inactive)
REMARK    1  A    between atoms: C_1  and  C_2
REMARK    2  A    between atoms: C_6  and  N_8
REMARK    3  A    between atoms: C_9  and  C_28
REMARK    4  A    between atoms: C_12  and  S_13
REMARK    5  A    between atoms: S_13  and  C_14
REMARK    6  A    between atoms: C_14  and  C_15
REMARK    7  A    between atoms: N_17  and  C_18
REMARK    8  A    between atoms: C_22  and  N_25
REMARK    9  A    between atoms: C_23  and  C_24
REMARK                            x       y       z     vdW  Elec       q    Type
REMARK                         _______ _______ _______ _____ _____    ______ ____
ROOT
ATOM      1  N   UNL     1      -0.630   3.066   4.184  0.00  0.00    -0.270 N 
ATOM      2  C   UNL     1       0.409   2.574   4.943  0.00  0.00    +0.171 A 
ATOM      3  N   UNL     1       1.228   1.960   4.120  0.00  0.00    -0.128 NA
ATOM      4  N   UNL     1       0.779   2.028   2.919  0.00  0.00    -0.122 NA
ATOM      5  C   UNL     1      -0.355   2.688   2.896  0.00  0.00    +0.197 A 
ENDROOT
BRANCH   2   6
ATOM      6  C   UNL     1       0.574   2.716   6.404  0.00  0.00    +0.045 A 
ATOM      7  C   UNL     1      -0.268   3.355   7.256  0.00  0.00    +0.095 A 
ATOM      8  N   UNL     1       0.217   3.272   8.530  0.00  0.00    -0.360 N 
ATOM      9  H   UNL     1      -0.340   3.729   9.361  0.00  0.00    +0.165 HD
ATOM     10  C   UNL     1       1.407   2.576   8.542  0.00  0.00    +0.047 A 
ATOM     11  C   UNL     1       1.685   2.196   7.218  0.00  0.00    +0.010 A 
ATOM     12  C   UNL     1       2.840   1.472   6.928  0.00  0.00    +0.011 A 
ATOM     13  C   UNL     1       3.704   1.131   7.945  0.00  0.00    +0.001 A 
ATOM     14  C   UNL     1       3.430   1.506   9.253  0.00  0.00    +0.002 A 
ATOM     15  C   UNL     1       2.292   2.222   9.554  0.00  0.00    +0.026 A 
ENDBRANCH   2   6
BRANCH   1  21
ATOM     16  C   UNL     1      -5.488   3.396   4.880  0.00  0.00    +0.044 C 
ATOM     17  C   UNL     1      -4.103   3.981   4.984  0.00  0.00    -0.048 A 
ATOM     18  C   UNL     1      -3.924   5.240   5.527  0.00  0.00    +0.003 A 
ATOM     19  C   UNL     1      -2.655   5.780   5.625  0.00  0.00    +0.002 A 
ATOM     20  C   UNL     1      -1.561   5.060   5.185  0.00  0.00    +0.026 A 
ATOM     21  C   UNL     1      -1.738   3.797   4.635  0.00  0.00    +0.051 A 
ATOM     22  C   UNL     1      -3.014   3.258   4.539  0.00  0.00    +0.029 A 
ENDBRANCH   1  21
BRANCH   5  23
ATOM     23  S   UNL     1      -1.336   3.032   1.473  0.00  0.00    -0.076 S 
BRANCH  23  24
ATOM     24  C   UNL     1      -0.330   2.235   0.197  0.00  0.00    +0.173 C 
BRANCH  24  25
ATOM     25  C   UNL     1      -0.994   2.405  -1.145  0.00  0.00    +0.227 C 
ATOM     26  O   UNL     1      -2.043   3.007  -1.231  0.00  0.00    -0.275 OA
ATOM     27  N   UNL     1      -0.421   1.889  -2.250  0.00  0.00    -0.285 N 
ATOM     28  H   UNL     1       0.571   1.418  -2.187  0.00  0.00    +0.155 HD
BRANCH  27  29
ATOM     29  C   UNL     1      -1.087   1.954  -3.479  0.00  0.00    +0.038 A 
ATOM     30  C   UNL     1      -2.461   2.153  -3.516  0.00  0.00    +0.024 A 
ATOM     31  C   UNL     1      -3.116   2.216  -4.730  0.00  0.00    +0.004 A 
ATOM     32  C   UNL     1      -2.405   2.081  -5.908  0.00  0.00    +0.033 A 
ATOM     33  C   UNL     1      -1.038   1.882  -5.875  0.00  0.00    +0.131 A 
ATOM     34  C   UNL     1      -0.376   1.823  -4.664  0.00  0.00    +0.001 A 
ATOM     35  C   UNL     1       1.116   1.613  -4.629  0.00  0.00    +0.048 C 
BRANCH  33  36
ATOM     36  N   UNL     1      -0.281   1.738  -7.139  0.00  0.00    +0.057 N 
ATOM     37  O   UNL     1      -0.836   1.929  -8.206  0.00  0.00    -0.126 OA
ATOM     38  O   UNL     1       0.897   1.427  -7.112  0.00  0.00    -0.126 OA
ENDBRANCH  33  36
ENDBRANCH  27  29
ENDBRANCH  24  25
ENDBRANCH  23  24
ENDBRANCH   5  23
TORSDOF 7
