REMARK  Name = ZINC20131361
REMARK  13 active torsions:
REMARK  status: ('A' for Active; 'I' for Inactive)
REMARK    1  A    between atoms: C_1  and  C_2
REMARK    2  A    between atoms: C_5  and  C_8
REMARK    3  A    between atoms: C_10  and  C_35
REMARK    4  A    between atoms: C_11  and  S_22
REMARK    5  A    between atoms: C_13  and  C_21
REMARK    6  A    between atoms: C_14  and  C_15
REMARK    7  A    between atoms: C_15  and  O_17
REMARK    8  A    between atoms: O_17  and  C_18
REMARK    9  A    between atoms: C_18  and  C_19
REMARK   10  A    between atoms: S_22  and  C_23
REMARK   11  A    between atoms: C_23  and  C_24
REMARK   12  A    between atoms: N_26  and  C_27
REMARK   13  A    between atoms: C_32  and  C_33
REMARK                            x       y       z     vdW  Elec       q    Type
REMARK                         _______ _______ _______ _____ _____    ______ ____
ROOT
ATOM      1  C   UNL     1      -1.187  -2.198  -0.055  0.00  0.00    +0.100 C 
ATOM      2  C   UNL     1      -1.169  -0.696  -0.021  0.00  0.00    +0.069 C 
ATOM      3  C   UNL     1       0.003  -0.004  -0.029  0.00  0.00    +0.080 C 
ATOM      4  N   UNL     1       1.208  -0.671  -0.050  0.00  0.00    -0.312 N 
ATOM      5  C   UNL     1       1.267  -1.994   0.289  0.00  0.00    +0.016 C 
ATOM      6  C   UNL     1       0.160  -2.756   0.305  0.00  0.00    +0.066 C 
ATOM      7  C   UNL     1       2.595  -2.609   0.651  0.00  0.00    +0.061 C 
ATOM      8  H   UNL     1       2.126  -0.139  -0.340  0.00  0.00    +0.152 HD
ENDROOT
BRANCH   1  13
ATOM      9  C   UNL     1      -2.629  -3.979  -5.360  0.00  0.00    +0.044 C 
ATOM     10  C   UNL     1      -2.253  -3.515  -3.976  0.00  0.00    -0.050 A 
ATOM     11  C   UNL     1      -3.053  -3.840  -2.897  0.00  0.00    +0.003 A 
ATOM     12  C   UNL     1      -2.708  -3.414  -1.628  0.00  0.00    +0.005 A 
ATOM     13  C   UNL     1      -1.563  -2.663  -1.438  0.00  0.00    -0.035 A 
ATOM     14  C   UNL     1      -0.766  -2.332  -2.518  0.00  0.00    +0.005 A 
ATOM     15  C   UNL     1      -1.109  -2.763  -3.787  0.00  0.00    +0.003 A 
ENDBRANCH   1  13
BRANCH   6  16
ATOM     16  C   UNL     1       0.266  -4.117   0.670  0.00  0.00    +0.338 C 
ATOM     17  O   UNL     1       1.349  -4.585   0.965  0.00  0.00    -0.245 OA
BRANCH  16  18
ATOM     18  O   UNL     1      -0.835  -4.897   0.692  0.00  0.00    -0.457 OA
BRANCH  18  19
ATOM     19  C   UNL     1      -0.655  -6.263   1.071  0.00  0.00    +0.259 C 
BRANCH  19  20
ATOM     20  C   UNL     1      -1.984  -6.974   1.038  0.00  0.00    +0.006 C 
ATOM     21  C   UNL     1      -2.080  -8.159   0.487  0.00  0.00    +0.007 C 
ENDBRANCH  19  20
ENDBRANCH  18  19
ENDBRANCH  16  18
ENDBRANCH   6  16
BRANCH   2  22
ATOM     22  C   UNL     1      -2.407   0.022   0.017  0.00  0.00    +0.098 C 
ATOM     23  N   UNL     1      -3.390   0.591   0.046  0.00  0.00    -0.191 NA
ENDBRANCH   2  22
BRANCH   3  24
ATOM     24  S   UNL     1      -0.021   1.757  -0.005  0.00  0.00    -0.100 S 
BRANCH  24  25
ATOM     25  C   UNL     1       1.756   2.096  -0.018  0.00  0.00    +0.171 C 
BRANCH  25  26
ATOM     26  C   UNL     1       1.984   3.586  -0.001  0.00  0.00    +0.227 C 
ATOM     27  O   UNL     1       1.037   4.344   0.019  0.00  0.00    -0.275 OA
ATOM     28  N   UNL     1       3.240   4.076  -0.007  0.00  0.00    -0.285 N 
ATOM     29  H   UNL     1       4.098   3.391   0.067  0.00  0.00    +0.155 HD
BRANCH  28  30
ATOM     30  C   UNL     1       3.452   5.455  -0.107  0.00  0.00    +0.038 A 
ATOM     31  C   UNL     1       2.492   6.265  -0.700  0.00  0.00    +0.043 A 
ATOM     32  C   UNL     1       2.703   7.628  -0.794  0.00  0.00    +0.043 A 
ATOM     33  C   UNL     1       3.873   8.183  -0.306  0.00  0.00    +0.020 A 
ATOM     34  C   UNL     1       4.832   7.378   0.280  0.00  0.00    +0.006 A 
ATOM     35  C   UNL     1       4.625   6.016   0.380  0.00  0.00    -0.029 A 
ATOM     36  C   UNL     1       5.671   5.139   1.019  0.00  0.00    +0.045 C 
ATOM     37 CL   UNL     1       1.502   8.643  -1.529  0.00  0.00    -0.083 Cl
ENDBRANCH  28  30
ENDBRANCH  25  26
ENDBRANCH  24  25
ENDBRANCH   3  24
TORSDOF 10
