REMARK  Name = ZINC13411837
REMARK  7 active torsions:
REMARK  status: ('A' for Active; 'I' for Inactive)
REMARK    1  A    between atoms: C_1  and  C_2
REMARK    2  A    between atoms: C_5  and  N_9
REMARK    3  A    between atoms: C_10  and  C_12
REMARK    4  A    between atoms: C_12  and  C_14
REMARK    5  A    between atoms: C_12  and  O_15
REMARK    6  A    between atoms: O_15  and  C_16
REMARK    7  A    between atoms: C_21  and  C_22
REMARK                            x       y       z     vdW  Elec       q    Type
REMARK                         _______ _______ _______ _____ _____    ______ ____
ROOT
ATOM      1  N   UNL     1      -2.222  -0.377   1.104  0.00  0.00    -0.282 N 
ATOM      2  C   UNL     1      -1.490  -0.615  -0.003  0.00  0.00    +0.258 C 
ATOM      3  O   UNL     1      -1.982  -1.210  -0.938  0.00  0.00    -0.271 OA
ATOM      4  H   UNL     1      -1.857   0.168   1.818  0.00  0.00    +0.155 HD
ENDROOT
BRANCH   1   9
ATOM      5  C   UNL     1      -7.434  -2.567   1.584  0.00  0.00    +0.044 C 
ATOM      6  C   UNL     1      -6.050  -1.985   1.456  0.00  0.00    -0.049 A 
ATOM      7  C   UNL     1      -5.119  -2.594   0.635  0.00  0.00    +0.005 A 
ATOM      8  C   UNL     1      -3.849  -2.063   0.516  0.00  0.00    +0.025 A 
ATOM      9  C   UNL     1      -3.508  -0.917   1.222  0.00  0.00    +0.048 A 
ATOM     10  C   UNL     1      -4.444  -0.311   2.051  0.00  0.00    +0.039 A 
ATOM     11  C   UNL     1      -5.714  -0.844   2.161  0.00  0.00    +0.020 A 
ATOM     12 BR   UNL     1      -3.983   1.245   3.021  0.00  0.00    -0.048 Br
ENDBRANCH   1   9
BRANCH   2  13
ATOM     13  C   UNL     1      -0.062  -0.142  -0.078  0.00  0.00    +0.256 C 
ATOM     14  C   UNL     1      -0.029   1.387  -0.052  0.00  0.00    +0.062 C 
BRANCH  13  15
ATOM     15  O   UNL     1       0.533  -0.611  -1.290  0.00  0.00    -0.479 OA
BRANCH  15  16
ATOM     16  C   UNL     1       1.883  -0.740  -1.304  0.00  0.00    +0.136 A 
ATOM     17  C   UNL     1       2.616  -0.517  -0.147  0.00  0.00    +0.046 A 
ATOM     18  C   UNL     1       3.990  -0.648  -0.164  0.00  0.00    +0.004 A 
ATOM     19  C   UNL     1       4.647  -1.001  -1.331  0.00  0.00    +0.001 A 
ATOM     20  C   UNL     1       3.936  -1.227  -2.489  0.00  0.00    +0.019 A 
ATOM     21  C   UNL     1       2.543  -1.103  -2.486  0.00  0.00    +0.105 A 
BRANCH  21  22
ATOM     22  C   UNL     1       1.774  -1.348  -3.719  0.00  0.00    +0.390 C 
ATOM     23  O   UNL     1       0.565  -1.235  -3.714  0.00  0.00    -0.240 OA
ATOM     24  O   UNL     1       2.413  -1.697  -4.853  0.00  0.00    -0.240 OA
ENDBRANCH  21  22
ENDBRANCH  15  16
ENDBRANCH  13  15
ENDBRANCH   2  13
TORSDOF 5
