REMARK  Name = ZINC41686714
REMARK  11 active torsions:
REMARK  status: ('A' for Active; 'I' for Inactive)
REMARK    1  A    between atoms: C_1  and  C_2
REMARK    2  A    between atoms: C_2  and  N_3
REMARK    3  A    between atoms: N_3  and  C_4
REMARK    4  A    between atoms: N_3  and  C_6
REMARK    5  A    between atoms: C_4  and  C_5
REMARK    6  A    between atoms: C_6  and  C_7
REMARK    7  A    between atoms: C_7  and  C_8
REMARK    8  A    between atoms: C_8  and  N_9
REMARK    9  A    between atoms: C_10  and  C_21
REMARK   10  A    between atoms: C_15  and  C_19
REMARK   11  A    between atoms: C_15  and  C_20
REMARK                            x       y       z     vdW  Elec       q    Type
REMARK                         _______ _______ _______ _____ _____    ______ ____
ROOT
ATOM      1  N   UNL     1      -4.288  -4.606   0.107  0.00  0.00    -0.347 N 
ATOM      2  C   UNL     1      -5.156  -4.738   1.157  0.00  0.00    +0.017 A 
ATOM      3  C   UNL     1      -6.334  -5.216   0.703  0.00  0.00    +0.034 A 
ATOM      4  C   UNL     1      -6.169  -5.385  -0.730  0.00  0.00    +0.038 A 
ATOM      5  C   UNL     1      -4.874  -4.984  -1.034  0.00  0.00    +0.030 A 
ATOM      6  C   UNL     1      -4.318  -5.013  -2.434  0.00  0.00    +0.061 C 
ATOM      7  C   UNL     1      -5.152  -5.972  -3.288  0.00  0.00    -0.023 C 
ATOM      8  C   UNL     1      -6.642  -5.626  -3.195  0.00  0.00    +0.086 C 
ATOM      9  C   UNL     1      -7.096  -5.863  -1.760  0.00  0.00    +0.165 C 
ATOM     10  O   UNL     1      -8.152  -6.396  -1.490  0.00  0.00    -0.292 OA
ATOM     11  C   UNL     1      -4.702  -5.870  -4.747  0.00  0.00    +0.011 C 
ATOM     12  C   UNL     1      -4.936  -7.404  -2.794  0.00  0.00    +0.011 C 
ATOM     13  C   UNL     1      -4.846  -4.404   2.594  0.00  0.00    +0.063 C 
ENDROOT
BRANCH   1  14
ATOM     14  C   UNL     1      -2.913  -4.113   0.217  0.00  0.00    +0.120 C 
BRANCH  14  15
ATOM     15  C   UNL     1      -2.901  -2.592   0.048  0.00  0.00    +0.003 C 
BRANCH  15  16
ATOM     16  C   UNL     1      -1.464  -2.078   0.163  0.00  0.00    -0.077 C 
BRANCH  16  17
ATOM     17  N   UNL     1      -1.438  -0.634  -0.108  0.00  0.00    +0.379 N 
ATOM     18  H   UNL     1      -1.863  -0.453  -1.004  0.00  0.00    -0.082 HD
BRANCH  17  20
ATOM     19  C   UNL     1      -2.263   1.562   0.594  0.00  0.00    -0.017 C 
ATOM     20  C   UNL     1      -2.184   0.074   0.941  0.00  0.00    -0.082 C 
ENDBRANCH  17  20
BRANCH  17  21
ATOM     21  C   UNL     1      -0.046  -0.164  -0.121  0.00  0.00    -0.082 C 
ATOM     22  C   UNL     1       0.689  -0.780  -1.313  0.00  0.00    -0.017 C 
ENDBRANCH  17  21
ENDBRANCH  16  17
ENDBRANCH  15  16
ENDBRANCH  14  15
ENDBRANCH   1  14
TORSDOF 6
