REMARK  Name = ZINC63970765
REMARK  4 active torsions:
REMARK  status: ('A' for Active; 'I' for Inactive)
REMARK    1  A    between atoms: C_7  and  C_10
REMARK    2  A    between atoms: C_16  and  C_18
REMARK    3  A    between atoms: N_20  and  C_21
REMARK    4  A    between atoms: C_24  and  N_28
REMARK                            x       y       z     vdW  Elec       q    Type
REMARK                         _______ _______ _______ _____ _____    ______ ____
ROOT
ATOM      1  C   UNL     1      -0.706  -5.591   0.963  0.00  0.00    +0.239 C 
ATOM      2  O   UNL     1      -0.603  -4.729   1.810  0.00  0.00    -0.273 OA
ATOM      3  N   UNL     1      -1.631  -6.562   1.098  0.00  0.00    -0.284 N 
ATOM      4  H   UNL     1      -1.669  -7.288   0.457  0.00  0.00    +0.155 HD
ENDROOT
BRANCH   1  11
ATOM      5  C   UNL     1       0.621  -3.176  -0.029  0.00  0.00    +0.246 C 
ATOM      6  O   UNL     1      -0.575  -2.980   0.081  0.00  0.00    -0.270 OA
ATOM      7  N   UNL     1       1.092  -4.434  -0.134  0.00  0.00    -0.276 N 
ATOM      8  C   UNL     1       2.542  -4.725  -0.139  0.00  0.00    +0.178 C 
ATOM      9  S   UNL     1       2.556  -6.492   0.398  0.00  0.00    -0.139 S 
ATOM     10  C   UNL     1       0.921  -6.944  -0.336  0.00  0.00    +0.102 C 
ATOM     11  C   UNL     1       0.200  -5.577  -0.241  0.00  0.00    +0.173 C 
BRANCH   5  18
ATOM     12  C   UNL     1      -0.029   1.342  -0.067  0.00  0.00    +0.001 A 
ATOM     13  C   UNL     1       1.143   2.115  -0.084  0.00  0.00    +0.002 A 
ATOM     14  C   UNL     1       2.371   1.553  -0.089  0.00  0.00    +0.026 A 
ATOM     15  C   UNL     1       2.486   0.086  -0.076  0.00  0.00    +0.043 A 
ATOM     16  N   UNL     1       3.521  -0.706  -0.077  0.00  0.00    -0.380 N 
ATOM     17  C   UNL     1       3.063  -2.099  -0.060  0.00  0.00    +0.154 C 
ATOM     18  C   UNL     1       1.551  -2.042  -0.047  0.00  0.00    +0.043 C 
ATOM     19  C   UNL     1       1.229  -0.702  -0.057  0.00  0.00    +0.008 A 
ATOM     20  C   UNL     1      -0.007  -0.008  -0.054  0.00  0.00    +0.010 A 
ATOM     21  H   UNL     1       4.448  -0.420  -0.088  0.00  0.00    +0.160 HD
ENDBRANCH   5  18
ENDBRANCH   1  11
BRANCH   3  22
ATOM     22  C   UNL     1      -2.538  -6.521   2.166  0.00  0.00    +0.035 A 
ATOM     23  C   UNL     1      -3.838  -6.976   1.990  0.00  0.00    +0.025 A 
ATOM     24  C   UNL     1      -4.732  -6.936   3.042  0.00  0.00    +0.026 A 
ATOM     25  C   UNL     1      -4.332  -6.441   4.276  0.00  0.00    +0.049 A 
ATOM     26  C   UNL     1      -3.030  -5.987   4.452  0.00  0.00    +0.064 A 
ATOM     27  C   UNL     1      -2.134  -6.032   3.401  0.00  0.00    +0.045 A 
ATOM     28 CL   UNL     1      -2.528  -5.368   5.995  0.00  0.00    -0.082 Cl
BRANCH  25  29
ATOM     29  N   UNL     1      -5.238  -6.400   5.341  0.00  0.00    -0.318 N 
ATOM     30  C   UNL     1      -6.094  -5.224   5.574  0.00  0.00    +0.124 C 
ATOM     31  C   UNL     1      -7.554  -5.666   5.453  0.00  0.00    +0.123 C 
ATOM     32  N   UNL     1      -7.787  -6.893   6.203  0.00  0.00    -0.313 N 
ATOM     33  C   UNL     1      -6.835  -7.762   6.546  0.00  0.00    +0.230 C 
ATOM     34  O   UNL     1      -7.163  -8.789   7.102  0.00  0.00    -0.274 OA
ATOM     35  C   UNL     1      -5.378  -7.531   6.271  0.00  0.00    +0.200 C 
ATOM     36  H   UNL     1      -8.697  -7.091   6.472  0.00  0.00    +0.149 HD
ENDBRANCH  25  29
ENDBRANCH   3  22
TORSDOF 4
