REMARK  Name = ZINC01207791
REMARK  6 active torsions:
REMARK  status: ('A' for Active; 'I' for Inactive)
REMARK    1  A    between atoms: C_4  and  C_7
REMARK    2  A    between atoms: C_10  and  S_18
REMARK    3  A    between atoms: N_11  and  C_12
REMARK    4  A    between atoms: S_18  and  C_19
REMARK    5  A    between atoms: C_19  and  C_20
REMARK    6  A    between atoms: N_22  and  N_23
REMARK                            x       y       z     vdW  Elec       q    Type
REMARK                         _______ _______ _______ _____ _____    ______ ____
ROOT
ATOM      1  S   UNL     1       6.089  -3.755   0.321  0.00  0.00    -0.076 S 
ENDROOT
BRANCH   1   5
ATOM      2  C   UNL     1       3.695  -0.684  -0.038  0.00  0.00    +0.169 A 
ATOM      3  N   UNL     1       4.871  -0.170  -0.315  0.00  0.00    -0.128 NA
ATOM      4  N   UNL     1       5.778  -1.077  -0.237  0.00  0.00    -0.122 NA
ATOM      5  C   UNL     1       5.239  -2.228   0.096  0.00  0.00    +0.197 A 
ATOM      6  N   UNL     1       3.894  -2.019   0.239  0.00  0.00    -0.270 N 
BRANCH   2  10
ATOM      7  C   UNL     1      -0.017   1.379   0.010  0.00  0.00    +0.000 A 
ATOM      8  C   UNL     1       1.168   2.094   0.002  0.00  0.00    +0.001 A 
ATOM      9  C   UNL     1       2.377   1.429  -0.013  0.00  0.00    +0.011 A 
ATOM     10  C   UNL     1       2.404   0.034  -0.021  0.00  0.00    +0.020 A 
ATOM     11  C   UNL     1       1.204  -0.681  -0.013  0.00  0.00    +0.011 A 
ATOM     12  C   UNL     1       0.002  -0.004   0.002  0.00  0.00    +0.001 A 
ENDBRANCH   2  10
BRANCH   6  13
ATOM     13  C   UNL     1       2.922  -2.966   0.592  0.00  0.00    +0.051 A 
ATOM     14  C   UNL     1       2.223  -2.834   1.784  0.00  0.00    +0.026 A 
ATOM     15  C   UNL     1       1.266  -3.768   2.129  0.00  0.00    +0.002 A 
ATOM     16  C   UNL     1       1.003  -4.834   1.287  0.00  0.00    +0.000 A 
ATOM     17  C   UNL     1       1.698  -4.968   0.099  0.00  0.00    +0.002 A 
ATOM     18  C   UNL     1       2.652  -4.033  -0.254  0.00  0.00    +0.026 A 
ENDBRANCH   6  13
ENDBRANCH   1   5
BRANCH   1  19
ATOM     19  C   UNL     1       7.824  -3.343  -0.010  0.00  0.00    +0.174 C 
BRANCH  19  20
ATOM     20  C   UNL     1       8.673  -4.578   0.149  0.00  0.00    +0.242 C 
ATOM     21  O   UNL     1       8.158  -5.632   0.456  0.00  0.00    -0.273 OA
ATOM     22  N   UNL     1      10.004  -4.512  -0.049  0.00  0.00    -0.206 N 
ATOM     23  H   UNL     1      10.416  -3.668  -0.294  0.00  0.00    +0.177 HD
BRANCH  22  24
ATOM     24  N   UNL     1      10.793  -5.660   0.100  0.00  0.00    -0.175 NA
ATOM     25  C   UNL     1      12.088  -5.595  -0.093  0.00  0.00    +0.152 C 
ATOM     26  C   UNL     1      13.072  -6.697   0.012  0.00  0.00    +0.028 A 
ATOM     27  C   UNL     1      12.960  -8.048   0.323  0.00  0.00    +0.012 A 
ATOM     28  C   UNL     1      14.089  -8.842   0.341  0.00  0.00    +0.001 A 
ATOM     29  C   UNL     1      15.327  -8.295   0.051  0.00  0.00    +0.002 A 
ATOM     30  C   UNL     1      15.449  -6.956  -0.259  0.00  0.00    +0.024 A 
ATOM     31  C   UNL     1      14.323  -6.140  -0.282  0.00  0.00    +0.043 A 
ATOM     32  N   UNL     1      14.170  -4.785  -0.557  0.00  0.00    -0.280 N 
ATOM     33  C   UNL     1      12.883  -4.408  -0.469  0.00  0.00    +0.269 C 
ATOM     34  O   UNL     1      12.450  -3.287  -0.660  0.00  0.00    -0.268 OA
ATOM     35  H   UNL     1      14.900  -4.189  -0.788  0.00  0.00    +0.155 HD
ENDBRANCH  22  24
ENDBRANCH  19  20
ENDBRANCH   1  19
TORSDOF 6
