REMARK  Name = ZINC47864345
REMARK  6 active torsions:
REMARK  status: ('A' for Active; 'I' for Inactive)
REMARK    1  A    between atoms: C_1  and  C_2
REMARK    2  A    between atoms: C_7  and  C_10
REMARK    3  A    between atoms: N_13  and  C_14
REMARK    4  A    between atoms: C_16  and  N_24
REMARK    5  A    between atoms: C_19  and  O_20
REMARK    6  A    between atoms: O_20  and  C_21
REMARK                            x       y       z     vdW  Elec       q    Type
REMARK                         _______ _______ _______ _____ _____    ______ ____
ROOT
ATOM      1  C   UNL     1       4.663   1.673  -3.013  0.00  0.00    +0.079 A 
ATOM      2  C   UNL     1       3.934   2.088  -4.118  0.00  0.00    +0.059 A 
ATOM      3  C   UNL     1       4.546   2.833  -5.108  0.00  0.00    +0.128 A 
ATOM      4  C   UNL     1       5.884   3.166  -5.001  0.00  0.00    +0.036 A 
ATOM      5  C   UNL     1       6.616   2.756  -3.903  0.00  0.00    +0.050 A 
ATOM      6  C   UNL     1       6.009   2.014  -2.903  0.00  0.00    +0.148 A 
ENDROOT
BRANCH   1  17
ATOM      7  C   UNL     1      -0.279   1.018  -0.511  0.00  0.00    +0.039 C 
ATOM      8  C   UNL     1      -0.025  -0.483  -0.364  0.00  0.00    +0.133 C 
ATOM      9  C   UNL     1       0.910  -0.956  -1.483  0.00  0.00    +0.140 C 
ATOM     10  N   UNL     1       2.236  -0.357  -1.263  0.00  0.00    -0.280 N 
ATOM     11  C   UNL     1       2.841  -0.488   0.072  0.00  0.00    +0.140 C 
ATOM     12  C   UNL     1       1.812  -0.038   1.115  0.00  0.00    +0.133 C 
ATOM     13  O   UNL     1       0.585  -0.743   0.902  0.00  0.00    -0.371 OA
ATOM     14  C   UNL     1       2.340  -0.342   2.518  0.00  0.00    +0.039 C 
ATOM     15  C   UNL     1       2.878   0.290  -2.256  0.00  0.00    +0.307 C 
ATOM     16  O   UNL     1       2.405   0.308  -3.376  0.00  0.00    -0.252 OA
ATOM     17  N   UNL     1       4.044   0.918  -2.006  0.00  0.00    -0.266 N 
ATOM     18  H   UNL     1       4.456   0.848  -1.131  0.00  0.00    +0.156 HD
ENDBRANCH   1  17
BRANCH   3  19
ATOM     19  N   UNL     1       3.767   3.275  -6.287  0.00  0.00    +0.056 N 
ATOM     20  O   UNL     1       2.597   2.985  -6.382  0.00  0.00    -0.126 OA
ATOM     21  O   UNL     1       4.301   3.927  -7.154  0.00  0.00    -0.126 OA
ENDBRANCH   3  19
BRANCH   6  22
ATOM     22  O   UNL     1       6.726   1.615  -1.819  0.00  0.00    -0.432 OA
BRANCH  22  23
ATOM     23  C   UNL     1       8.102   2.001  -1.773  0.00  0.00    +0.541 C 
ATOM     24  F   UNL     1       8.771   1.473  -2.883  0.00  0.00    -0.166 F 
ATOM     25  F   UNL     1       8.195   3.396  -1.793  0.00  0.00    -0.166 F 
ENDBRANCH  22  23
ENDBRANCH   6  22
TORSDOF 4
