REMARK  Name = ZINC14471086
REMARK  5 active torsions:
REMARK  status: ('A' for Active; 'I' for Inactive)
REMARK    1  A    between atoms: C_4  and  N_31
REMARK    2  A    between atoms: C_6  and  C_7
REMARK    3  A    between atoms: C_18  and  O_23
REMARK    4  A    between atoms: O_23  and  C_24
REMARK    5  A    between atoms: C_24  and  C_25
REMARK                            x       y       z     vdW  Elec       q    Type
REMARK                         _______ _______ _______ _____ _____    ______ ____
ROOT
ATOM      1  C   UNL     1       3.608   1.790   0.421  0.00  0.00    +0.105 C 
ATOM      2  C   UNL     1       3.689   3.130  -0.317  0.00  0.00    +0.029 C 
ATOM      3  C   UNL     1       4.767   3.992   0.405  0.00  0.00    +0.033 C 
ATOM      4  C   UNL     1       4.012   4.586   1.579  0.00  0.00    -0.030 C 
ATOM      5  C   UNL     1       2.722   4.580   1.346  0.00  0.00    -0.023 C 
ATOM      6  C   UNL     1       2.439   3.976  -0.009  0.00  0.00    +0.049 C 
ATOM      7  C   UNL     1       1.177   3.171   0.005  0.00  0.00    -0.016 A 
ATOM      8  C   UNL     1      -0.039   3.841   0.020  0.00  0.00    +0.051 A 
ATOM      9  C   UNL     1      -1.229   3.136   0.029  0.00  0.00    +0.121 A 
ATOM     10  C   UNL     1      -1.218   1.749   0.017  0.00  0.00    +0.047 A 
ATOM     11  C   UNL     1      -0.013   1.076   0.008  0.00  0.00    +0.027 A 
ATOM     12  C   UNL     1       1.181   1.786   0.000  0.00  0.00    +0.032 A 
ATOM     13  N   UNL     1       2.396   1.085  -0.008  0.00  0.00    -0.336 N 
ATOM     14  H   UNL     1       2.433   0.158  -0.290  0.00  0.00    +0.147 HD
ENDROOT
BRANCH   1  20
ATOM     15  C   UNL     1       4.871   0.254  -1.099  0.00  0.00    +0.007 A 
ATOM     16  C   UNL     1       5.984  -0.505  -1.406  0.00  0.00    +0.022 A 
ATOM     17  C   UNL     1       7.043  -0.570  -0.518  0.00  0.00    +0.071 A 
ATOM     18  C   UNL     1       6.990   0.130   0.674  0.00  0.00    +0.145 A 
ATOM     19  C   UNL     1       5.878   0.894   0.977  0.00  0.00    +0.039 A 
ATOM     20  C   UNL     1       4.820   0.958   0.090  0.00  0.00    -0.025 A 
ATOM     21 CL   UNL     1       8.439  -1.529  -0.899  0.00  0.00    -0.081 Cl
BRANCH  18  22
ATOM     22  N   UNL     1       8.122   0.062   1.624  0.00  0.00    +0.058 N 
ATOM     23  O   UNL     1       8.075   0.679   2.674  0.00  0.00    -0.126 OA
ATOM     24  O   UNL     1       9.102  -0.610   1.357  0.00  0.00    -0.126 OA
ENDBRANCH  18  22
ENDBRANCH   1  20
BRANCH   9  25
ATOM     25  O   UNL     1      -2.414   3.804   0.045  0.00  0.00    -0.489 OA
BRANCH  25  26
ATOM     26  C   UNL     1      -3.604   3.014   0.054  0.00  0.00    +0.260 C 
BRANCH  26  27
ATOM     27  C   UNL     1      -4.827   3.935   0.070  0.00  0.00    +0.156 C 
ATOM     28  C   UNL     1      -6.123   3.105   0.206  0.00  0.00    +0.037 C 
ATOM     29  C   UNL     1      -7.140   3.848  -0.688  0.00  0.00    +0.031 C 
ATOM     30  C   UNL     1      -6.338   5.039  -1.258  0.00  0.00    +0.160 C 
ATOM     31  O   UNL     1      -4.958   4.619  -1.194  0.00  0.00    -0.373 OA
ENDBRANCH  26  27
ENDBRANCH  25  26
ENDBRANCH   9  25
TORSDOF 5
