REMARK  Name = ZINC63362714
REMARK  8 active torsions:
REMARK  status: ('A' for Active; 'I' for Inactive)
REMARK    1  A    between atoms: C_1  and  C_2
REMARK    2  A    between atoms: C_2  and  C_3
REMARK    3  A    between atoms: C_3  and  C_4
REMARK    4  A    between atoms: C_4  and  O_5
REMARK    5  A    between atoms: O_5  and  C_6
REMARK    6  A    between atoms: C_9  and  N_12
REMARK    7  A    between atoms: C_13  and  C_15
REMARK    8  A    between atoms: N_16  and  N_17
REMARK                            x       y       z     vdW  Elec       q    Type
REMARK                         _______ _______ _______ _____ _____    ______ ____
ROOT
ATOM      1  N   UNL     1       2.913 -11.781  -5.762  0.00  0.00    -0.183 N 
ATOM      2  C   UNL     1       2.337 -12.640  -4.740  0.00  0.00    +0.230 C 
ATOM      3  C   UNL     1       2.436 -14.086  -5.096  0.00  0.00    +0.236 C 
ATOM      4  O   UNL     1       1.986 -14.892  -4.310  0.00  0.00    -0.274 OA
ATOM      5  N   UNL     1       2.985 -14.557  -6.222  0.00  0.00    -0.286 N 
ATOM      6  C   UNL     1       3.025 -16.024  -6.412  0.00  0.00    +0.137 C 
ATOM      7  C   UNL     1       2.224 -16.352  -7.676  0.00  0.00    +0.124 C 
ATOM      8  C   UNL     1       2.735 -15.424  -8.771  0.00  0.00    -0.035 C 
ATOM      9  C   UNL     1       3.118 -16.203  -9.775  0.00  0.00    -0.001 A 
ATOM     10  C   UNL     1       3.627 -15.889 -11.120  0.00  0.00    +0.010 A 
ATOM     11  C   UNL     1       3.939 -16.953 -11.906  0.00  0.00    +0.001 A 
ATOM     12  C   UNL     1       3.798 -18.282 -11.494  0.00  0.00    +0.002 A 
ATOM     13  C   UNL     1       3.334 -18.662 -10.277  0.00  0.00    +0.026 A 
ATOM     14  C   UNL     1       2.968 -17.632  -9.363  0.00  0.00    +0.043 A 
ATOM     15  N   UNL     1       2.472 -17.717  -8.142  0.00  0.00    -0.376 N 
ATOM     16  C   UNL     1       2.814 -13.928  -8.589  0.00  0.00    +0.065 C 
ATOM     17  C   UNL     1       3.540 -13.685  -7.253  0.00  0.00    +0.168 C 
ATOM     18  C   UNL     1       3.449 -12.239  -6.892  0.00  0.00    +0.256 C 
ATOM     19  O   UNL     1       3.897 -11.430  -7.676  0.00  0.00    -0.272 OA
ATOM     20  H   UNL     1       2.304 -18.528  -7.637  0.00  0.00    +0.160 HD
ENDROOT
BRANCH   1  22
ATOM     21  C   UNL     1       2.385  -9.912  -4.457  0.00  0.00    +0.198 C 
ATOM     22  N   UNL     1       2.900 -10.397  -5.549  0.00  0.00    -0.180 NA
BRANCH  21  24
ATOM     23  N   UNL     1       1.837  -7.960  -3.102  0.00  0.00    -0.281 N 
ATOM     24  C   UNL     1       2.371  -8.462  -4.234  0.00  0.00    +0.261 C 
ATOM     25  O   UNL     1       2.840  -7.713  -5.069  0.00  0.00    -0.269 OA
ATOM     26  H   UNL     1       1.533  -8.559  -2.402  0.00  0.00    +0.155 HD
BRANCH  23  30
ATOM     27  C   UNL     1       1.498  -3.834  -2.611  0.00  0.00    +0.121 A 
ATOM     28  C   UNL     1       1.743  -4.645  -1.513  0.00  0.00    +0.047 A 
ATOM     29  C   UNL     1       1.855  -6.012  -1.675  0.00  0.00    +0.027 A 
ATOM     30  C   UNL     1       1.723  -6.575  -2.937  0.00  0.00    +0.034 A 
ATOM     31  C   UNL     1       1.478  -5.762  -4.037  0.00  0.00    +0.027 A 
ATOM     32  C   UNL     1       1.361  -4.396  -3.872  0.00  0.00    +0.047 A 
BRANCH  27  33
ATOM     33  O   UNL     1       1.387  -2.489  -2.451  0.00  0.00    -0.492 OA
BRANCH  33  34
ATOM     34  C   UNL     1       1.540  -1.978  -1.125  0.00  0.00    +0.229 C 
BRANCH  34  35
ATOM     35  C   UNL     1       1.383  -0.456  -1.143  0.00  0.00    +0.041 C 
BRANCH  35  37
ATOM     36  C   UNL     1       1.391   1.612   0.259  0.00  0.00    +0.004 C 
ATOM     37  C   UNL     1       1.547   0.090   0.277  0.00  0.00    -0.000 C 
ENDBRANCH  35  37
ENDBRANCH  34  35
ENDBRANCH  33  34
ENDBRANCH  27  33
ENDBRANCH  23  30
ENDBRANCH  21  24
ENDBRANCH   1  22
TORSDOF 7
