REMARK  Name = ZINC05808881
REMARK  7 active torsions:
REMARK  status: ('A' for Active; 'I' for Inactive)
REMARK    1  A    between atoms: C_7  and  C_11
REMARK    2  A    between atoms: C_7  and  O_29
REMARK    3  A    between atoms: C_11  and  C_12
REMARK    4  A    between atoms: C_12  and  C_21
REMARK    5  A    between atoms: N_13  and  N_14
REMARK    6  A    between atoms: C_15  and  C_17
REMARK    7  A    between atoms: N_19  and  N_20
REMARK                            x       y       z     vdW  Elec       q    Type
REMARK                         _______ _______ _______ _____ _____    ______ ____
ROOT
ATOM      1  C   UNL     1      -4.917   1.147  -0.114  0.00  0.00    +0.071 C 
ATOM      2  N   UNL     1      -3.724   1.661  -0.069  0.00  0.00    -0.184 NA
ENDROOT
BRANCH   1   3
ATOM      3  C   UNL     1      -5.098  -0.309   0.023  0.00  0.00    +0.016 A 
ATOM      4  C   UNL     1      -4.603  -1.173  -0.957  0.00  0.00    +0.012 A 
ATOM      5  C   UNL     1      -4.776  -2.534  -0.823  0.00  0.00    +0.021 A 
ATOM      6  C   UNL     1      -5.438  -3.046   0.281  0.00  0.00    +0.042 A 
ATOM      7  C   UNL     1      -5.932  -2.197   1.256  0.00  0.00    +0.040 A 
ATOM      8  C   UNL     1      -5.761  -0.832   1.138  0.00  0.00    +0.051 A 
ATOM      9 CL   UNL     1      -6.373   0.232   2.365  0.00  0.00    -0.083 Cl
ATOM     10 CL   UNL     1      -5.650  -4.762   0.442  0.00  0.00    -0.083 Cl
ENDBRANCH   1   3
BRANCH   2  11
ATOM     11  N   UNL     1      -2.623   0.848   0.228  0.00  0.00    -0.199 N 
ATOM     12  C   UNL     1      -1.399   1.396   0.369  0.00  0.00    +0.319 C 
ATOM     13  O   UNL     1      -1.266   2.603   0.330  0.00  0.00    -0.263 OA
ATOM     14  H   UNL     1      -2.740  -0.109   0.331  0.00  0.00    +0.178 HD
BRANCH  12  15
ATOM     15  C   UNL     1      -0.209   0.521   0.575  0.00  0.00    +0.314 C 
ATOM     16  O   UNL     1      -0.352  -0.677   0.706  0.00  0.00    -0.264 OA
ATOM     17  N   UNL     1       1.026   1.060   0.609  0.00  0.00    -0.246 N 
ATOM     18  H   UNL     1       1.140   2.017   0.504  0.00  0.00    +0.169 HD
BRANCH  17  19
ATOM     19  N   UNL     1       2.117   0.258   0.791  0.00  0.00    -0.254 NA
ATOM     20  H   UNL     1       2.968   0.800   0.794  0.00  0.00    +0.140 HD
ATOM     21  H   UNL     1       2.030  -0.284   1.638  0.00  0.00    +0.140 HD
ENDBRANCH  17  19
ENDBRANCH  12  15
ENDBRANCH   2  11
BRANCH   1  22
ATOM     22  C   UNL     1      -6.115   2.041  -0.306  0.00  0.00    +0.107 C 
BRANCH  22  29
ATOM     23  C   UNL     1     -10.020   3.816  -1.705  0.00  0.00    +0.000 A 
ATOM     24  C   UNL     1      -9.724   4.537  -2.848  0.00  0.00    +0.002 A 
ATOM     25  C   UNL     1      -8.538   4.325  -3.519  0.00  0.00    +0.024 A 
ATOM     26  C   UNL     1      -7.628   3.380  -3.049  0.00  0.00    +0.040 A 
ATOM     27  C   UNL     1      -7.936   2.663  -1.901  0.00  0.00    +0.014 A 
ATOM     28  C   UNL     1      -9.120   2.877  -1.232  0.00  0.00    +0.009 A 
ATOM     29  C   UNL     1      -6.770   1.733  -1.654  0.00  0.00    +0.174 C 
ATOM     30  C   UNL     1      -5.814   2.033  -2.789  0.00  0.00    +0.254 C 
ATOM     31  O   UNL     1      -4.737   1.508  -2.982  0.00  0.00    -0.272 OA
ATOM     32  N   UNL     1      -6.383   2.989  -3.543  0.00  0.00    -0.282 N 
ATOM     33  H   UNL     1      -5.974   3.364  -4.338  0.00  0.00    +0.155 HD
BRANCH  29  34
ATOM     34  O   UNL     1      -7.197   0.370  -1.702  0.00  0.00    -0.374 OA
ATOM     35  H   UNL     1      -7.620   0.120  -2.535  0.00  0.00    +0.211 HD
ENDBRANCH  29  34
ENDBRANCH  22  29
ENDBRANCH   1  22
TORSDOF 7
