REMARK  Name = ZINC44593368
REMARK  7 active torsions:
REMARK  status: ('A' for Active; 'I' for Inactive)
REMARK    1  A    between atoms: C_1  and  C_2
REMARK    2  A    between atoms: C_2  and  C_3
REMARK    3  A    between atoms: C_3  and  C_5
REMARK    4  A    between atoms: C_3  and  N_8
REMARK    5  A    between atoms: C_5  and  C_6
REMARK    6  A    between atoms: C_5  and  C_7
REMARK    7  A    between atoms: C_19  and  C_21
REMARK                            x       y       z     vdW  Elec       q    Type
REMARK                         _______ _______ _______ _____ _____    ______ ____
ROOT
ATOM      1  N   UNL     1       2.125  -0.091  -1.210  0.00  0.00    -0.296 N 
ATOM      2  C   UNL     1       2.487   1.134  -1.640  0.00  0.00    +0.303 C 
ATOM      3  O   UNL     1       1.663   1.867  -2.150  0.00  0.00    -0.253 OA
ATOM      4  N   UNL     1       3.763   1.546  -1.503  0.00  0.00    -0.268 N 
ATOM      5  C   UNL     1       4.146   2.919  -1.862  0.00  0.00    +0.115 C 
ATOM      6  C   UNL     1       4.600   3.643  -0.585  0.00  0.00    +0.062 C 
ATOM      7  C   UNL     1       5.469   2.719   0.205  0.00  0.00    -0.003 A 
ATOM      8  C   UNL     1       5.592   1.371   0.074  0.00  0.00    -0.006 A 
ATOM      9  C   UNL     1       6.472   0.735   0.949  0.00  0.00    +0.014 A 
ATOM     10  C   UNL     1       7.156   1.458   1.865  0.00  0.00    +0.046 A 
ATOM     11  S   UNL     1       6.578   3.115   1.532  0.00  0.00    -0.101 S 
ATOM     12  C   UNL     1       4.791   0.630  -0.988  0.00  0.00    +0.222 C 
ATOM     13  H   UNL     1       2.796  -0.706  -0.875  0.00  0.00    +0.151 HD
ENDROOT
BRANCH  12  14
ATOM     14  C   UNL     1       5.705   0.207  -2.109  0.00  0.00    +0.381 C 
ATOM     15  O   UNL     1       5.911   0.960  -3.045  0.00  0.00    -0.244 OA
ATOM     16  O   UNL     1       6.240  -0.888  -2.079  0.00  0.00    -0.244 OA
ENDBRANCH  12  14
BRANCH   1  17
ATOM     17  C   UNL     1       0.718  -0.495  -1.251  0.00  0.00    +0.077 C 
BRANCH  17  18
ATOM     18  C   UNL     1       0.626  -2.021  -1.326  0.00  0.00    +0.003 C 
ATOM     19  C   UNL     1       1.185  -2.629  -0.038  0.00  0.00    +0.009 C 
ATOM     20  C   UNL     1      -0.837  -2.437  -1.493  0.00  0.00    +0.009 C 
ENDBRANCH  17  18
BRANCH  17  22
ATOM     21  C   UNL     1      -0.008   1.526   0.026  0.00  0.00    +0.006 C 
ATOM     22  C   UNL     1       0.010  -0.004   0.014  0.00  0.00    +0.019 C 
ENDBRANCH  17  22
ENDBRANCH   1  17
TORSDOF 4
