REMARK  Name = ZINC05694317
REMARK  7 active torsions:
REMARK  status: ('A' for Active; 'I' for Inactive)
REMARK    1  A    between atoms: C_1  and  C_2
REMARK    2  A    between atoms: C_2  and  C_4
REMARK    3  A    between atoms: C_2  and  O_29
REMARK    4  A    between atoms: C_4  and  N_5
REMARK    5  A    between atoms: N_14  and  C_15
REMARK    6  A    between atoms: C_15  and  C_16
REMARK    7  A    between atoms: N_18  and  C_19
REMARK                            x       y       z     vdW  Elec       q    Type
REMARK                         _______ _______ _______ _____ _____    ______ ____
ROOT
ATOM      1  N   UNL     1       0.866  -1.969   1.174  0.00  0.00    -0.314 N 
ATOM      2  C   UNL     1       1.502  -2.655   2.188  0.00  0.00    +0.175 A 
ATOM      3  N   UNL     1       2.023  -2.105   3.256  0.00  0.00    -0.327 N 
ATOM      4  C   UNL     1       2.567  -3.068   4.045  0.00  0.00    +0.065 A 
ATOM      5  C   UNL     1       3.236  -3.040   5.271  0.00  0.00    +0.028 A 
ATOM      6  C   UNL     1       3.682  -4.214   5.835  0.00  0.00    +0.002 A 
ATOM      7  C   UNL     1       3.471  -5.427   5.195  0.00  0.00    +0.002 A 
ATOM      8  C   UNL     1       2.812  -5.472   3.983  0.00  0.00    +0.028 A 
ATOM      9  C   UNL     1       2.357  -4.298   3.401  0.00  0.00    +0.068 A 
ATOM     10  N   UNL     1       1.675  -4.008   2.230  0.00  0.00    -0.305 N 
ATOM     11  H   UNL     1       0.502  -2.452   0.416  0.00  0.00    +0.149 HD
ATOM     12  H   UNL     1       2.022  -1.155   3.453  0.00  0.00    +0.169 HD
ENDROOT
BRANCH   1  13
ATOM     13  C   UNL     1       0.742  -0.511   1.242  0.00  0.00    +0.135 C 
BRANCH  13  15
ATOM     14  C   UNL     1      -0.019   1.526   0.010  0.00  0.00    +0.039 C 
ATOM     15  C   UNL     1       0.002  -0.004   0.002  0.00  0.00    +0.128 C 
BRANCH  15  16
ATOM     16  O   UNL     1      -1.339  -0.499   0.012  0.00  0.00    -0.391 OA
ATOM     17  H   UNL     1      -1.853  -0.225   0.784  0.00  0.00    +0.210 HD
ENDBRANCH  15  16
ENDBRANCH  13  15
ENDBRANCH   1  13
BRANCH  10  18
ATOM     18  C   UNL     1       1.227  -4.974   1.224  0.00  0.00    +0.220 C 
BRANCH  18  19
ATOM     19  C   UNL     1       2.312  -5.168   0.196  0.00  0.00    +0.233 C 
ATOM     20  O   UNL     1       3.356  -4.560   0.294  0.00  0.00    -0.274 OA
ATOM     21  N   UNL     1       2.121  -6.018  -0.833  0.00  0.00    -0.308 N 
ATOM     22  H   UNL     1       1.285  -6.505  -0.911  0.00  0.00    +0.149 HD
BRANCH  21  23
ATOM     23  C   UNL     1       3.175  -6.207  -1.832  0.00  0.00    +0.035 C 
ATOM     24  C   UNL     1       3.481  -4.870  -2.509  0.00  0.00    +0.029 C 
ATOM     25  C   UNL     1       4.583  -5.067  -3.553  0.00  0.00    -0.008 C 
ATOM     26  C   UNL     1       4.114  -6.075  -4.604  0.00  0.00    +0.007 C 
ATOM     27  C   UNL     1       3.808  -7.413  -3.927  0.00  0.00    -0.008 C 
ATOM     28  C   UNL     1       2.707  -7.215  -2.883  0.00  0.00    +0.029 C 
ATOM     29  C   UNL     1       5.071  -7.939  -3.242  0.00  0.00    +0.007 C 
ATOM     30  C   UNL     1       5.540  -6.930  -2.191  0.00  0.00    -0.008 C 
ATOM     31  C   UNL     1       5.846  -5.593  -2.869  0.00  0.00    +0.007 C 
ATOM     32  C   UNL     1       4.438  -6.733  -1.147  0.00  0.00    +0.029 C 
ENDBRANCH  21  23
ENDBRANCH  18  19
ENDBRANCH  10  18
TORSDOF 6
