REMARK  Name = ZINC06440664
REMARK  9 active torsions:
REMARK  status: ('A' for Active; 'I' for Inactive)
REMARK    1  A    between atoms: C_1  and  C_2
REMARK    2  A    between atoms: C_2  and  C_3
REMARK    3  A    between atoms: C_3  and  C_5
REMARK    4  A    between atoms: C_3  and  N_6
REMARK    5  A    between atoms: C_7  and  C_9
REMARK    6  A    between atoms: C_10  and  N_11
REMARK    7  A    between atoms: C_10  and  C_22
REMARK    8  A    between atoms: N_11  and  N_12
REMARK    9  A    between atoms: C_13  and  C_15
REMARK                            x       y       z     vdW  Elec       q    Type
REMARK                         _______ _______ _______ _____ _____    ______ ____
ROOT
ATOM      1  N   UNL     1      -6.545   1.520   3.103  0.00  0.00    -0.268 N 
ATOM      2  H   UNL     1      -6.930   0.585   2.671  0.00  0.00    +0.170 HD
ENDROOT
BRANCH   1   3
ATOM      3  N   UNL     1      -7.388   2.342   3.862  0.00  0.00    -0.233 N 
ATOM      4  C   UNL     1      -8.673   1.985   4.063  0.00  0.00    +0.261 C 
ATOM      5  O   UNL     1      -9.099   0.951   3.587  0.00  0.00    -0.269 OA
ATOM      6  H   UNL     1      -7.003   3.277   4.293  0.00  0.00    +0.173 HD
BRANCH   4   7
ATOM      7  C   UNL     1      -9.562   2.852   4.864  0.00  0.00    +0.056 A 
ATOM      8  C   UNL     1      -9.075   4.037   5.417  0.00  0.00    +0.014 A 
ATOM      9  C   UNL     1      -9.912   4.844   6.159  0.00  0.00    +0.001 A 
ATOM     10  C   UNL     1     -11.231   4.476   6.364  0.00  0.00    +0.001 A 
ATOM     11  C   UNL     1     -11.720   3.301   5.824  0.00  0.00    +0.021 A 
ATOM     12  C   UNL     1     -10.894   2.486   5.075  0.00  0.00    +0.053 A 
ATOM     13 CL   UNL     1     -11.509   1.010   4.397  0.00  0.00    -0.083 Cl
ENDBRANCH   4   7
ENDBRANCH   1   3
BRANCH   1  15
ATOM     14  C   UNL     1      -4.417   0.975   2.095  0.00  0.00    +0.087 C 
ATOM     15  C   UNL     1      -5.325   1.859   2.911  0.00  0.00    +0.024 C 
ATOM     16  C   UNL     1      -4.797   3.140   3.502  0.00  0.00    +0.062 C 
BRANCH  14  18
ATOM     17  N   UNL     1      -2.062   0.977   1.338  0.00  0.00    -0.309 N 
ATOM     18  C   UNL     1      -3.046   1.595   2.021  0.00  0.00    +0.239 C 
ATOM     19  O   UNL     1      -2.827   2.650   2.577  0.00  0.00    -0.271 OA
ATOM     20  H   UNL     1      -2.261   0.019   0.834  0.00  0.00    +0.149 HD
BRANCH  17  21
ATOM     21  C   UNL     1      -0.729   1.579   1.267  0.00  0.00    +0.070 C 
ATOM     22  C   UNL     1       0.079   1.179   2.503  0.00  0.00    +0.028 C 
BRANCH  21  24
ATOM     23  C   UNL     1      -0.753   1.593  -1.232  0.00  0.00    +0.005 C 
ATOM     24  C   UNL     1      -0.013   1.086   0.008  0.00  0.00    +0.018 C 
ENDBRANCH  21  24
ENDBRANCH  17  21
ENDBRANCH  14  18
ENDBRANCH   1  15
TORSDOF 6
