REMARK  Name = ZINC02718458
REMARK  7 active torsions:
REMARK  status: ('A' for Active; 'I' for Inactive)
REMARK    1  A    between atoms: C_1  and  C_2
REMARK    2  A    between atoms: C_5  and  N_9
REMARK    3  A    between atoms: C_7  and  C_8
REMARK    4  A    between atoms: C_18  and  S_20
REMARK    5  A    between atoms: S_20  and  C_21
REMARK    6  A    between atoms: C_21  and  C_22
REMARK    7  A    between atoms: C_25  and  C_28
REMARK                            x       y       z     vdW  Elec       q    Type
REMARK                         _______ _______ _______ _____ _____    ______ ____
ROOT
ATOM      1  N   UNL     1       0.057  -4.171  -0.021  0.00  0.00    -0.214 N 
ATOM      2  C   UNL     1      -0.566  -4.973  -0.930  0.00  0.00    +0.171 A 
ATOM      3  C   UNL     1      -0.282  -6.297  -0.557  0.00  0.00    +0.103 A 
ATOM      4  C   UNL     1       0.525  -6.241   0.597  0.00  0.00    +0.150 A 
ATOM      5  N   UNL     1       0.724  -4.988   0.900  0.00  0.00    -0.172 NA
ATOM      6  C   UNL     1      -0.813  -7.353  -1.341  0.00  0.00    +0.263 A 
ATOM      7  O   UNL     1      -0.592  -8.516  -1.054  0.00  0.00    -0.267 OA
ATOM      8  N   UNL     1      -1.570  -7.035  -2.414  0.00  0.00    -0.301 N 
ATOM      9  H   UNL     1      -1.945  -7.740  -2.966  0.00  0.00    +0.171 HD
ATOM     10  C   UNL     1      -1.811  -5.728  -2.726  0.00  0.00    +0.171 A 
ATOM     11  N   UNL     1      -1.325  -4.739  -2.008  0.00  0.00    -0.204 NA
ENDROOT
BRANCH   1  16
ATOM     12  C   UNL     1      -0.018   1.503   0.010  0.00  0.00    +0.044 C 
ATOM     13  C   UNL     1       0.002  -0.004   0.002  0.00  0.00    -0.047 A 
ATOM     14  C   UNL     1       0.006  -0.688  -1.200  0.00  0.00    +0.006 A 
ATOM     15  C   UNL     1       0.024  -2.068  -1.211  0.00  0.00    +0.028 A 
ATOM     16  C   UNL     1       0.039  -2.771  -0.013  0.00  0.00    +0.068 A 
ATOM     17  C   UNL     1       0.036  -2.082   1.192  0.00  0.00    +0.031 A 
ATOM     18  C   UNL     1       0.023  -0.700   1.196  0.00  0.00    -0.046 A 
ATOM     19  C   UNL     1       0.026   0.049   2.504  0.00  0.00    +0.044 C 
ENDBRANCH   1  16
BRANCH  10  20
ATOM     20  S   UNL     1      -2.803  -5.354  -4.133  0.00  0.00    -0.083 S 
BRANCH  20  21
ATOM     21  C   UNL     1      -2.856  -3.541  -4.164  0.00  0.00    +0.112 C 
BRANCH  21  22
ATOM     22  C   UNL     1      -3.684  -3.083  -5.336  0.00  0.00    -0.037 A 
ATOM     23  C   UNL     1      -3.085  -2.861  -6.561  0.00  0.00    +0.005 A 
ATOM     24  C   UNL     1      -3.845  -2.440  -7.637  0.00  0.00    +0.012 A 
ATOM     25  C   UNL     1      -5.205  -2.242  -7.486  0.00  0.00    +0.055 A 
ATOM     26  C   UNL     1      -5.804  -2.465  -6.261  0.00  0.00    +0.012 A 
ATOM     27  C   UNL     1      -5.045  -2.889  -5.187  0.00  0.00    +0.005 A 
BRANCH  25  28
ATOM     28  C   UNL     1      -6.034  -1.782  -8.658  0.00  0.00    +0.417 C 
ATOM     29  F   UNL     1      -6.511  -2.896  -9.357  0.00  0.00    -0.166 F 
ATOM     30  F   UNL     1      -7.114  -1.024  -8.196  0.00  0.00    -0.166 F 
ATOM     31  F   UNL     1      -5.245  -1.000  -9.509  0.00  0.00    -0.166 F 
ENDBRANCH  25  28
ENDBRANCH  21  22
ENDBRANCH  20  21
ENDBRANCH  10  20
TORSDOF 5
