REMARK  Name = ZINC21732234
REMARK  10 active torsions:
REMARK  status: ('A' for Active; 'I' for Inactive)
REMARK    1  A    between atoms: C_1  and  C_2
REMARK    2  A    between atoms: C_8  and  N_10
REMARK    3  A    between atoms: C_11  and  C_13
REMARK    4  A    between atoms: C_13  and  C_15
REMARK    5  A    between atoms: C_13  and  S_16
REMARK    6  A    between atoms: S_16  and  C_17
REMARK    7  A    between atoms: C_20  and  C_23
REMARK    8  A    between atoms: N_21  and  N_22
REMARK    9  A    between atoms: C_23  and  O_24
REMARK   10  A    between atoms: O_24  and  C_25
REMARK                            x       y       z     vdW  Elec       q    Type
REMARK                         _______ _______ _______ _____ _____    ______ ____
ROOT
ATOM      1  C   UNL     1      -0.266  -0.007  -2.721  0.00  0.00    +0.209 A 
ATOM      2  N   UNL     1      -1.383   0.653  -2.516  0.00  0.00    -0.121 NA
ATOM      3  N   UNL     1      -1.944   0.921  -3.641  0.00  0.00    -0.128 NA
ATOM      4  C   UNL     1      -1.230   0.446  -4.622  0.00  0.00    +0.189 A 
ATOM      5  N   UNL     1      -0.136  -0.162  -4.072  0.00  0.00    -0.225 N 
ENDROOT
BRANCH   5   6
ATOM      6  N   UNL     1       0.878  -0.794  -4.735  0.00  0.00    -0.295 N 
ATOM      7  H   UNL     1       0.865  -0.851  -5.833  0.00  0.00    +0.163 HD
ATOM      8  H   UNL     1       1.707  -1.246  -4.171  0.00  0.00    +0.163 HD
ENDBRANCH   5   6
BRANCH   1   9
ATOM      9  S   UNL     1       0.849  -0.588  -1.487  0.00  0.00    -0.072 S 
BRANCH   9  10
ATOM     10  C   UNL     1       0.002  -0.004   0.002  0.00  0.00    +0.137 C 
ATOM     11  C   UNL     1      -0.019   1.526   0.010  0.00  0.00    +0.029 C 
BRANCH  10  13
ATOM     12  N   UNL     1       0.071  -0.647   2.389  0.00  0.00    -0.311 N 
ATOM     13  C   UNL     1       0.731  -0.503   1.223  0.00  0.00    +0.226 C 
ATOM     14  O   UNL     1       1.911  -0.775   1.156  0.00  0.00    -0.275 OA
ATOM     15  H   UNL     1      -0.999  -0.401   2.450  0.00  0.00    +0.149 HD
BRANCH  12  22
ATOM     16  C   UNL     1      -0.903  -2.962   3.833  0.00  0.00    +0.009 C 
ATOM     17  C   UNL     1      -0.218  -1.787   4.534  0.00  0.00    +0.006 C 
ATOM     18  C   UNL     1      -1.271  -0.759   4.954  0.00  0.00    +0.005 C 
ATOM     19  C   UNL     1      -0.586   0.416   5.655  0.00  0.00    +0.000 C 
ATOM     20  C   UNL     1       0.412   1.070   4.697  0.00  0.00    +0.002 C 
ATOM     21  C   UNL     1       1.465   0.042   4.277  0.00  0.00    +0.022 C 
ATOM     22  C   UNL     1       0.780  -1.133   3.576  0.00  0.00    +0.076 C 
ENDBRANCH  12  22
ENDBRANCH  10  13
ENDBRANCH   9  10
ENDBRANCH   1   9
BRANCH   4  23
ATOM     23  C   UNL     1      -1.551   0.547  -6.091  0.00  0.00    +0.306 C 
BRANCH  23  24
ATOM     24  O   UNL     1      -2.332  -0.582  -6.487  0.00  0.00    -0.484 OA
BRANCH  24  25
ATOM     25  C   UNL     1      -2.709  -0.645  -7.792  0.00  0.00    +0.121 A 
ATOM     26  C   UNL     1      -2.339   0.363  -8.670  0.00  0.00    +0.048 A 
ATOM     27  C   UNL     1      -2.717   0.295  -9.997  0.00  0.00    +0.042 A 
ATOM     28  C   UNL     1      -3.475  -0.773 -10.447  0.00  0.00    +0.124 A 
ATOM     29  C   UNL     1      -3.850  -1.776  -9.570  0.00  0.00    +0.042 A 
ATOM     30  C   UNL     1      -3.468  -1.714  -8.244  0.00  0.00    +0.048 A 
ATOM     31  F   UNL     1      -3.849  -0.836 -11.744  0.00  0.00    -0.205 F 
ENDBRANCH  24  25
ENDBRANCH  23  24
ENDBRANCH   4  23
TORSDOF 8
