REMARK  Name = ZINC37442681
REMARK  5 active torsions:
REMARK  status: ('A' for Active; 'I' for Inactive)
REMARK    1  A    between atoms: C_1  and  C_2
REMARK    2  A    between atoms: C_2  and  N_3
REMARK    3  A    between atoms: C_11  and  C_12
REMARK    4  A    between atoms: C_15  and  C_19
REMARK    5  A    between atoms: C_16  and  N_18
REMARK                            x       y       z     vdW  Elec       q    Type
REMARK                         _______ _______ _______ _____ _____    ______ ____
ROOT
ATOM      1  N   UNL     1      -1.314  -0.735  -0.017  0.00  0.00    -0.324 N 
ATOM      2  C   UNL     1      -2.062  -1.025   1.107  0.00  0.00    +0.072 A 
ATOM      3  C   UNL     1      -1.754  -1.187   2.452  0.00  0.00    +0.028 A 
ATOM      4  C   UNL     1      -2.753  -1.481   3.354  0.00  0.00    +0.005 A 
ATOM      5  C   UNL     1      -4.068  -1.617   2.931  0.00  0.00    +0.040 A 
ATOM      6  C   UNL     1      -4.394  -1.460   1.601  0.00  0.00    +0.151 A 
ATOM      7  C   UNL     1      -3.391  -1.161   0.670  0.00  0.00    +0.125 A 
ATOM      8  N   UNL     1      -3.396  -0.953  -0.669  0.00  0.00    -0.225 NA
ATOM      9  C   UNL     1      -2.178  -0.696  -1.079  0.00  0.00    +0.142 A 
ATOM     10  F   UNL     1      -5.676  -1.594   1.197  0.00  0.00    -0.203 F 
ENDROOT
BRANCH   9  11
ATOM     11  C   UNL     1      -1.794  -0.410  -2.478  0.00  0.00    +0.019 A 
ATOM     12  C   UNL     1      -2.616  -0.824  -3.528  0.00  0.00    +0.012 A 
ATOM     13  C   UNL     1      -2.256  -0.556  -4.833  0.00  0.00    +0.006 A 
ATOM     14  C   UNL     1      -1.083   0.121  -5.106  0.00  0.00    -0.030 A 
ATOM     15  C   UNL     1      -0.258   0.537  -4.068  0.00  0.00    +0.028 A 
ATOM     16  C   UNL     1      -0.613   0.277  -2.753  0.00  0.00    +0.034 A 
ATOM     17  C   UNL     1      -0.696   0.409  -6.534  0.00  0.00    +0.045 C 
BRANCH  15  18
ATOM     18  N   UNL     1       0.928   1.221  -4.349  0.00  0.00    -0.358 N 
ATOM     19  H   UNL     1       1.175   1.406  -5.269  0.00  0.00    +0.142 HD
ATOM     20  H   UNL     1       1.504   1.512  -3.624  0.00  0.00    +0.142 HD
ENDBRANCH  15  18
ENDBRANCH   9  11
BRANCH   1  22
ATOM     21  C   UNL     1       0.428   0.956   0.277  0.00  0.00    +0.027 C 
ATOM     22  C   UNL     1       0.132  -0.505  -0.065  0.00  0.00    +0.120 C 
ENDBRANCH   1  22
TORSDOF 3
