REMARK  Name = ZINC56781606
REMARK  7 active torsions:
REMARK  status: ('A' for Active; 'I' for Inactive)
REMARK    1  A    between atoms: C_3  and  S_22
REMARK    2  A    between atoms: C_6  and  C_7
REMARK    3  A    between atoms: C_7  and  N_8
REMARK    4  A    between atoms: N_11  and  C_12
REMARK    5  A    between atoms: N_11  and  C_19
REMARK    6  A    between atoms: C_12  and  C_13
REMARK    7  A    between atoms: S_22  and  N_25
REMARK                            x       y       z     vdW  Elec       q    Type
REMARK                         _______ _______ _______ _____ _____    ______ ____
ROOT
ATOM      1  N   UNL     1      -1.722  -1.025  -1.368  0.00  0.00    -0.295 N 
ATOM      2  C   UNL     1      -2.864  -1.700  -1.607  0.00  0.00    +0.303 C 
ATOM      3  O   UNL     1      -3.484  -2.192  -0.684  0.00  0.00    -0.253 OA
ATOM      4  N   UNL     1      -3.318  -1.831  -2.869  0.00  0.00    -0.282 N 
ATOM      5  H   UNL     1      -1.188  -0.698  -2.108  0.00  0.00    +0.151 HD
ENDROOT
BRANCH   4   6
ATOM      6  C   UNL     1      -2.514  -1.339  -3.991  0.00  0.00    +0.078 C 
ATOM      7  C   UNL     1      -3.199  -1.227  -5.355  0.00  0.00    +0.024 C 
ATOM      8  C   UNL     1      -2.171  -2.333  -5.103  0.00  0.00    +0.024 C 
ENDBRANCH   4   6
BRANCH   1   9
ATOM      9  C   UNL     1      -1.287  -0.786   0.011  0.00  0.00    +0.141 C 
BRANCH   9  15
ATOM     10  C   UNL     1      -0.009   1.366   0.013  0.00  0.00    +0.007 A 
ATOM     11  C   UNL     1       1.179   2.072   0.006  0.00  0.00    +0.029 A 
ATOM     12  C   UNL     1       2.385   1.396  -0.012  0.00  0.00    +0.105 A 
ATOM     13  C   UNL     1       2.402   0.014  -0.022  0.00  0.00    +0.029 A 
ATOM     14  C   UNL     1       1.214  -0.692  -0.014  0.00  0.00    +0.007 A 
ATOM     15  C   UNL     1       0.008  -0.016   0.003  0.00  0.00    -0.030 A 
BRANCH  12  16
ATOM     16  S   UNL     1       3.900   2.296  -0.022  0.00  0.00    +0.056 S 
ATOM     17  O   UNL     1       4.879   1.437  -0.589  0.00  0.00    -0.153 OA
ATOM     18  O   UNL     1       3.607   3.578  -0.561  0.00  0.00    -0.153 OA
BRANCH  16  19
ATOM     19  N   UNL     1       4.338   2.536   1.557  0.00  0.00    -0.204 NA
ATOM     20  H   UNL     1       5.276   2.601   1.796  0.00  0.00    +0.144 HD
ATOM     21  H   UNL     1       3.656   2.610   2.243  0.00  0.00    +0.144 HD
ENDBRANCH  16  19
ENDBRANCH  12  16
ENDBRANCH   9  15
ENDBRANCH   1   9
BRANCH   4  22
ATOM     22  C   UNL     1      -4.615  -2.464  -3.119  0.00  0.00    +0.113 C 
BRANCH  22  23
ATOM     23  C   UNL     1      -5.713  -1.399  -3.106  0.00  0.00    +0.006 C 
ATOM     24  C   UNL     1      -5.822  -0.794  -1.705  0.00  0.00    +0.005 C 
ATOM     25  C   UNL     1      -6.920   0.271  -1.692  0.00  0.00    +0.000 C 
ATOM     26  C   UNL     1      -8.255  -0.370  -2.075  0.00  0.00    +0.000 C 
ATOM     27  C   UNL     1      -8.148  -0.974  -3.477  0.00  0.00    +0.000 C 
ATOM     28  C   UNL     1      -7.049  -2.039  -3.490  0.00  0.00    +0.005 C 
ENDBRANCH  22  23
ENDBRANCH   4  22
TORSDOF 7
