REMARK  Name = ZINC38650392
REMARK  12 active torsions:
REMARK  status: ('A' for Active; 'I' for Inactive)
REMARK    1  A    between atoms: C_1  and  C_2
REMARK    2  A    between atoms: C_2  and  C_3
REMARK    3  A    between atoms: C_6  and  O_9
REMARK    4  A    between atoms: O_9  and  C_10
REMARK    5  A    between atoms: C_10  and  C_11
REMARK    6  A    between atoms: C_11  and  O_13
REMARK    7  A    between atoms: O_13  and  C_14
REMARK    8  A    between atoms: C_21  and  N_35
REMARK    9  A    between atoms: C_22  and  C_33
REMARK   10  A    between atoms: C_23  and  C_25
REMARK   11  A    between atoms: C_28  and  O_31
REMARK   12  A    between atoms: O_31  and  C_32
REMARK                            x       y       z     vdW  Elec       q    Type
REMARK                         _______ _______ _______ _____ _____    ______ ____
ROOT
ATOM      1  C   UNL     1      -9.332  -3.480  -1.941  0.00  0.00    +0.135 A 
ATOM      2  C   UNL     1      -9.882  -3.643  -0.677  0.00  0.00    +0.047 A 
ATOM      3  C   UNL     1     -11.158  -4.152  -0.541  0.00  0.00    +0.012 A 
ATOM      4  C   UNL     1     -11.893  -4.502  -1.660  0.00  0.00    +0.008 A 
ATOM      5  C   UNL     1     -11.348  -4.341  -2.924  0.00  0.00    +0.138 A 
ATOM      6  C   UNL     1     -10.067  -3.823  -3.064  0.00  0.00    +0.093 A 
ATOM      7  O   UNL     1     -12.053  -4.678  -4.033  0.00  0.00    -0.441 OA
ATOM      8  C   UNL     1     -13.389  -4.803  -3.966  0.00  0.00    +0.199 C 
ATOM      9  C   UNL     1     -14.034  -4.984  -2.789  0.00  0.00    +0.098 C 
ATOM     10  C   UNL     1     -13.283  -5.056  -1.490  0.00  0.00    +0.098 C 
ENDROOT
BRANCH  10  11
ATOM     11  C   UNL     1     -13.195  -6.493  -1.043  0.00  0.00    -0.034 A 
ATOM     12  C   UNL     1     -12.551  -7.424  -1.835  0.00  0.00    +0.008 A 
ATOM     13  C   UNL     1     -12.470  -8.742  -1.428  0.00  0.00    +0.046 A 
ATOM     14  C   UNL     1     -13.036  -9.130  -0.222  0.00  0.00    +0.120 A 
ATOM     15  C   UNL     1     -13.682  -8.193   0.572  0.00  0.00    +0.046 A 
ATOM     16  C   UNL     1     -13.755  -6.876   0.162  0.00  0.00    +0.008 A 
BRANCH  14  17
ATOM     17  O   UNL     1     -12.958 -10.425   0.181  0.00  0.00    -0.495 OA
ATOM     18  C   UNL     1     -13.563 -10.753   1.433  0.00  0.00    +0.277 C 
ENDBRANCH  14  17
ENDBRANCH  10  11
BRANCH   8  19
ATOM     19  N   UNL     1     -14.122  -4.744  -5.125  0.00  0.00    -0.328 N 
ATOM     20  H   UNL     1     -13.675  -4.614  -5.976  0.00  0.00    +0.145 HD
ATOM     21  H   UNL     1     -15.087  -4.832  -5.093  0.00  0.00    +0.145 HD
ENDBRANCH   8  19
BRANCH   9  22
ATOM     22  C   UNL     1     -15.460  -5.109  -2.783  0.00  0.00    +0.101 C 
ATOM     23  N   UNL     1     -16.592  -5.207  -2.778  0.00  0.00    -0.191 NA
ENDBRANCH   9  22
BRANCH   1  24
ATOM     24  O   UNL     1      -8.076  -2.979  -2.078  0.00  0.00    -0.423 OA
BRANCH  24  25
ATOM     25  C   UNL     1      -7.040  -3.797  -1.829  0.00  0.00    +0.350 C 
ATOM     26  O   UNL     1      -7.239  -4.913  -1.411  0.00  0.00    -0.247 OA
BRANCH  25  27
ATOM     27  C   UNL     1      -5.631  -3.324  -2.073  0.00  0.00    +0.349 C 
BRANCH  27  28
ATOM     28  O   UNL     1      -4.713  -4.366  -1.737  0.00  0.00    -0.481 OA
BRANCH  28  32
ATOM     29  C   UNL     1      -0.698  -3.561  -2.234  0.00  0.00    -0.047 A 
ATOM     30  C   UNL     1      -1.101  -4.796  -1.760  0.00  0.00    +0.007 A 
ATOM     31  C   UNL     1      -2.445  -5.068  -1.593  0.00  0.00    +0.046 A 
ATOM     32  C   UNL     1      -3.390  -4.101  -1.900  0.00  0.00    +0.121 A 
ATOM     33  C   UNL     1      -2.984  -2.862  -2.375  0.00  0.00    +0.046 A 
ATOM     34  C   UNL     1      -1.638  -2.593  -2.535  0.00  0.00    +0.007 A 
BRANCH  29  36
ATOM     35  C   UNL     1       1.335  -2.677  -1.123  0.00  0.00    +0.009 C 
ATOM     36  C   UNL     1       0.769  -3.267  -2.416  0.00  0.00    +0.032 C 
ENDBRANCH  29  36
ENDBRANCH  28  32
ENDBRANCH  27  28
ENDBRANCH  25  27
ENDBRANCH  24  25
ENDBRANCH   1  24
TORSDOF 10
