REMARK  Name = ZINC19595247
REMARK  6 active torsions:
REMARK  status: ('A' for Active; 'I' for Inactive)
REMARK    1  A    between atoms: C_8  and  C_11
REMARK    2  A    between atoms: C_11  and  N_12
REMARK    3  A    between atoms: C_13  and  C_15
REMARK    4  A    between atoms: C_15  and  C_16
REMARK    5  A    between atoms: N_23  and  C_24
REMARK    6  A    between atoms: C_24  and  C_25
REMARK                            x       y       z     vdW  Elec       q    Type
REMARK                         _______ _______ _______ _____ _____    ______ ____
ROOT
ATOM      1  C   UNL     1      -4.647   4.548  -1.481  0.00  0.00    +0.028 C 
ATOM      2  C   UNL     1      -5.542   4.729  -2.674  0.00  0.00    +0.200 C 
ATOM      3  O   UNL     1      -6.586   5.328  -2.532  0.00  0.00    -0.278 OA
ATOM      4  N   UNL     1      -5.235   4.255  -3.887  0.00  0.00    -0.318 N 
ATOM      5  C   UNL     1      -3.987   3.552  -4.172  0.00  0.00    +0.085 C 
ATOM      6  C   UNL     1      -3.353   3.060  -2.869  0.00  0.00    -0.058 C 
ATOM      7  N   UNL     1      -3.293   4.182  -1.919  0.00  0.00    +0.391 N 
ATOM      8  H   UNL     1      -5.971   4.415  -4.688  0.00  0.00    +0.149 HD
ATOM      9  H   UNL     1      -2.846   5.049  -2.428  0.00  0.00    -0.080 HD
ENDROOT
BRANCH   1  10
ATOM     10  C   UNL     1      -4.588   5.856  -0.688  0.00  0.00    +0.089 C 
BRANCH  10  12
ATOM     11  N   UNL     1      -3.915   8.202  -1.091  0.00  0.00    -0.310 N 
ATOM     12  C   UNL     1      -3.969   6.933  -1.542  0.00  0.00    +0.212 C 
ATOM     13  O   UNL     1      -3.520   6.658  -2.634  0.00  0.00    -0.276 OA
ATOM     14  H   UNL     1      -4.323   8.451  -0.100  0.00  0.00    +0.149 HD
BRANCH  11  15
ATOM     15  C   UNL     1      -3.314   9.249  -1.920  0.00  0.00    +0.157 C 
BRANCH  15  23
ATOM     16  C   UNL     1      -4.059  14.672   0.739  0.00  0.00    +0.001 A 
ATOM     17  C   UNL     1      -2.878  14.325   1.383  0.00  0.00    +0.002 A 
ATOM     18  C   UNL     1      -2.261  13.122   1.117  0.00  0.00    +0.026 A 
ATOM     19  C   UNL     1      -2.824  12.245   0.196  0.00  0.00    +0.047 A 
ATOM     20  C   UNL     1      -4.020  12.602  -0.454  0.00  0.00    -0.000 A 
ATOM     21  C   UNL     1      -4.629  13.826  -0.169  0.00  0.00    +0.010 A 
ATOM     22  C   UNL     1      -4.342  11.488  -1.349  0.00  0.00    +0.032 A 
ATOM     23  C   UNL     1      -3.379  10.567  -1.191  0.00  0.00    +0.034 A 
ATOM     24  N   UNL     1      -2.461  11.003  -0.275  0.00  0.00    -0.357 N 
ATOM     25  H   UNL     1      -1.546  10.520   0.098  0.00  0.00    +0.166 HD
ENDBRANCH  15  23
ENDBRANCH  11  15
ENDBRANCH  10  12
ENDBRANCH   1  10
BRANCH   7  26
ATOM     26  C   UNL     1      -2.439   3.854  -0.770  0.00  0.00    -0.042 C 
BRANCH  26  27
ATOM     27  C   UNL     1      -1.091   3.392  -1.262  0.00  0.00    -0.064 A 
ATOM     28  C   UNL     1      -0.873   2.051  -1.519  0.00  0.00    +0.004 A 
ATOM     29  C   UNL     1       0.364   1.625  -1.965  0.00  0.00    +0.038 A 
ATOM     30  C   UNL     1       1.381   2.543  -2.164  0.00  0.00    +0.123 A 
ATOM     31  C   UNL     1       1.160   3.887  -1.911  0.00  0.00    +0.038 A 
ATOM     32  C   UNL     1      -0.076   4.309  -1.461  0.00  0.00    +0.004 A 
ATOM     33  F   UNL     1       2.590   2.129  -2.604  0.00  0.00    -0.205 F 
ENDBRANCH  26  27
ENDBRANCH   7  26
TORSDOF 6
