REMARK  Name = ZINC25351232
REMARK  9 active torsions:
REMARK  status: ('A' for Active; 'I' for Inactive)
REMARK    1  A    between atoms: C_1  and  C_2
REMARK    2  A    between atoms: C_2  and  C_3
REMARK    3  A    between atoms: C_2  and  C_4
REMARK    4  A    between atoms: C_4  and  N_5
REMARK    5  A    between atoms: C_6  and  S_10
REMARK    6  A    between atoms: S_10  and  C_11
REMARK    7  A    between atoms: C_11  and  C_12
REMARK    8  A    between atoms: C_14  and  C_17
REMARK    9  A    between atoms: C_20  and  C_23
REMARK                            x       y       z     vdW  Elec       q    Type
REMARK                         _______ _______ _______ _____ _____    ______ ____
ROOT
ATOM      1  C   UNL     1      -1.781  -3.655   4.034  0.00  0.00    +0.238 A 
ATOM      2  N   UNL     1      -1.587  -3.697   5.329  0.00  0.00    -0.191 NA
ATOM      3  C   UNL     1      -0.903  -4.840   5.557  0.00  0.00    +0.202 A 
ATOM      4  N   UNL     1      -0.715  -5.416   4.398  0.00  0.00    -0.056 NA
ATOM      5  O   UNL     1      -1.213  -4.749   3.516  0.00  0.00    -0.337 OA
ENDROOT
BRANCH   3   6
ATOM      6  C   UNL     1      -0.444  -5.345   6.876  0.00  0.00    +0.022 A 
ATOM      7  C   UNL     1      -0.712  -4.618   8.034  0.00  0.00    +0.012 A 
ATOM      8  C   UNL     1      -0.287  -5.093   9.258  0.00  0.00    +0.013 A 
ATOM      9  C   UNL     1       0.412  -6.284   9.335  0.00  0.00    +0.055 A 
ATOM     10  C   UNL     1       0.685  -7.007   8.188  0.00  0.00    +0.013 A 
ATOM     11  C   UNL     1       0.261  -6.543   6.959  0.00  0.00    +0.012 A 
BRANCH   9  12
ATOM     12  C   UNL     1       0.879  -6.796  10.674  0.00  0.00    +0.417 C 
ATOM     13  F   UNL     1       2.157  -6.297  10.944  0.00  0.00    -0.166 F 
ATOM     14  F   UNL     1      -0.007  -6.371  11.669  0.00  0.00    -0.166 F 
ATOM     15  F   UNL     1       0.919  -8.194  10.650  0.00  0.00    -0.166 F 
ENDBRANCH   9  12
ENDBRANCH   3   6
BRANCH   1  16
ATOM     16  C   UNL     1      -2.503  -2.575   3.272  0.00  0.00    +0.176 C 
BRANCH  16  17
ATOM     17  S   UNL     1      -1.324  -1.292   2.781  0.00  0.00    -0.075 S 
BRANCH  17  19
ATOM     18  N   UNL     1      -2.062   0.977   1.338  0.00  0.00    -0.220 N 
ATOM     19  C   UNL     1      -2.406  -0.190   1.933  0.00  0.00    +0.210 A 
ATOM     20  N   UNL     1      -3.701  -0.346   1.758  0.00  0.00    -0.102 NA
ATOM     21  N   UNL     1      -4.188   0.641   1.096  0.00  0.00    -0.022 NA
ATOM     22  N   UNL     1      -3.260   1.489   0.809  0.00  0.00    -0.043 NA
BRANCH  18  23
ATOM     23  C   UNL     1      -0.729   1.579   1.267  0.00  0.00    +0.151 C 
BRANCH  23  25
ATOM     24  C   UNL     1       1.423   1.615  -0.003  0.00  0.00    +0.009 C 
ATOM     25  C   UNL     1      -0.013   1.086   0.008  0.00  0.00    +0.004 C 
ATOM     26  C   UNL     1      -0.753   1.593  -1.232  0.00  0.00    +0.009 C 
ENDBRANCH  23  25
ENDBRANCH  18  23
ENDBRANCH  17  19
ENDBRANCH  16  17
ENDBRANCH   1  16
TORSDOF 7
