REMARK  Name = ZINC03031185
REMARK  8 active torsions:
REMARK  status: ('A' for Active; 'I' for Inactive)
REMARK    1  A    between atoms: C_1  and  C_2
REMARK    2  A    between atoms: C_5  and  C_31
REMARK    3  A    between atoms: C_6  and  N_8
REMARK    4  A    between atoms: C_9  and  C_11
REMARK    5  A    between atoms: C_13  and  S_18
REMARK    6  A    between atoms: S_18  and  N_21
REMARK    7  A    between atoms: C_23  and  C_30
REMARK    8  A    between atoms: C_26  and  C_29
REMARK                            x       y       z     vdW  Elec       q    Type
REMARK                         _______ _______ _______ _____ _____    ______ ____
ROOT
ATOM      1  C   UNL     1       0.144   0.094  -4.851  0.00  0.00    +0.074 A 
ATOM      2  C   UNL     1       0.118   1.491  -4.846  0.00  0.00    +0.044 A 
ATOM      3  C   UNL     1       0.202   2.183  -6.035  0.00  0.00    +0.106 A 
ATOM      4  C   UNL     1       0.298   1.499  -7.235  0.00  0.00    +0.031 A 
ATOM      5  C   UNL     1       0.318   0.117  -7.251  0.00  0.00    +0.041 A 
ATOM      6  C   UNL     1       0.241  -0.592  -6.066  0.00  0.00    +0.136 A 
ATOM      7  F   UNL     1       0.261  -1.942  -6.082  0.00  0.00    -0.205 F 
ENDROOT
BRANCH   1   9
ATOM      8  N   UNL     1      -0.033   0.011  -2.412  0.00  0.00    -0.281 N 
ATOM      9  C   UNL     1       0.061  -0.654  -3.581  0.00  0.00    +0.251 C 
ATOM     10  O   UNL     1       0.078  -1.870  -3.590  0.00  0.00    -0.270 OA
ATOM     11  H   UNL     1      -0.127   0.976  -2.410  0.00  0.00    +0.155 HD
BRANCH   8  17
ATOM     12  C   UNL     1       1.338  -3.969   0.128  0.00  0.00    +0.044 C 
ATOM     13  C   UNL     1       0.663  -2.623   0.056  0.00  0.00    -0.049 A 
ATOM     14  C   UNL     1       0.076  -2.084   1.187  0.00  0.00    +0.004 A 
ATOM     15  C   UNL     1      -0.545  -0.850   1.125  0.00  0.00    +0.005 A 
ATOM     16  C   UNL     1      -0.579  -0.151  -0.066  0.00  0.00    -0.029 A 
ATOM     17  C   UNL     1       0.005  -0.692  -1.204  0.00  0.00    +0.037 A 
ATOM     18  C   UNL     1       0.632  -1.929  -1.137  0.00  0.00    +0.027 A 
ATOM     19  C   UNL     1      -1.255   1.194  -0.132  0.00  0.00    +0.045 C 
ENDBRANCH   8  17
ENDBRANCH   1   9
BRANCH   3  20
ATOM     20  S   UNL     1       0.177   3.945  -6.029  0.00  0.00    +0.061 S 
ATOM     21  O   UNL     1       0.631   4.353  -4.745  0.00  0.00    -0.153 OA
ATOM     22  O   UNL     1       0.811   4.365  -7.229  0.00  0.00    -0.153 OA
BRANCH  20  23
ATOM     23  N   UNL     1      -1.407   4.414  -6.141  0.00  0.00    -0.176 NA
ATOM     24  C   UNL     1      -2.215   4.619  -4.931  0.00  0.00    +0.112 C 
ATOM     25  C   UNL     1      -2.833   6.020  -4.983  0.00  0.00    +0.002 C 
ATOM     26  C   UNL     1      -3.610   6.182  -6.292  0.00  0.00    +0.009 C 
ATOM     27  C   UNL     1      -2.652   6.032  -7.477  0.00  0.00    +0.002 C 
ATOM     28  C   UNL     1      -2.030   4.637  -7.453  0.00  0.00    +0.112 C 
ATOM     29  C   UNL     1      -3.423   6.228  -8.784  0.00  0.00    +0.009 C 
ATOM     30  C   UNL     1      -3.785   6.202  -3.799  0.00  0.00    +0.009 C 
ENDBRANCH  20  23
ENDBRANCH   3  20
TORSDOF 4
