REMARK  Name = ZINC35415735
REMARK  3 active torsions:
REMARK  status: ('A' for Active; 'I' for Inactive)
REMARK    1  A    between atoms: C_4  and  C_7
REMARK    2  A    between atoms: C_10  and  C_12
REMARK    3  A    between atoms: C_19  and  C_27
REMARK                            x       y       z     vdW  Elec       q    Type
REMARK                         _______ _______ _______ _____ _____    ______ ____
ROOT
ATOM      1  C   UNL     1       5.159  -4.117  -0.281  0.00  0.00    +0.120 C 
ATOM      2  C   UNL     1       5.885  -4.404  -1.570  0.00  0.00    +0.135 C 
ATOM      3  N   UNL     1       5.662  -3.655  -2.606  0.00  0.00    -0.285 NA
ATOM      4  N   UNL     1       6.757  -5.420  -1.666  0.00  0.00    -0.197 NA
ATOM      5  C   UNL     1       7.038  -6.212  -0.678  0.00  0.00    +0.265 C 
ATOM      6  O   UNL     1       7.931  -7.199  -0.865  0.00  0.00    -0.269 OA
ATOM      7  C   UNL     1       6.390  -6.057   0.672  0.00  0.00    +0.189 C 
ATOM      8  C   UNL     1       6.024  -4.586   0.893  0.00  0.00    +0.011 C 
ATOM      9  C   UNL     1       5.241  -4.439   2.198  0.00  0.00    +0.010 C 
ATOM     10  C   UNL     1       4.873  -2.969   2.409  0.00  0.00    +0.001 C 
ATOM     11  C   UNL     1       6.149  -2.129   2.479  0.00  0.00    +0.000 C 
ATOM     12  C   UNL     1       6.930  -2.276   1.171  0.00  0.00    +0.001 C 
ATOM     13  C   UNL     1       7.299  -3.745   0.960  0.00  0.00    +0.010 C 
ATOM     14  H   UNL     1       6.125  -3.832  -3.441  0.00  0.00    +0.188 HD
ENDROOT
BRANCH   1  18
ATOM     15  C   UNL     1       3.874  -0.704   0.522  0.00  0.00    +0.078 A 
ATOM     16  C   UNL     1       4.806  -0.019  -0.210  0.00  0.00    +0.075 A 
ATOM     17  S   UNL     1       5.767  -1.373  -0.868  0.00  0.00    -0.079 S 
ATOM     18  C   UNL     1       4.908  -2.636  -0.162  0.00  0.00    +0.090 A 
ATOM     19  N   UNL     1       3.973  -2.025   0.518  0.00  0.00    -0.243 NA
BRANCH  15  23
ATOM     20  C   UNL     1       0.833   1.306   2.711  0.00  0.00    +0.000 A 
ATOM     21  C   UNL     1       1.687   2.028   1.897  0.00  0.00    +0.001 A 
ATOM     22  C   UNL     1       2.676   1.381   1.185  0.00  0.00    +0.010 A 
ATOM     23  C   UNL     1       2.813  -0.002   1.286  0.00  0.00    +0.001 A 
ATOM     24  C   UNL     1       1.949  -0.724   2.108  0.00  0.00    +0.010 A 
ATOM     25  C   UNL     1       0.964  -0.067   2.816  0.00  0.00    +0.001 A 
ENDBRANCH  15  23
ENDBRANCH   1  18
BRANCH   7  26
ATOM     26  C   UNL     1       5.171  -6.880   0.730  0.00  0.00    +0.076 C 
ATOM     27  N   UNL     1       4.230  -7.515   0.775  0.00  0.00    -0.196 NA
ENDBRANCH   7  26
TORSDOF 3
