REMARK  Name = ZINC60509779
REMARK  8 active torsions:
REMARK  status: ('A' for Active; 'I' for Inactive)
REMARK    1  A    between atoms: C_1  and  C_2
REMARK    2  A    between atoms: C_4  and  N_20
REMARK    3  A    between atoms: C_7  and  S_8
REMARK    4  A    between atoms: S_8  and  N_11
REMARK    5  A    between atoms: N_11  and  C_12
REMARK    6  A    between atoms: C_12  and  C_13
REMARK    7  A    between atoms: C_12  and  C_14
REMARK    8  A    between atoms: C_14  and  C_15
REMARK                            x       y       z     vdW  Elec       q    Type
REMARK                         _______ _______ _______ _____ _____    ______ ____
ROOT
ATOM      1  S   UNL     1      -0.530   0.322   1.984  0.00  0.00    +0.059 S 
ATOM      2  O   UNL     1      -1.599   1.258   2.009  0.00  0.00    -0.153 OA
ATOM      3  O   UNL     1      -0.558  -0.886   2.732  0.00  0.00    -0.153 OA
ENDROOT
BRANCH   1  10
ATOM      4  C   UNL     1       1.497  -1.714   1.037  0.00  0.00    +0.046 C 
ATOM      5  C   UNL     1       0.655  -1.076  -0.038  0.00  0.00    -0.022 A 
ATOM      6  C   UNL     1       0.833  -1.438  -1.361  0.00  0.00    +0.038 A 
ATOM      7  C   UNL     1       0.061  -0.853  -2.347  0.00  0.00    +0.127 A 
ATOM      8  C   UNL     1      -0.889   0.093  -2.011  0.00  0.00    +0.034 A 
ATOM      9  C   UNL     1      -1.067   0.454  -0.689  0.00  0.00    +0.031 A 
ATOM     10  C   UNL     1      -0.298  -0.134   0.298  0.00  0.00    +0.108 A 
BRANCH   7  11
ATOM     11  N   UNL     1       0.253  -1.240  -3.763  0.00  0.00    +0.056 N 
ATOM     12  O   UNL     1       1.084  -2.067  -4.056  0.00  0.00    -0.126 OA
ATOM     13  O   UNL     1      -0.423  -0.729  -4.625  0.00  0.00    -0.126 OA
ENDBRANCH   7  11
ENDBRANCH   1  10
BRANCH   1  14
ATOM     14  N   UNL     1       0.828   1.141   2.461  0.00  0.00    -0.187 NA
ATOM     15  H   UNL     1       1.408   0.764   3.141  0.00  0.00    +0.148 HD
BRANCH  14  16
ATOM     16  C   UNL     1       1.152   2.436   1.857  0.00  0.00    +0.078 C 
ATOM     17  C   UNL     1       0.562   3.560   2.710  0.00  0.00    +0.026 C 
BRANCH  16  18
ATOM     18  C   UNL     1       2.672   2.597   1.782  0.00  0.00    +0.055 C 
BRANCH  18  19
ATOM     19  C   UNL     1       3.238   1.582   0.823  0.00  0.00    -0.039 A 
ATOM     20  C   UNL     1       3.766   0.393   1.291  0.00  0.00    +0.011 A 
ATOM     21  C   UNL     1       4.268  -0.499   0.402  0.00  0.00    +0.045 A 
ATOM     22  S   UNL     1       3.999   0.338  -1.152  0.00  0.00    -0.105 S 
ATOM     23  C   UNL     1       3.232   1.818  -0.512  0.00  0.00    +0.048 A 
ENDBRANCH  18  19
ENDBRANCH  16  18
ENDBRANCH  14  16
ENDBRANCH   1  14
TORSDOF 6
