REMARK  Name = ZINC09743374
REMARK  8 active torsions:
REMARK  status: ('A' for Active; 'I' for Inactive)
REMARK    1  A    between atoms: C_4  and  C_7
REMARK    2  A    between atoms: C_7  and  N_8
REMARK    3  A    between atoms: C_15  and  C_18
REMARK    4  A    between atoms: C_18  and  C_19
REMARK    5  A    between atoms: C_19  and  C_20
REMARK    6  A    between atoms: N_22  and  C_23
REMARK    7  A    between atoms: C_23  and  C_24
REMARK    8  A    between atoms: N_28  and  C_30
REMARK                            x       y       z     vdW  Elec       q    Type
REMARK                         _______ _______ _______ _____ _____    ______ ____
ROOT
ATOM      1  N   UNL     1       4.152  -0.952   1.338  0.00  0.00    -0.324 N 
ATOM      2  C   UNL     1       5.348  -1.621   1.576  0.00  0.00    +0.140 A 
ATOM      3  C   UNL     1       5.760  -1.857   2.902  0.00  0.00    +0.049 A 
ATOM      4  C   UNL     1       6.928  -2.510   3.147  0.00  0.00    +0.053 A 
ATOM      5  C   UNL     1       7.712  -2.943   2.061  0.00  0.00    +0.178 A 
ATOM      6  N   UNL     1       8.864  -3.585   1.962  0.00  0.00    -0.128 NA
ATOM      7  N   UNL     1       9.157  -3.743   0.718  0.00  0.00    -0.132 NA
ATOM      8  C   UNL     1       8.223  -3.219  -0.036  0.00  0.00    +0.156 A 
ATOM      9  N   UNL     1       7.282  -2.697   0.780  0.00  0.00    -0.195 N 
ATOM     10  N   UNL     1       6.075  -2.029   0.563  0.00  0.00    -0.148 NA
ATOM     11  H   UNL     1       3.610  -0.648   2.082  0.00  0.00    +0.148 HD
ENDROOT
BRANCH   1  12
ATOM     12  C   UNL     1       3.711  -0.707  -0.038  0.00  0.00    +0.138 C 
BRANCH  12  16
ATOM     13  C   UNL     1      -0.017   1.378   0.010  0.00  0.00    +0.000 A 
ATOM     14  C   UNL     1       1.171   2.086   0.002  0.00  0.00    +0.000 A 
ATOM     15  C   UNL     1       2.377   1.411  -0.013  0.00  0.00    +0.005 A 
ATOM     16  C   UNL     1       2.396   0.029  -0.020  0.00  0.00    -0.030 A 
ATOM     17  C   UNL     1       1.208  -0.679  -0.012  0.00  0.00    +0.005 A 
ATOM     18  C   UNL     1       0.002  -0.004   0.002  0.00  0.00    +0.000 A 
ENDBRANCH  12  16
ENDBRANCH   1  12
BRANCH   8  19
ATOM     19  C   UNL     1       8.202  -3.200  -1.542  0.00  0.00    +0.087 C 
BRANCH  19  20
ATOM     20  C   UNL     1       7.492  -4.454  -2.058  0.00  0.00    +0.103 C 
BRANCH  20  21
ATOM     21  C   UNL     1       7.472  -4.435  -3.565  0.00  0.00    +0.213 C 
ATOM     22  O   UNL     1       7.975  -3.510  -4.167  0.00  0.00    -0.276 OA
ATOM     23  N   UNL     1       6.894  -5.446  -4.244  0.00  0.00    -0.315 N 
ATOM     24  H   UNL     1       6.491  -6.186  -3.762  0.00  0.00    +0.149 HD
BRANCH  23  25
ATOM     25  C   UNL     1       6.874  -5.428  -5.708  0.00  0.00    +0.105 C 
BRANCH  25  26
ATOM     26  C   UNL     1       6.164  -6.681  -6.224  0.00  0.00    -0.012 C 
ATOM     27  C   UNL     1       7.005  -7.941  -5.913  0.00  0.00    -0.015 C 
ATOM     28  C   UNL     1       6.825  -8.801  -7.189  0.00  0.00    -0.078 C 
ATOM     29  N   UNL     1       6.819  -7.794  -8.281  0.00  0.00    +0.382 N 
ATOM     30  C   UNL     1       6.052  -6.638  -7.760  0.00  0.00    -0.074 C 
ATOM     31  H   UNL     1       7.763  -7.515  -8.502  0.00  0.00    -0.081 HD
BRANCH  29  32
ATOM     32  C   UNL     1       6.158  -8.343  -9.472  0.00  0.00    -0.069 C 
ATOM     33  C   UNL     1       6.966  -9.536 -10.022  0.00  0.00    -0.015 C 
ATOM     34  C   UNL     1       6.840  -9.404 -11.560  0.00  0.00    -0.002 C 
ATOM     35  C   UNL     1       6.909  -7.872 -11.779  0.00  0.00    -0.002 C 
ATOM     36  C   UNL     1       6.122  -7.285 -10.589  0.00  0.00    -0.015 C 
ENDBRANCH  29  32
ENDBRANCH  25  26
ENDBRANCH  23  25
ENDBRANCH  20  21
ENDBRANCH  19  20
ENDBRANCH   8  19
TORSDOF 8
