REMARK  Name = ZINC39676378
REMARK  9 active torsions:
REMARK  status: ('A' for Active; 'I' for Inactive)
REMARK    1  A    between atoms: C_1  and  C_2
REMARK    2  A    between atoms: C_2  and  C_3
REMARK    3  A    between atoms: C_3  and  C_4
REMARK    4  A    between atoms: C_4  and  C_6
REMARK    5  A    between atoms: C_4  and  C_7
REMARK    6  A    between atoms: C_11  and  C_20
REMARK    7  A    between atoms: N_22  and  C_23
REMARK    8  A    between atoms: C_23  and  C_24
REMARK    9  A    between atoms: C_24  and  C_25
REMARK                            x       y       z     vdW  Elec       q    Type
REMARK                         _______ _______ _______ _____ _____    ______ ____
ROOT
ATOM      1  C   UNL     1      -2.990  -2.822  -0.284  0.00  0.00    +0.218 C 
ATOM      2  O   UNL     1      -3.965  -2.133  -0.499  0.00  0.00    -0.275 OA
ATOM      3  N   UNL     1      -3.131  -4.150  -0.101  0.00  0.00    -0.300 N 
ATOM      4  C   UNL     1      -2.086  -5.130   0.278  0.00  0.00    +0.121 C 
ATOM      5  C   UNL     1      -2.791  -6.091   1.262  0.00  0.00    +0.100 C 
ATOM      6  C   UNL     1      -4.286  -5.976   0.920  0.00  0.00    -0.004 C 
ATOM      7  C   UNL     1      -4.367  -4.959  -0.227  0.00  0.00    +0.115 C 
ATOM      8  C   UNL     1      -5.066  -5.463   2.127  0.00  0.00    -0.010 C 
ATOM      9  C   UNL     1      -6.556  -5.412   1.781  0.00  0.00    -0.082 C 
ATOM     10  N   UNL     1      -7.021  -6.753   1.407  0.00  0.00    +0.379 N 
ATOM     11  C   UNL     1      -6.331  -7.200   0.191  0.00  0.00    -0.082 C 
ATOM     12  C   UNL     1      -4.831  -7.327   0.469  0.00  0.00    -0.010 C 
ATOM     13  H   UNL     1      -6.825  -7.397   2.159  0.00  0.00    -0.086 HD
ATOM     14  H   UNL     1      -8.015  -6.729   1.238  0.00  0.00    -0.086 HD
ENDROOT
BRANCH   5  15
ATOM     15  C   UNL     1      -2.309  -7.503   1.052  0.00  0.00    +0.218 C 
ATOM     16  O   UNL     1      -1.933  -7.859  -0.044  0.00  0.00    -0.275 OA
ATOM     17  N   UNL     1      -2.296  -8.371   2.083  0.00  0.00    -0.315 N 
ATOM     18  H   UNL     1      -2.597  -8.087   2.961  0.00  0.00    +0.149 HD
BRANCH  17  19
ATOM     19  C   UNL     1      -1.829  -9.744   1.879  0.00  0.00    +0.109 C 
BRANCH  19  20
ATOM     20  C   UNL     1      -1.916 -10.514   3.199  0.00  0.00    +0.056 C 
BRANCH  20  21
ATOM     21  C   UNL     1      -1.434 -11.927   2.989  0.00  0.00    -0.021 A 
ATOM     22  C   UNL     1      -0.045 -12.390   3.035  0.00  0.00    +0.004 A 
ATOM     23  C   UNL     1       1.180 -11.760   3.263  0.00  0.00    +0.030 A 
ATOM     24  C   UNL     1       2.341 -12.501   3.239  0.00  0.00    +0.042 A 
ATOM     25  C   UNL     1       2.298 -13.866   2.988  0.00  0.00    +0.022 A 
ATOM     26  C   UNL     1       1.097 -14.501   2.761  0.00  0.00    +0.027 A 
ATOM     27  C   UNL     1      -0.088 -13.773   2.781  0.00  0.00    +0.047 A 
ATOM     28  N   UNL     1      -1.410 -14.111   2.597  0.00  0.00    -0.360 N 
ATOM     29  C   UNL     1      -2.198 -13.000   2.730  0.00  0.00    +0.087 A 
ATOM     30 CL   UNL     1       3.867 -11.722   3.522  0.00  0.00    -0.084 Cl
ATOM     31  H   UNL     1      -1.735 -15.005   2.405  0.00  0.00    +0.165 HD
ENDBRANCH  20  21
ENDBRANCH  19  20
ENDBRANCH  17  19
ENDBRANCH   5  15
BRANCH   1  32
ATOM     32  C   UNL     1      -1.622  -2.194  -0.221  0.00  0.00    +0.072 C 
ATOM     33  C   UNL     1      -1.330  -1.750   1.214  0.00  0.00    +0.017 C 
BRANCH  32  34
ATOM     34  C   UNL     1      -1.575  -0.979  -1.149  0.00  0.00    +0.012 C 
BRANCH  34  36
ATOM     35  C   UNL     1      -0.107   0.800  -2.110  0.00  0.00    +0.004 C 
ATOM     36  C   UNL     1      -0.153  -0.415  -1.181  0.00  0.00    -0.003 C 
ENDBRANCH  34  36
ENDBRANCH  32  34
ENDBRANCH   1  32
TORSDOF 7
