REMARK  Name = ZINC41170002
REMARK  8 active torsions:
REMARK  status: ('A' for Active; 'I' for Inactive)
REMARK    1  A    between atoms: C_1  and  C_2
REMARK    2  A    between atoms: C_2  and  C_27
REMARK    3  A    between atoms: C_5  and  C_10
REMARK    4  A    between atoms: C_7  and  C_8
REMARK    5  A    between atoms: C_7  and  C_9
REMARK    6  A    between atoms: N_12  and  C_13
REMARK    7  A    between atoms: C_18  and  N_19
REMARK    8  A    between atoms: C_20  and  C_21
REMARK                            x       y       z     vdW  Elec       q    Type
REMARK                         _______ _______ _______ _____ _____    ______ ____
ROOT
ATOM      1  C   UNL     1       3.134  -1.180   1.633  0.00  0.00    +0.221 C 
ATOM      2  O   UNL     1       2.986  -0.607   2.692  0.00  0.00    -0.275 OA
ATOM      3  N   UNL     1       4.346  -1.659   1.290  0.00  0.00    -0.284 N 
ATOM      4  H   UNL     1       4.477  -2.069   0.421  0.00  0.00    +0.155 HD
ENDROOT
BRANCH   1   9
ATOM      5  C   UNL     1      -1.160  -2.122   2.205  0.00  0.00    +0.023 C 
ATOM      6  C   UNL     1      -0.375  -2.130   0.891  0.00  0.00    +0.075 C 
ATOM      7  C   UNL     1      -0.333  -0.709   0.292  0.00  0.00    +0.019 C 
ATOM      8  C   UNL     1       1.018  -0.131   0.781  0.00  0.00    +0.014 C 
ATOM      9  C   UNL     1       1.963  -1.355   0.701  0.00  0.00    +0.082 C 
ATOM     10  C   UNL     1       1.084  -2.541   1.151  0.00  0.00    -0.008 C 
ATOM     11  C   UNL     1       1.431  -3.789   0.337  0.00  0.00    +0.013 C 
ATOM     12  C   UNL     1       1.295  -2.813   2.642  0.00  0.00    +0.013 C 
BRANCH   6  13
ATOM     13  C   UNL     1      -1.014  -3.084  -0.085  0.00  0.00    +0.362 C 
ATOM     14  O   UNL     1      -1.013  -2.828  -1.277  0.00  0.00    -0.246 OA
ATOM     15  O   UNL     1      -1.533  -4.111   0.317  0.00  0.00    -0.246 OA
ENDBRANCH   6  13
ENDBRANCH   1   9
BRANCH   3  16
ATOM     16  C   UNL     1       5.413  -1.568   2.188  0.00  0.00    +0.059 A 
ATOM     17  C   UNL     1       5.426  -0.575   3.155  0.00  0.00    +0.025 A 
ATOM     18  C   UNL     1       6.482  -0.485   4.042  0.00  0.00    +0.002 A 
ATOM     19  C   UNL     1       7.534  -1.383   3.972  0.00  0.00    +0.002 A 
ATOM     20  C   UNL     1       7.537  -2.377   3.015  0.00  0.00    +0.029 A 
ATOM     21  C   UNL     1       6.474  -2.483   2.117  0.00  0.00    +0.085 A 
BRANCH  21  22
ATOM     22  N   UNL     1       6.469  -3.470   1.170  0.00  0.00    -0.253 NA
ATOM     23  C   UNL     1       6.784  -4.690   1.500  0.00  0.00    +0.119 C 
BRANCH  23  24
ATOM     24  C   UNL     1       6.886  -5.730   0.462  0.00  0.00    -0.007 A 
ATOM     25  C   UNL     1       6.652  -5.410  -0.879  0.00  0.00    +0.009 A 
ATOM     26  C   UNL     1       6.750  -6.389  -1.845  0.00  0.00    +0.001 A 
ATOM     27  C   UNL     1       7.079  -7.686  -1.490  0.00  0.00    +0.000 A 
ATOM     28  C   UNL     1       7.312  -8.010  -0.165  0.00  0.00    +0.001 A 
ATOM     29  C   UNL     1       7.224  -7.041   0.812  0.00  0.00    +0.009 A 
ENDBRANCH  23  24
ENDBRANCH  21  22
ENDBRANCH   3  16
TORSDOF 5
