REMARK  Name = ZINC39685817
REMARK  14 active torsions:
REMARK  status: ('A' for Active; 'I' for Inactive)
REMARK    1  A    between atoms: C_1  and  C_2
REMARK    2  A    between atoms: C_2  and  C_3
REMARK    3  A    between atoms: C_2  and  C_4
REMARK    4  A    between atoms: C_4  and  C_6
REMARK    5  A    between atoms: C_4  and  N_13
REMARK    6  A    between atoms: N_8  and  C_9
REMARK    7  A    between atoms: C_9  and  C_10
REMARK    8  A    between atoms: C_9  and  C_11
REMARK    9  A    between atoms: C_9  and  C_12
REMARK   10  A    between atoms: C_14  and  C_16
REMARK   11  A    between atoms: C_27  and  C_29
REMARK   12  A    between atoms: C_33  and  N_35
REMARK   13  A    between atoms: N_35  and  C_36
REMARK   14  A    between atoms: N_35  and  C_37
REMARK                            x       y       z     vdW  Elec       q    Type
REMARK                         _______ _______ _______ _____ _____    ______ ____
ROOT
ATOM      1  C   UNL     1      -0.676   0.349  -4.893  0.00  0.00    +0.100 C 
ATOM      2  C   UNL     1      -0.151   1.743  -4.484  0.00  0.00    +0.121 C 
ATOM      3  N   UNL     1       1.223   1.802  -5.035  0.00  0.00    -0.296 N 
ATOM      4  C   UNL     1       1.119   1.140  -6.357  0.00  0.00    +0.115 C 
ATOM      5  C   UNL     1       0.158  -0.042  -6.124  0.00  0.00    -0.004 C 
ATOM      6  C   UNL     1       0.948  -1.317  -5.845  0.00  0.00    -0.010 C 
ATOM      7  C   UNL     1       1.725  -1.716  -7.102  0.00  0.00    -0.082 C 
ATOM      8  N   UNL     1       0.787  -1.931  -8.211  0.00  0.00    +0.379 N 
ATOM      9  C   UNL     1       0.097  -0.677  -8.535  0.00  0.00    -0.082 C 
ATOM     10  C   UNL     1      -0.748  -0.233  -7.337  0.00  0.00    -0.010 C 
ATOM     11  C   UNL     1       2.320   2.336  -4.462  0.00  0.00    +0.247 C 
ATOM     12  O   UNL     1       2.273   2.737  -3.316  0.00  0.00    -0.270 OA
ATOM     13  H   UNL     1       1.295  -2.253  -9.021  0.00  0.00    -0.086 HD
ATOM     14  H   UNL     1       0.108  -2.628  -7.944  0.00  0.00    -0.086 HD
ENDROOT
BRANCH  11  15
ATOM     15  C   UNL     1       3.581   2.434  -5.229  0.00  0.00    +0.039 A 
ATOM     16  C   UNL     1       3.559   2.374  -6.624  0.00  0.00    +0.013 A 
ATOM     17  C   UNL     1       4.737   2.465  -7.337  0.00  0.00    +0.003 A 
ATOM     18  C   UNL     1       5.941   2.616  -6.675  0.00  0.00    +0.023 A 
ATOM     19  C   UNL     1       5.974   2.677  -5.287  0.00  0.00    +0.030 A 
ATOM     20  C   UNL     1       4.795   2.592  -4.562  0.00  0.00    +0.036 A 
BRANCH  19  21
ATOM     21  N   UNL     1       7.194   2.829  -4.623  0.00  0.00    -0.336 N 
ATOM     22  C   UNL     1       8.424   3.036  -5.390  0.00  0.00    +0.129 C 
ATOM     23  C   UNL     1       7.242   2.782  -3.160  0.00  0.00    +0.129 C 
ENDBRANCH  19  21
ENDBRANCH  11  15
BRANCH   1  25
ATOM     24  N   UNL     1      -1.217  -1.754  -3.707  0.00  0.00    -0.303 N 
ATOM     25  C   UNL     1      -0.460  -0.641  -3.777  0.00  0.00    +0.219 C 
ATOM     26  O   UNL     1       0.396  -0.436  -2.942  0.00  0.00    -0.275 OA
ATOM     27  H   UNL     1      -1.902  -1.917  -4.375  0.00  0.00    +0.149 HD
BRANCH  24  28
ATOM     28  C   UNL     1      -1.007  -2.716  -2.622  0.00  0.00    +0.161 C 
BRANCH  28  29
ATOM     29  C   UNL     1      -1.477  -4.079  -3.062  0.00  0.00    +0.234 C 
ATOM     30  O   UNL     1      -2.060  -4.208  -4.117  0.00  0.00    -0.274 OA
ATOM     31  N   UNL     1      -1.250  -5.154  -2.281  0.00  0.00    -0.309 N 
ATOM     32  H   UNL     1      -0.722  -5.063  -1.473  0.00  0.00    +0.149 HD
BRANCH  31  33
ATOM     33  C   UNL     1      -1.802  -6.459  -2.654  0.00  0.00    +0.026 C 
ATOM     34  C   UNL     1      -1.254  -6.872  -4.021  0.00  0.00    +0.031 C 
ATOM     35  C   UNL     1      -1.400  -7.500  -1.607  0.00  0.00    +0.031 C 
ATOM     36  C   UNL     1      -3.327  -6.367  -2.722  0.00  0.00    +0.031 C 
ENDBRANCH  31  33
ENDBRANCH  28  29
BRANCH  28  38
ATOM     37  C   UNL     1      -1.227  -0.960  -0.859  0.00  0.00    +0.009 C 
ATOM     38  C   UNL     1      -1.799  -2.276  -1.389  0.00  0.00    +0.012 C 
ATOM     39  C   UNL     1      -3.267  -2.076  -1.771  0.00  0.00    +0.009 C 
ENDBRANCH  28  38
ENDBRANCH  24  28
ENDBRANCH   1  25
TORSDOF 7
