REMARK  Name = ZINC39735048
REMARK  4 active torsions:
REMARK  status: ('A' for Active; 'I' for Inactive)
REMARK    1  A    between atoms: C_5  and  N_7
REMARK    2  A    between atoms: N_7  and  C_8
REMARK    3  A    between atoms: C_11  and  C_14
REMARK    4  A    between atoms: C_16  and  C_19
REMARK                            x       y       z     vdW  Elec       q    Type
REMARK                         _______ _______ _______ _____ _____    ______ ____
ROOT
ATOM      1  C   UNL     1       0.068  -2.783   0.089  0.00  0.00    +0.200 C 
ATOM      2  N   UNL     1      -1.100  -2.160   0.100  0.00  0.00    -0.125 NA
ATOM      3  N   UNL     1      -2.226  -2.717   0.258  0.00  0.00    -0.151 NA
ATOM      4  C   UNL     1      -2.503  -3.916   0.665  0.00  0.00    +0.079 C 
ATOM      5  C   UNL     1      -1.441  -4.866   1.169  0.00  0.00    +0.134 C 
ATOM      6  S   UNL     1       0.081  -4.549   0.213  0.00  0.00    -0.081 S 
ENDROOT
BRANCH   4   7
ATOM      7  C   UNL     1      -3.839  -4.348   0.637  0.00  0.00    -0.000 C 
ATOM      8  C   UNL     1      -4.323  -5.562   1.027  0.00  0.00    +0.040 C 
ATOM      9  C   UNL     1      -5.720  -5.601   0.842  0.00  0.00    +0.121 C 
ATOM     10  N   UNL     1      -6.181  -4.483   0.353  0.00  0.00    -0.274 NA
ATOM     11  C   UNL     1      -5.048  -3.563   0.174  0.00  0.00    +0.179 C 
BRANCH   9  12
ATOM     12  C   UNL     1      -6.569  -6.779   1.165  0.00  0.00    +0.265 C 
ATOM     13  O   UNL     1      -6.062  -7.786   1.618  0.00  0.00    -0.268 OA
ATOM     14  N   UNL     1      -7.899  -6.729   0.956  0.00  0.00    -0.296 N 
ATOM     15  C   UNL     1      -8.638  -5.581   0.410  0.00  0.00    +0.108 C 
ATOM     16  C   UNL     1     -10.130  -5.971   0.375  0.00  0.00    +0.020 C 
ATOM     17  C   UNL     1     -10.217  -7.106   1.430  0.00  0.00    +0.020 C 
ATOM     18  C   UNL     1      -8.854  -7.818   1.231  0.00  0.00    +0.108 C 
ENDBRANCH   9  12
ENDBRANCH   4   7
BRANCH   1  19
ATOM     19  N   UNL     1       1.237  -2.080  -0.021  0.00  0.00    -0.186 NA
BRANCH  19  24
ATOM     20  C   UNL     1       0.346   1.185   1.418  0.00  0.00    +0.002 A 
ATOM     21  C   UNL     1       1.303   1.998   0.838  0.00  0.00    +0.003 A 
ATOM     22  C   UNL     1       2.238   1.461  -0.028  0.00  0.00    +0.040 A 
ATOM     23  C   UNL     1       2.220   0.109  -0.316  0.00  0.00    +0.146 A 
ATOM     24  C   UNL     1       1.259  -0.711   0.267  0.00  0.00    +0.091 A 
ATOM     25  C   UNL     1       0.322  -0.167   1.136  0.00  0.00    +0.028 A 
ATOM     26  F   UNL     1       3.134  -0.415  -1.162  0.00  0.00    -0.203 F 
ENDBRANCH  19  24
ENDBRANCH   1  19
TORSDOF 4
