REMARK  Name = ZINC06749236
REMARK  4 active torsions:
REMARK  status: ('A' for Active; 'I' for Inactive)
REMARK    1  A    between atoms: C_1  and  C_2
REMARK    2  A    between atoms: C_5  and  C_8
REMARK    3  A    between atoms: C_10  and  C_18
REMARK    4  A    between atoms: N_20  and  C_21
REMARK                            x       y       z     vdW  Elec       q    Type
REMARK                         _______ _______ _______ _____ _____    ______ ____
ROOT
ATOM      1  C   UNL     1       3.542   2.346  -0.471  0.00  0.00    +0.142 A 
ATOM      2  N   UNL     1       3.250   3.191   0.489  0.00  0.00    -0.223 NA
ATOM      3  C   UNL     1       1.958   3.024   0.846  0.00  0.00    +0.147 A 
ATOM      4  C   UNL     1       1.437   2.036   0.066  0.00  0.00    +0.051 A 
ATOM      5  N   UNL     1       2.432   1.601  -0.750  0.00  0.00    -0.327 N 
ATOM      6  C   UNL     1       2.330   0.523  -1.738  0.00  0.00    +0.123 C 
ATOM      7  C   UNL     1       0.884   0.419  -2.230  0.00  0.00    +0.022 C 
ATOM      8  C   UNL     1       0.101  -0.540  -1.335  0.00  0.00    +0.002 C 
ATOM      9  C   UNL     1       0.060  -0.020   0.098  0.00  0.00    +0.006 C 
ATOM     10  C   UNL     1       0.025   1.512   0.085  0.00  0.00    +0.056 C 
ENDROOT
BRANCH   1  15
ATOM     11  C   UNL     1       8.654   1.859  -3.070  0.00  0.00    +0.044 C 
ATOM     12  C   UNL     1       7.315   1.986  -2.390  0.00  0.00    -0.050 A 
ATOM     13  C   UNL     1       6.998   3.147  -1.707  0.00  0.00    +0.004 A 
ATOM     14  C   UNL     1       5.774   3.270  -1.082  0.00  0.00    +0.012 A 
ATOM     15  C   UNL     1       4.856   2.221  -1.139  0.00  0.00    +0.017 A 
ATOM     16  C   UNL     1       5.184   1.051  -1.825  0.00  0.00    +0.012 A 
ATOM     17  C   UNL     1       6.410   0.943  -2.450  0.00  0.00    +0.004 A 
ENDBRANCH   1  15
BRANCH   3  18
ATOM     18  C   UNL     1       1.242   3.774   1.892  0.00  0.00    +0.268 C 
ATOM     19  O   UNL     1       0.072   3.531   2.123  0.00  0.00    -0.268 OA
ATOM     20  N   UNL     1       1.882   4.730   2.594  0.00  0.00    -0.278 N 
ATOM     21  H   UNL     1       2.788   4.981   2.357  0.00  0.00    +0.155 HD
BRANCH  20  22
ATOM     22  C   UNL     1       1.239   5.361   3.666  0.00  0.00    +0.069 A 
ATOM     23  C   UNL     1       0.349   4.650   4.459  0.00  0.00    +0.026 A 
ATOM     24  C   UNL     1      -0.280   5.273   5.519  0.00  0.00    +0.002 A 
ATOM     25  C   UNL     1      -0.032   6.607   5.786  0.00  0.00    +0.003 A 
ATOM     26  C   UNL     1       0.849   7.321   4.995  0.00  0.00    +0.040 A 
ATOM     27  C   UNL     1       1.487   6.702   3.936  0.00  0.00    +0.144 A 
ATOM     28  F   UNL     1       2.348   7.400   3.163  0.00  0.00    -0.204 F 
ENDBRANCH  20  22
ENDBRANCH   3  18
TORSDOF 3
