REMARK  Name = ZINC11854828
REMARK  7 active torsions:
REMARK  status: ('A' for Active; 'I' for Inactive)
REMARK    1  A    between atoms: C_1  and  C_2
REMARK    2  A    between atoms: C_2  and  C_3
REMARK    3  A    between atoms: C_3  and  C_4
REMARK    4  A    between atoms: C_13  and  N_22
REMARK    5  A    between atoms: C_15  and  C_17
REMARK    6  A    between atoms: C_23  and  C_25
REMARK    7  A    between atoms: N_30  and  C_32
REMARK                            x       y       z     vdW  Elec       q    Type
REMARK                         _______ _______ _______ _____ _____    ______ ____
ROOT
ATOM      1  C   UNL     1       9.011   6.466   2.370  0.00  0.00    +0.050 A 
ATOM      2  C   UNL     1      10.070   6.706   3.196  0.00  0.00    +0.093 A 
ATOM      3  C   UNL     1       9.823   6.971   4.556  0.00  0.00    +0.253 A 
ATOM      4  O   UNL     1      10.745   7.190   5.324  0.00  0.00    -0.268 OA
ATOM      5  N   UNL     1       8.546   6.982   4.993  0.00  0.00    -0.291 N 
ATOM      6  H   UNL     1       8.352   7.166   5.925  0.00  0.00    +0.172 HD
ATOM      7  C   UNL     1       7.532   6.729   4.123  0.00  0.00    +0.234 A 
ATOM      8  N   UNL     1       7.770   6.483   2.852  0.00  0.00    -0.217 NA
ATOM      9  N   UNL     1       6.229   6.737   4.579  0.00  0.00    -0.185 N 
ATOM     10  C   UNL     1       5.112   6.508   3.826  0.00  0.00    +0.132 A 
ATOM     11  C   UNL     1       4.036   6.599   4.646  0.00  0.00    +0.074 A 
ATOM     12  C   UNL     1       4.505   6.899   5.942  0.00  0.00    +0.102 A 
ATOM     13  N   UNL     1       5.819   6.984   5.896  0.00  0.00    -0.162 NA
ENDROOT
BRANCH  12  14
ATOM     14  C   UNL     1       3.667   7.087   7.146  0.00  0.00    +0.039 A 
ATOM     15  C   UNL     1       4.050   7.378   8.428  0.00  0.00    +0.018 A 
ATOM     16  C   UNL     1       3.079   7.508   9.396  0.00  0.00    +0.008 A 
ATOM     17  C   UNL     1       1.776   7.344   9.052  0.00  0.00    +0.046 A 
ATOM     18  S   UNL     1       1.890   7.001   7.304  0.00  0.00    -0.095 S 
ENDBRANCH  12  14
BRANCH  10  19
ATOM     19  N   UNL     1       5.085   6.224   2.462  0.00  0.00    -0.270 N 
ATOM     20  C   UNL     1       3.908   6.012   1.841  0.00  0.00    +0.223 C 
ATOM     21  O   UNL     1       2.872   6.068   2.470  0.00  0.00    -0.275 OA
ATOM     22  H   UNL     1       5.913   6.180   1.959  0.00  0.00    +0.156 HD
BRANCH  20  23
ATOM     23  C   UNL     1       3.878   5.706   0.366  0.00  0.00    +0.102 C 
ATOM     24  C   UNL     1       4.644   4.399   0.057  0.00  0.00    +0.110 C 
ATOM     25  C   UNL     1       3.576   3.328   0.083  0.00  0.00    +0.221 C 
ATOM     26  O   UNL     1       3.788   2.136   0.166  0.00  0.00    -0.275 OA
ATOM     27  N   UNL     1       2.357   3.889   0.001  0.00  0.00    -0.271 N 
ATOM     28  C   UNL     1       2.448   5.349  -0.103  0.00  0.00    +0.127 C 
BRANCH  27  29
ATOM     29  C   UNL     1       1.155   3.171   0.008  0.00  0.00    +0.036 A 
ATOM     30  C   UNL     1       1.174   1.782  -0.015  0.00  0.00    +0.026 A 
ATOM     31  C   UNL     1      -0.013   1.076  -0.007  0.00  0.00    +0.040 A 
ATOM     32  C   UNL     1      -1.221   1.751   0.017  0.00  0.00    +0.124 A 
ATOM     33  C   UNL     1      -1.243   3.136   0.046  0.00  0.00    +0.040 A 
ATOM     34  C   UNL     1      -0.058   3.846   0.039  0.00  0.00    +0.026 A 
ATOM     35  F   UNL     1      -2.381   1.059   0.019  0.00  0.00    -0.205 F 
ENDBRANCH  27  29
ENDBRANCH  20  23
ENDBRANCH  10  19
BRANCH   1  36
ATOM     36  C   UNL     1       9.247   6.179   0.909  0.00  0.00    +0.055 C 
BRANCH  36  38
ATOM     37  C   UNL     1       9.535   4.376  -0.796  0.00  0.00    +0.004 C 
ATOM     38  C   UNL     1       9.296   4.666   0.687  0.00  0.00    +0.003 C 
ENDBRANCH  36  38
ENDBRANCH   1  36
TORSDOF 6
