REMARK  Name = ZINC22978511
REMARK  11 active torsions:
REMARK  status: ('A' for Active; 'I' for Inactive)
REMARK    1  A    between atoms: C_1  and  C_2
REMARK    2  A    between atoms: C_2  and  C_3
REMARK    3  A    between atoms: C_4  and  C_25
REMARK    4  A    between atoms: C_5  and  N_24
REMARK    5  A    between atoms: C_7  and  S_9
REMARK    6  A    between atoms: S_9  and  C_10
REMARK    7  A    between atoms: C_10  and  C_11
REMARK    8  A    between atoms: N_13  and  C_14
REMARK    9  A    between atoms: C_19  and  S_20
REMARK   10  A    between atoms: S_20  and  C_21
REMARK   11  A    between atoms: C_21  and  C_22
REMARK                            x       y       z     vdW  Elec       q    Type
REMARK                         _______ _______ _______ _____ _____    ______ ____
ROOT
ATOM      1  C   UNL     1      -3.361   1.039  -1.083  0.00  0.00    +0.055 A 
ATOM      2  C   UNL     1      -2.479   0.957  -0.008  0.00  0.00    +0.043 A 
ATOM      3  C   UNL     1      -2.839   0.151   1.088  0.00  0.00    +0.129 A 
ATOM      4  N   UNL     1      -3.995  -0.500   1.054  0.00  0.00    -0.207 NA
ATOM      5  C   UNL     1      -4.801  -0.396   0.006  0.00  0.00    +0.191 A 
ATOM      6  N   UNL     1      -4.493   0.355  -1.043  0.00  0.00    -0.226 NA
ENDROOT
BRANCH   2   7
ATOM      7  C   UNL     1      -1.198   1.703  -0.016  0.00  0.00    -0.013 A 
ATOM      8  C   UNL     1       0.013   1.013  -0.025  0.00  0.00    +0.010 A 
ATOM      9  C   UNL     1       1.203   1.712  -0.037  0.00  0.00    +0.020 A 
ATOM     10  C   UNL     1       1.194   3.097  -0.036  0.00  0.00    +0.041 A 
ATOM     11  C   UNL     1      -0.006   3.787  -0.021  0.00  0.00    +0.020 A 
ATOM     12  C   UNL     1      -1.201   3.097  -0.009  0.00  0.00    +0.010 A 
ATOM     13 CL   UNL     1       2.695   3.971  -0.052  0.00  0.00    -0.084 Cl
ENDBRANCH   2   7
BRANCH   3  14
ATOM     14  N   UNL     1      -2.001   0.039   2.184  0.00  0.00    -0.343 N 
ATOM     15  H   UNL     1      -2.291  -0.593   3.036  0.00  0.00    +0.144 HD
ATOM     16  H   UNL     1      -1.045   0.583   2.203  0.00  0.00    +0.144 HD
ENDBRANCH   3  14
BRANCH   1  18
ATOM     17  C   UNL     1      -2.263   1.056  -3.307  0.00  0.00    +0.010 C 
ATOM     18  C   UNL     1      -3.029   1.893  -2.280  0.00  0.00    +0.053 C 
ENDBRANCH   1  18
BRANCH   5  19
ATOM     19  S   UNL     1      -6.325  -1.280   0.007  0.00  0.00    -0.077 S 
BRANCH  19  20
ATOM     20  C   UNL     1      -6.214  -2.095   1.620  0.00  0.00    +0.173 C 
BRANCH  20  21
ATOM     21  C   UNL     1      -7.447  -2.933   1.845  0.00  0.00    +0.228 C 
ATOM     22  O   UNL     1      -8.315  -2.974   0.999  0.00  0.00    -0.275 OA
ATOM     23  N   UNL     1      -7.584  -3.635   2.986  0.00  0.00    -0.284 N 
ATOM     24  H   UNL     1      -6.766  -3.657   3.721  0.00  0.00    +0.155 HD
BRANCH  23  25
ATOM     25  C   UNL     1      -8.770  -4.339   3.237  0.00  0.00    +0.047 A 
ATOM     26  C   UNL     1      -9.463  -4.930   2.192  0.00  0.00    +0.024 A 
ATOM     27  C   UNL     1     -10.630  -5.628   2.442  0.00  0.00    +0.002 A 
ATOM     28  C   UNL     1     -11.116  -5.730   3.733  0.00  0.00    +0.001 A 
ATOM     29  C   UNL     1     -10.436  -5.139   4.781  0.00  0.00    +0.016 A 
ATOM     30  C   UNL     1      -9.261  -4.441   4.540  0.00  0.00    +0.030 A 
BRANCH  30  31
ATOM     31  S   UNL     1      -8.391  -3.686   5.873  0.00  0.00    -0.108 S 
BRANCH  31  32
ATOM     32  C   UNL     1      -9.393  -4.085   7.332  0.00  0.00    +0.192 C 
BRANCH  32  33
ATOM     33  C   UNL     1      -8.768  -3.504   8.531  0.00  0.00    +0.074 C 
ATOM     34  N   UNL     1      -8.285  -3.055   9.456  0.00  0.00    -0.196 NA
ENDBRANCH  32  33
ENDBRANCH  31  32
ENDBRANCH  30  31
ENDBRANCH  23  25
ENDBRANCH  20  21
ENDBRANCH  19  20
ENDBRANCH   5  19
TORSDOF 10
