REMARK  Name = ZINC63706710
REMARK  10 active torsions:
REMARK  status: ('A' for Active; 'I' for Inactive)
REMARK    1  A    between atoms: C_1  and  C_2
REMARK    2  A    between atoms: C_4  and  C_27
REMARK    3  A    between atoms: C_4  and  C_28
REMARK    4  A    between atoms: N_10  and  C_14
REMARK    5  A    between atoms: C_14  and  C_15
REMARK    6  A    between atoms: N_17  and  C_18
REMARK    7  A    between atoms: C_18  and  C_19
REMARK    8  A    between atoms: N_22  and  C_24
REMARK    9  A    between atoms: C_24  and  C_25
REMARK   10  A    between atoms: C_24  and  C_26
REMARK                            x       y       z     vdW  Elec       q    Type
REMARK                         _______ _______ _______ _____ _____    ______ ____
ROOT
ATOM      1  C   UNL     1       0.003   1.471   0.164  0.00  0.00    +0.007 C 
ATOM      2  C   UNL     1       0.022  -0.057   0.093  0.00  0.00    -0.011 C 
ATOM      3  C   UNL     1       0.721  -0.500  -1.194  0.00  0.00    +0.009 C 
ATOM      4  C   UNL     1       0.733  -2.028  -1.271  0.00  0.00    -0.032 C 
ATOM      5  C   UNL     1       1.494  -2.592  -0.069  0.00  0.00    +0.041 C 
ATOM      6  C   UNL     1       0.819  -2.136   1.221  0.00  0.00    +0.113 C 
ATOM      7  C   UNL     1       0.780  -0.614   1.301  0.00  0.00    +0.038 C 
ATOM      8  C   UNL     1       1.533  -2.711   2.422  0.00  0.00    +0.247 C 
ATOM      9  O   UNL     1       2.685  -2.522   2.751  0.00  0.00    -0.273 OA
ATOM     10  N   UNL     1       0.619  -3.477   3.053  0.00  0.00    -0.215 N 
ATOM     11  C   UNL     1      -0.559  -3.462   2.418  0.00  0.00    +0.310 C 
ATOM     12  O   UNL     1      -1.538  -4.076   2.795  0.00  0.00    -0.252 OA
ATOM     13  N   UNL     1      -0.538  -2.690   1.314  0.00  0.00    -0.285 N 
ATOM     14  C   UNL     1       1.423  -2.468  -2.564  0.00  0.00    +0.011 C 
ATOM     15  C   UNL     1      -0.705  -2.551  -1.257  0.00  0.00    +0.011 C 
ATOM     16  H   UNL     1      -1.274  -2.532   0.702  0.00  0.00    +0.151 HD
ENDROOT
BRANCH  10  17
ATOM     17  C   UNL     1       0.883  -4.231   4.280  0.00  0.00    +0.213 C 
BRANCH  17  18
ATOM     18  C   UNL     1       0.570  -3.370   5.477  0.00  0.00    +0.231 C 
ATOM     19  O   UNL     1       0.166  -2.238   5.319  0.00  0.00    -0.274 OA
ATOM     20  N   UNL     1       0.739  -3.859   6.721  0.00  0.00    -0.314 N 
ATOM     21  H   UNL     1       1.062  -4.765   6.847  0.00  0.00    +0.149 HD
BRANCH  20  22
ATOM     22  C   UNL     1       0.435  -3.022   7.884  0.00  0.00    +0.105 C 
BRANCH  22  23
ATOM     23  C   UNL     1       0.711  -3.810   9.166  0.00  0.00    -0.012 C 
ATOM     24  C   UNL     1      -0.369  -4.900   9.392  0.00  0.00    -0.015 C 
ATOM     25  C   UNL     1      -0.357  -5.091  10.923  0.00  0.00    -0.078 C 
ATOM     26  N   UNL     1       0.207  -3.862  11.511  0.00  0.00    +0.381 N 
ATOM     27  C   UNL     1       0.520  -2.917  10.418  0.00  0.00    -0.074 C 
ATOM     28  H   UNL     1       1.050  -4.085  12.019  0.00  0.00    -0.081 HD
BRANCH  26  29
ATOM     29  C   UNL     1      -0.772  -3.256  12.424  0.00  0.00    -0.075 C 
ATOM     30  C   UNL     1      -1.082  -4.232  13.560  0.00  0.00    -0.014 C 
ATOM     31  C   UNL     1      -0.196  -1.964  13.005  0.00  0.00    -0.014 C 
ENDBRANCH  26  29
ENDBRANCH  22  23
ENDBRANCH  20  22
ENDBRANCH  17  18
ENDBRANCH  10  17
TORSDOF 5
