REMARK  Name = ZINC64703534
REMARK  13 active torsions:
REMARK  status: ('A' for Active; 'I' for Inactive)
REMARK    1  A    between atoms: C_1  and  C_2
REMARK    2  A    between atoms: C_5  and  N_9
REMARK    3  A    between atoms: C_10  and  C_12
REMARK    4  A    between atoms: C_12  and  N_13
REMARK    5  A    between atoms: N_13  and  C_14
REMARK    6  A    between atoms: C_18  and  N_31
REMARK    7  A    between atoms: C_19  and  C_23
REMARK    8  A    between atoms: C_26  and  O_29
REMARK    9  A    between atoms: O_29  and  C_30
REMARK   10  A    between atoms: N_31  and  C_32
REMARK   11  A    between atoms: C_32  and  C_33
REMARK   12  A    between atoms: C_32  and  C_34
REMARK   13  A    between atoms: C_32  and  C_35
REMARK                            x       y       z     vdW  Elec       q    Type
REMARK                         _______ _______ _______ _____ _____    ______ ____
ROOT
ATOM      1  N   UNL     1      -0.209  -6.923  -2.543  0.00  0.00    -0.302 N 
ATOM      2  C   UNL     1       1.002  -7.250  -3.300  0.00  0.00    +0.132 C 
ATOM      3  C   UNL     1      -1.453  -7.046  -3.140  0.00  0.00    +0.184 A 
ATOM      4  N   UNL     1      -1.747  -7.437  -4.350  0.00  0.00    -0.140 NA
ATOM      5  N   UNL     1      -3.066  -7.501  -4.790  0.00  0.00    -0.190 N 
ATOM      6  C   UNL     1      -3.759  -7.847  -5.941  0.00  0.00    +0.150 A 
ATOM      7  C   UNL     1      -5.087  -7.676  -5.688  0.00  0.00    +0.114 A 
ATOM      8  N   UNL     1      -5.213  -7.234  -4.410  0.00  0.00    -0.218 NA
ATOM      9  C   UNL     1      -4.029  -7.132  -3.885  0.00  0.00    +0.199 A 
ATOM     10  S   UNL     1      -3.066  -6.716  -2.449  0.00  0.00    -0.013 S 
ENDROOT
BRANCH   7  11
ATOM     11  C   UNL     1      -6.195  -7.926  -6.639  0.00  0.00    +0.004 A 
ATOM     12  C   UNL     1      -6.021  -7.670  -7.999  0.00  0.00    +0.014 A 
ATOM     13  C   UNL     1      -7.055  -7.904  -8.881  0.00  0.00    +0.046 A 
ATOM     14  C   UNL     1      -8.268  -8.393  -8.417  0.00  0.00    +0.120 A 
ATOM     15  C   UNL     1      -8.445  -8.649  -7.064  0.00  0.00    +0.046 A 
ATOM     16  C   UNL     1      -7.414  -8.423  -6.177  0.00  0.00    +0.014 A 
BRANCH  14  17
ATOM     17  O   UNL     1      -9.286  -8.622  -9.289  0.00  0.00    -0.495 OA
ATOM     18  C   UNL     1     -10.507  -9.126  -8.744  0.00  0.00    +0.277 C 
ENDBRANCH  14  17
ENDBRANCH   7  11
BRANCH   6  19
ATOM     19  N   UNL     1      -3.197  -8.289  -7.142  0.00  0.00    -0.323 N 
ATOM     20  H   UNL     1      -3.761  -8.433  -7.918  0.00  0.00    +0.148 HD
BRANCH  19  21
ATOM     21  C   UNL     1      -1.755  -8.536  -7.230  0.00  0.00    +0.025 C 
ATOM     22  C   UNL     1      -1.341  -9.527  -6.140  0.00  0.00    +0.031 C 
ATOM     23  C   UNL     1      -1.420  -9.119  -8.604  0.00  0.00    +0.031 C 
ATOM     24  C   UNL     1      -1.000  -7.220  -7.036  0.00  0.00    +0.031 C 
ENDBRANCH  19  21
ENDBRANCH   6  19
BRANCH   1  25
ATOM     25  C   UNL     1      -0.104  -6.466  -1.155  0.00  0.00    +0.202 C 
BRANCH  25  27
ATOM     26  N   UNL     1       0.123  -4.318   0.049  0.00  0.00    -0.283 N 
ATOM     27  C   UNL     1       0.014  -4.964  -1.128  0.00  0.00    +0.235 C 
ATOM     28  O   UNL     1       0.012  -4.337  -2.166  0.00  0.00    -0.274 OA
ATOM     29  H   UNL     1       0.206  -4.823   0.874  0.00  0.00    +0.155 HD
BRANCH  26  34
ATOM     30  C   UNL     1       0.096   1.355   0.186  0.00  0.00    +0.044 C 
ATOM     31  C   UNL     1       0.104  -0.152   0.150  0.00  0.00    -0.049 A 
ATOM     32  C   UNL     1      -0.497  -0.820  -0.901  0.00  0.00    +0.005 A 
ATOM     33  C   UNL     1      -0.492  -2.201  -0.937  0.00  0.00    +0.025 A 
ATOM     34  C   UNL     1       0.117  -2.919   0.083  0.00  0.00    +0.052 A 
ATOM     35  C   UNL     1       0.721  -2.245   1.138  0.00  0.00    +0.062 A 
ATOM     36  C   UNL     1       0.717  -0.863   1.165  0.00  0.00    +0.025 A 
ATOM     37 CL   UNL     1       1.485  -3.137   2.416  0.00  0.00    -0.082 Cl
ENDBRANCH  26  34
ENDBRANCH  25  27
ENDBRANCH   1  25
TORSDOF 7
