REMARK  Name = ZINC32908771
REMARK  8 active torsions:
REMARK  status: ('A' for Active; 'I' for Inactive)
REMARK    1  A    between atoms: C_2  and  C_16
REMARK    2  A    between atoms: C_5  and  N_7
REMARK    3  A    between atoms: C_10  and  C_13
REMARK    4  A    between atoms: C_13  and  C_14
REMARK    5  A    between atoms: C_14  and  N_15
REMARK    6  A    between atoms: N_18  and  C_19
REMARK    7  A    between atoms: C_19  and  C_20
REMARK    8  A    between atoms: C_20  and  C_21
REMARK                            x       y       z     vdW  Elec       q    Type
REMARK                         _______ _______ _______ _____ _____    ______ ____
ROOT
ATOM      1  C   UNL     1      -1.162   9.363   2.991  0.00  0.00    +0.146 A 
ATOM      2  C   UNL     1       0.073   9.998   3.124  0.00  0.00    +0.143 A 
ATOM      3  N   UNL     1       1.197   9.282   3.089  0.00  0.00    -0.245 NA
ATOM      4  C   UNL     1       1.141   7.978   2.934  0.00  0.00    +0.155 A 
ATOM      5  C   UNL     1      -0.097   7.342   2.795  0.00  0.00    +0.140 A 
ATOM      6  N   UNL     1      -1.217   8.054   2.830  0.00  0.00    -0.236 NA
ENDROOT
BRANCH   5   7
ATOM      7  N   UNL     1      -0.154   5.969   2.627  0.00  0.00    -0.314 N 
ATOM      8  C   UNL     1      -1.545   5.512   2.508  0.00  0.00    +0.107 C 
ATOM      9  C   UNL     1      -1.578   3.982   2.470  0.00  0.00    +0.022 C 
ATOM     10  C   UNL     1      -0.755   3.488   1.277  0.00  0.00    -0.010 C 
ATOM     11  C   UNL     1       0.676   4.019   1.400  0.00  0.00    +0.022 C 
ATOM     12  C   UNL     1       0.644   5.547   1.469  0.00  0.00    +0.107 C 
BRANCH  10  13
ATOM     13  C   UNL     1      -0.734   1.958   1.269  0.00  0.00    -0.016 C 
BRANCH  13  14
ATOM     14  C   UNL     1      -0.018   1.465   0.010  0.00  0.00    -0.086 C 
BRANCH  14  15
ATOM     15  N   UNL     1       0.002  -0.004   0.002  0.00  0.00    +0.378 N 
ATOM     16  H   UNL     1       0.517  -0.359  -0.903  0.00  0.00    -0.090 HD
ATOM     17  H   UNL     1      -1.030  -0.385   0.010  0.00  0.00    -0.090 HD
ATOM     18  H   UNL     1       0.534  -0.368   0.893  0.00  0.00    -0.090 HD
ENDBRANCH  14  15
ENDBRANCH  13  14
ENDBRANCH  10  13
ENDBRANCH   5   7
BRANCH   2  19
ATOM     19  C   UNL     1       0.135  11.464   3.303  0.00  0.00    +0.264 C 
ATOM     20  O   UNL     1      -0.890  12.116   3.334  0.00  0.00    -0.268 OA
ATOM     21  N   UNL     1       1.329  12.077   3.432  0.00  0.00    -0.310 N 
ATOM     22  H   UNL     1       2.256  11.486   3.403  0.00  0.00    +0.149 HD
BRANCH  21  23
ATOM     23  C   UNL     1       1.391  13.530   3.609  0.00  0.00    +0.105 C 
BRANCH  23  24
ATOM     24  C   UNL     1       2.852  13.967   3.729  0.00  0.00    +0.022 C 
BRANCH  24  25
ATOM     25  C   UNL     1       2.916  15.484   3.915  0.00  0.00    -0.010 C 
ATOM     26  C   UNL     1       2.389  16.175   2.655  0.00  0.00    +0.003 C 
ATOM     27  C   UNL     1       2.453  17.692   2.841  0.00  0.00    +0.000 C 
ATOM     28  C   UNL     1       3.903  18.115   3.085  0.00  0.00    +0.000 C 
ATOM     29  C   UNL     1       4.431  17.424   4.344  0.00  0.00    +0.000 C 
ATOM     30  C   UNL     1       4.366  15.907   4.159  0.00  0.00    +0.003 C 
ENDBRANCH  24  25
ENDBRANCH  23  24
ENDBRANCH  21  23
ENDBRANCH   2  19
TORSDOF 8
