REMARK  Name = ZINC04736525
REMARK  9 active torsions:
REMARK  status: ('A' for Active; 'I' for Inactive)
REMARK    1  A    between atoms: C_1  and  C_2
REMARK    2  A    between atoms: C_7  and  O_8
REMARK    3  A    between atoms: O_8  and  C_9
REMARK    4  A    between atoms: C_9  and  C_10
REMARK    5  A    between atoms: C_13  and  S_16
REMARK    6  A    between atoms: N_14  and  C_15
REMARK    7  A    between atoms: S_16  and  C_17
REMARK    8  A    between atoms: C_17  and  C_19
REMARK    9  A    between atoms: C_17  and  C_20
REMARK                            x       y       z     vdW  Elec       q    Type
REMARK                         _______ _______ _______ _____ _____    ______ ____
ROOT
ATOM      1  C   UNL     1      -0.549   7.952  -1.177  0.00  0.00    +0.172 A 
ATOM      2  N   UNL     1       0.523   7.732  -0.470  0.00  0.00    -0.130 NA
ATOM      3  N   UNL     1       0.688   6.469  -0.300  0.00  0.00    -0.122 NA
ATOM      4  C   UNL     1      -0.275   5.809  -0.902  0.00  0.00    +0.192 A 
ATOM      5  N   UNL     1      -1.096   6.736  -1.477  0.00  0.00    -0.306 N 
ATOM      6  C   UNL     1      -2.311   6.479  -2.255  0.00  0.00    +0.153 C 
ENDROOT
BRANCH   1   7
ATOM      7  C   UNL     1      -1.086   9.299  -1.588  0.00  0.00    +0.305 C 
BRANCH   7   8
ATOM      8  O   UNL     1      -1.990   9.776  -0.589  0.00  0.00    -0.484 OA
BRANCH   8  15
ATOM      9  C   UNL     1      -3.779  10.737   1.375  0.00  0.00    +0.047 C 
ATOM     10  C   UNL     1      -3.455  11.510   0.122  0.00  0.00    -0.009 A 
ATOM     11  C   UNL     1      -4.041  12.741  -0.101  0.00  0.00    +0.007 A 
ATOM     12  C   UNL     1      -3.744  13.451  -1.250  0.00  0.00    +0.000 A 
ATOM     13  C   UNL     1      -2.859  12.931  -2.177  0.00  0.00    +0.004 A 
ATOM     14  C   UNL     1      -2.267  11.704  -1.956  0.00  0.00    +0.046 A 
ATOM     15  C   UNL     1      -2.567  10.987  -0.806  0.00  0.00    +0.124 A 
ENDBRANCH   8  15
ENDBRANCH   7   8
ENDBRANCH   1   7
BRANCH   4  16
ATOM     16  S   UNL     1      -0.474   4.059  -0.951  0.00  0.00    -0.075 S 
BRANCH  16  17
ATOM     17  C   UNL     1       0.973   3.551   0.012  0.00  0.00    +0.117 C 
ATOM     18  C   UNL     1       0.825   4.043   1.453  0.00  0.00    +0.027 C 
BRANCH  17  19
ATOM     19  C   UNL     1       1.080   2.048   0.003  0.00  0.00    +0.124 A 
ATOM     20  N   UNL     1       2.319   1.490  -0.012  0.00  0.00    -0.309 N 
ATOM     21  H   UNL     1       3.127   2.079  -0.017  0.00  0.00    +0.170 HD
ATOM     22  C   UNL     1       2.469   0.145  -0.021  0.00  0.00    +0.259 A 
ATOM     23  O   UNL     1       3.572  -0.368  -0.034  0.00  0.00    -0.267 OA
ATOM     24  C   UNL     1       1.246  -0.672  -0.013  0.00  0.00    +0.065 A 
ATOM     25  C   UNL     1       1.291  -2.065  -0.022  0.00  0.00    +0.015 A 
ATOM     26  C   UNL     1       0.114  -2.782  -0.015  0.00  0.00    +0.001 A 
ATOM     27  C   UNL     1      -1.111  -2.128   0.000  0.00  0.00    +0.002 A 
ATOM     28  C   UNL     1      -1.177  -0.753   0.009  0.00  0.00    +0.028 A 
ATOM     29  C   UNL     1       0.002  -0.004   0.002  0.00  0.00    +0.078 A 
ATOM     30  N   UNL     1      -0.016   1.352   0.009  0.00  0.00    -0.233 NA
ENDBRANCH  17  19
ENDBRANCH  16  17
ENDBRANCH   4  16
TORSDOF 6
