REMARK  Name = ZINC13506849
REMARK  8 active torsions:
REMARK  status: ('A' for Active; 'I' for Inactive)
REMARK    1  A    between atoms: C_4  and  C_7
REMARK    2  A    between atoms: C_7  and  C_9
REMARK    3  A    between atoms: C_7  and  N_17
REMARK    4  A    between atoms: N_11  and  C_12
REMARK    5  A    between atoms: N_17  and  C_18
REMARK    6  A    between atoms: C_27  and  C_29
REMARK    7  A    between atoms: C_29  and  N_30
REMARK    8  A    between atoms: C_31  and  C_33
REMARK                            x       y       z     vdW  Elec       q    Type
REMARK                         _______ _______ _______ _____ _____    ______ ____
ROOT
ATOM      1  N   UNL     1       2.185   3.986   0.957  0.00  0.00    -0.254 N 
ATOM      2  C   UNL     1       1.920   4.558   2.148  0.00  0.00    +0.238 C 
ATOM      3  O   UNL     1       0.772   4.768   2.478  0.00  0.00    -0.274 OA
ENDROOT
BRANCH   1   4
ATOM      4  C   UNL     1       3.502   3.648   0.620  0.00  0.00    +0.041 A 
ATOM      5  C   UNL     1       4.431   4.648   0.362  0.00  0.00    +0.027 A 
ATOM      6  C   UNL     1       5.731   4.316   0.029  0.00  0.00    +0.051 A 
ATOM      7  C   UNL     1       6.111   2.986  -0.048  0.00  0.00    +0.166 A 
ATOM      8  C   UNL     1       5.181   1.981   0.210  0.00  0.00    +0.168 A 
ATOM      9  C   UNL     1       3.880   2.314   0.549  0.00  0.00    +0.073 A 
ATOM     10  O   UNL     1       5.797   0.771   0.070  0.00  0.00    -0.453 OA
ATOM     11  C   UNL     1       7.208   1.048   0.124  0.00  0.00    +0.466 C 
ATOM     12  O   UNL     1       7.309   2.404  -0.350  0.00  0.00    -0.453 OA
ENDBRANCH   1   4
BRANCH   1  13
ATOM     13  C   UNL     1       1.096   3.717   0.015  0.00  0.00    +0.197 C 
BRANCH  13  17
ATOM     14  C   UNL     1       2.619   1.571  -3.350  0.00  0.00    +0.000 A 
ATOM     15  C   UNL     1       1.599   1.030  -2.590  0.00  0.00    +0.000 A 
ATOM     16  C   UNL     1       1.106   1.725  -1.501  0.00  0.00    +0.006 A 
ATOM     17  C   UNL     1       1.633   2.960  -1.172  0.00  0.00    -0.018 A 
ATOM     18  C   UNL     1       2.654   3.500  -1.932  0.00  0.00    +0.006 A 
ATOM     19  C   UNL     1       3.147   2.806  -3.021  0.00  0.00    +0.000 A 
ENDBRANCH  13  17
BRANCH  13  20
ATOM     20  C   UNL     1       0.500   5.021  -0.450  0.00  0.00    +0.239 C 
ATOM     21  O   UNL     1       0.941   6.071  -0.034  0.00  0.00    -0.273 OA
ATOM     22  N   UNL     1      -0.524   5.019  -1.326  0.00  0.00    -0.311 N 
ATOM     23  H   UNL     1      -0.877   4.179  -1.658  0.00  0.00    +0.149 HD
BRANCH  22  24
ATOM     24  C   UNL     1      -1.104   6.287  -1.777  0.00  0.00    +0.073 C 
ATOM     25  C   UNL     1      -2.219   6.733  -0.809  0.00  0.00    +0.022 C 
ATOM     26  C   UNL     1      -3.291   7.365  -1.730  0.00  0.00    +0.002 C 
ATOM     27  C   UNL     1      -3.259   6.444  -2.975  0.00  0.00    +0.002 C 
ATOM     28  C   UNL     1      -1.765   6.104  -3.155  0.00  0.00    +0.022 C 
ENDBRANCH  22  24
ENDBRANCH  13  20
ENDBRANCH   1  13
BRANCH   2  29
ATOM     29  C   UNL     1       3.050   4.938   3.069  0.00  0.00    +0.201 C 
BRANCH  29  30
ATOM     30  N   UNL     1       2.503   5.420   4.340  0.00  0.00    -0.300 N 
ATOM     31  C   UNL     1       3.334   5.818   5.324  0.00  0.00    +0.280 C 
ATOM     32  O   UNL     1       4.539   5.777   5.156  0.00  0.00    -0.267 OA
ATOM     33  H   UNL     1       1.543   5.452   4.474  0.00  0.00    +0.150 HD
BRANCH  31  34
ATOM     34  C   UNL     1       2.787   6.300   6.596  0.00  0.00    +0.189 A 
ATOM     35  C   UNL     1       3.512   6.730   7.670  0.00  0.00    +0.054 A 
ATOM     36  C   UNL     1       2.587   7.096   8.661  0.00  0.00    +0.042 A 
ATOM     37  C   UNL     1       1.354   6.875   8.155  0.00  0.00    +0.196 A 
ATOM     38  O   UNL     1       1.478   6.400   6.909  0.00  0.00    -0.458 OA
ENDBRANCH  31  34
ENDBRANCH  29  30
ENDBRANCH   2  29
TORSDOF 8
