REMARK  Name = ZINC64365600
REMARK  3 active torsions:
REMARK  status: ('A' for Active; 'I' for Inactive)
REMARK    1  A    between atoms: C_7  and  C_13
REMARK    2  A    between atoms: N_15  and  C_16
REMARK    3  A    between atoms: C_20  and  C_23
REMARK                            x       y       z     vdW  Elec       q    Type
REMARK                         _______ _______ _______ _____ _____    ______ ____
ROOT
ATOM      1  C   UNL     1       0.014  -2.947  -0.013  0.00  0.00    +0.247 C 
ATOM      2  O   UNL     1       0.061  -4.157  -0.113  0.00  0.00    -0.270 OA
ATOM      3  N   UNL     1      -1.177  -2.327   0.104  0.00  0.00    -0.286 N 
ATOM      4  H   UNL     1      -1.220  -1.358   0.110  0.00  0.00    +0.151 HD
ENDROOT
BRANCH   1  11
ATOM      5  C   UNL     1       3.898  -4.813   0.012  0.00  0.00    +0.001 A 
ATOM      6  C   UNL     1       5.057  -4.048   0.004  0.00  0.00    +0.002 A 
ATOM      7  C   UNL     1       4.989  -2.672  -0.011  0.00  0.00    +0.026 A 
ATOM      8  C   UNL     1       3.748  -2.039  -0.019  0.00  0.00    +0.050 A 
ATOM      9  C   UNL     1       2.578  -2.818  -0.011  0.00  0.00    +0.011 A 
ATOM     10  C   UNL     1       2.671  -4.214   0.004  0.00  0.00    +0.011 A 
ATOM     11  C   UNL     1       1.266  -2.153  -0.020  0.00  0.00    +0.051 A 
ATOM     12  C   UNL     1       1.228  -0.789  -0.035  0.00  0.00    +0.083 A 
ATOM     13  C   UNL     1       2.479  -0.034  -0.042  0.00  0.00    +0.250 A 
ATOM     14  O   UNL     1       2.445   1.184  -0.055  0.00  0.00    -0.268 OA
ATOM     15  N   UNL     1       3.667  -0.663  -0.033  0.00  0.00    -0.322 N 
ATOM     16  H   UNL     1       4.482  -0.139  -0.038  0.00  0.00    +0.169 HD
ENDBRANCH   1  11
BRANCH   3  17
ATOM     17  C   UNL     1      -2.406  -3.116   0.223  0.00  0.00    +0.217 C 
ATOM     18  N   UNL     1      -2.588  -3.616   1.615  0.00  0.00    -0.227 NA
ATOM     19  N   UNL     1      -3.326  -2.666   2.439  0.00  0.00    -0.241 NA
ATOM     20  C   UNL     1      -4.570  -2.232   1.730  0.00  0.00    +0.133 C 
ATOM     21  S   UNL     1      -3.897  -2.053   0.020  0.00  0.00    -0.102 S 
ATOM     22  H   UNL     1      -3.034  -4.521   1.618  0.00  0.00    +0.143 HD
ATOM     23  H   UNL     1      -2.751  -1.872   2.679  0.00  0.00    +0.142 HD
BRANCH  20  24
ATOM     24  C   UNL     1      -5.085  -0.896   2.272  0.00  0.00    +0.017 C 
ATOM     25  C   UNL     1      -4.015   0.179   2.077  0.00  0.00    +0.006 C 
ATOM     26  C   UNL     1      -4.529   1.515   2.618  0.00  0.00    +0.000 C 
ATOM     27  C   UNL     1      -5.799   1.915   1.865  0.00  0.00    +0.000 C 
ATOM     28  C   UNL     1      -6.869   0.840   2.060  0.00  0.00    +0.000 C 
ATOM     29  C   UNL     1      -6.355  -0.496   1.518  0.00  0.00    +0.006 C 
ENDBRANCH  20  24
ENDBRANCH   3  17
TORSDOF 3
