REMARK  Name = ZINC12316865
REMARK  4 active torsions:
REMARK  status: ('A' for Active; 'I' for Inactive)
REMARK    1  A    between atoms: C_1  and  N_2
REMARK    2  A    between atoms: N_2  and  C_3
REMARK    3  A    between atoms: C_3  and  C_4
REMARK    4  A    between atoms: C_16  and  C_20
REMARK                            x       y       z     vdW  Elec       q    Type
REMARK                         _______ _______ _______ _____ _____    ______ ____
ROOT
ATOM      1  C   UNL     1       3.511   3.496   0.103  0.00  0.00    +0.132 C 
ATOM      2  N   UNL     1       3.487   2.032   0.054  0.00  0.00    -0.296 N 
ATOM      3  C   UNL     1       2.278   1.359   0.024  0.00  0.00    +0.238 A 
ATOM      4  N   UNL     1       1.145   2.049   0.039  0.00  0.00    -0.212 NA
ATOM      5  C   UNL     1      -0.017   1.396   0.010  0.00  0.00    +0.095 A 
ATOM      6  C   UNL     1       0.002  -0.003  -0.037  0.00  0.00    +0.163 A 
ATOM      7  N   UNL     1       1.164  -0.630  -0.050  0.00  0.00    -0.152 NA
ATOM      8  N   UNL     1       2.266   0.033  -0.021  0.00  0.00    -0.113 NA
ENDROOT
BRANCH   5   9
ATOM      9  C   UNL     1      -1.300   2.134   0.020  0.00  0.00    +0.010 A 
ATOM     10  C   UNL     1      -2.293   1.823  -0.892  0.00  0.00    +0.011 A 
ATOM     11  C   UNL     1      -3.501   2.512  -0.888  0.00  0.00    +0.001 A 
ATOM     12  C   UNL     1      -3.740   3.509   0.008  0.00  0.00    +0.008 A 
ATOM     13  C   UNL     1      -2.759   3.858   0.952  0.00  0.00    -0.017 A 
ATOM     14  C   UNL     1      -1.526   3.163   0.966  0.00  0.00    -0.009 A 
ATOM     15  C   UNL     1      -0.546   3.516   1.905  0.00  0.00    +0.009 A 
ATOM     16  C   UNL     1      -0.795   4.515   2.797  0.00  0.00    +0.001 A 
ATOM     17  C   UNL     1      -2.010   5.196   2.788  0.00  0.00    +0.001 A 
ATOM     18  C   UNL     1      -2.982   4.883   1.888  0.00  0.00    +0.008 A 
ENDBRANCH   5   9
BRANCH   2  19
ATOM     19  C   UNL     1       4.744   1.279   0.037  0.00  0.00    +0.165 C 
BRANCH  19  20
ATOM     20  C   UNL     1       5.184   1.069  -1.389  0.00  0.00    +0.083 A 
ATOM     21  C   UNL     1       6.002   1.921  -2.127  0.00  0.00    -0.002 A 
ATOM     22  C   UNL     1       6.164   1.382  -3.363  0.00  0.00    +0.040 A 
ATOM     23  N   UNL     1       5.474   0.230  -3.402  0.00  0.00    -0.281 N 
ATOM     24  H   UNL     1       5.405  -0.389  -4.185  0.00  0.00    +0.189 HD
ATOM     25  N   UNL     1       4.868   0.049  -2.150  0.00  0.00    -0.177 NA
ATOM     26  C   UNL     1       6.985   2.012  -4.460  0.00  0.00    +0.055 C 
ATOM     27  C   UNL     1       7.228   3.482  -4.099  0.00  0.00    +0.006 C 
ATOM     28  C   UNL     1       7.751   3.577  -2.663  0.00  0.00    +0.005 C 
ATOM     29  C   UNL     1       6.626   3.221  -1.683  0.00  0.00    +0.039 C 
ENDBRANCH  19  20
ENDBRANCH   2  19
TORSDOF 3
