REMARK  Name = ZINC65963977
REMARK  10 active torsions:
REMARK  status: ('A' for Active; 'I' for Inactive)
REMARK    1  A    between atoms: C_1  and  C_2
REMARK    2  A    between atoms: C_2  and  C_3
REMARK    3  A    between atoms: C_2  and  C_4
REMARK    4  A    between atoms: C_4  and  C_5
REMARK    5  A    between atoms: C_4  and  C_6
REMARK    6  A    between atoms: C_4  and  N_8
REMARK    7  A    between atoms: C_9  and  C_11
REMARK    8  A    between atoms: C_11  and  N_12
REMARK    9  A    between atoms: C_15  and  N_18
REMARK   10  A    between atoms: C_19  and  C_21
REMARK                            x       y       z     vdW  Elec       q    Type
REMARK                         _______ _______ _______ _____ _____    ______ ____
ROOT
ATOM      1  N   UNL     1       0.395  -0.589   6.088  0.00  0.00    +0.385 N 
ATOM      2  C   UNL     1       1.688   0.098   6.200  0.00  0.00    -0.076 C 
ATOM      3  C   UNL     1       2.467  -0.463   7.391  0.00  0.00    +0.003 C 
ATOM      4  C   UNL     1       1.657  -0.243   8.672  0.00  0.00    +0.069 C 
ATOM      5  C   UNL     1       0.283  -0.900   8.516  0.00  0.00    +0.003 C 
ATOM      6  C   UNL     1      -0.415  -0.323   7.283  0.00  0.00    -0.076 C 
ATOM      7  H   UNL     1       0.551  -1.583   6.003  0.00  0.00    -0.081 HD
ENDROOT
BRANCH   4   8
ATOM      8  N   UNL     1       2.362  -0.845   9.807  0.00  0.00    -0.312 N 
ATOM      9  C   UNL     1       2.151  -0.381  11.055  0.00  0.00    +0.216 C 
ATOM     10  O   UNL     1       1.378   0.535  11.238  0.00  0.00    -0.276 OA
ATOM     11  H   UNL     1       2.981  -1.577   9.660  0.00  0.00    +0.149 HD
BRANCH   9  12
ATOM     12  C   UNL     1       2.876  -1.000  12.222  0.00  0.00    +0.075 C 
ATOM     13  C   UNL     1       4.386  -0.850  12.022  0.00  0.00    +0.013 C 
ATOM     14  C   UNL     1       5.122  -1.479  13.207  0.00  0.00    +0.001 C 
ATOM     15  C   UNL     1       4.706  -0.773  14.499  0.00  0.00    +0.000 C 
ATOM     16  C   UNL     1       3.196  -0.923  14.698  0.00  0.00    +0.001 C 
ATOM     17  C   UNL     1       2.460  -0.294  13.514  0.00  0.00    +0.013 C 
ENDBRANCH   9  12
ENDBRANCH   4   8
BRANCH   1  18
ATOM     18  C   UNL     1      -0.315  -0.103   4.898  0.00  0.00    +0.019 C 
BRANCH  18  20
ATOM     19  N   UNL     1      -0.008  -0.140   2.444  0.00  0.00    -0.299 N 
ATOM     20  C   UNL     1       0.457  -0.484   3.661  0.00  0.00    +0.198 C 
ATOM     21  O   UNL     1       1.496  -1.101   3.761  0.00  0.00    -0.278 OA
ATOM     22  H   UNL     1      -0.840   0.353   2.364  0.00  0.00    +0.150 HD
BRANCH  19  23
ATOM     23  C   UNL     1       0.742  -0.511   1.242  0.00  0.00    +0.121 C 
ATOM     24  C   UNL     1       0.872  -2.034   1.171  0.00  0.00    +0.048 C 
BRANCH  23  26
ATOM     25  C   UNL     1      -0.019   1.526   0.010  0.00  0.00    +0.010 C 
ATOM     26  C   UNL     1       0.002  -0.004   0.002  0.00  0.00    +0.020 C 
ATOM     27  C   UNL     1       0.718  -0.497  -1.257  0.00  0.00    +0.010 C 
ENDBRANCH  23  26
BRANCH  23  28
ATOM     28  C   UNL     1       2.083   0.094   1.294  0.00  0.00    +0.088 C 
ATOM     29  N   UNL     1       3.118   0.561   1.335  0.00  0.00    -0.194 NA
ENDBRANCH  23  28
ENDBRANCH  19  23
ENDBRANCH  18  20
ENDBRANCH   1  18
TORSDOF 7
