REMARK  Name = ZINC63384315
REMARK  6 active torsions:
REMARK  status: ('A' for Active; 'I' for Inactive)
REMARK    1  A    between atoms: C_1  and  C_2
REMARK    2  A    between atoms: C_2  and  N_3
REMARK    3  A    between atoms: C_16  and  C_18
REMARK    4  A    between atoms: N_24  and  C_27
REMARK    5  A    between atoms: C_27  and  C_28
REMARK    6  A    between atoms: C_28  and  C_29
REMARK                            x       y       z     vdW  Elec       q    Type
REMARK                         _______ _______ _______ _____ _____    ______ ____
ROOT
ATOM      1  C   UNL     1      -0.479  -2.380   1.293  0.00  0.00    +0.070 A 
ATOM      2  H   UNL     1       2.086  -4.197   2.072  0.00  0.00    +0.173 HD
ATOM      3  C   UNL     1       0.567  -3.236   1.116  0.00  0.00    +0.259 A 
ATOM      4  N   UNL     1       1.341  -3.587   2.193  0.00  0.00    -0.275 N 
ATOM      5  C   UNL     1       1.073  -3.093   3.415  0.00  0.00    +0.332 A 
ATOM      6  O   UNL     1       1.770  -3.415   4.358  0.00  0.00    -0.246 OA
ATOM      7  N   UNL     1       0.046  -2.246   3.610  0.00  0.00    -0.260 N 
ATOM      8  C   UNL     1      -0.736  -1.871   2.578  0.00  0.00    +0.262 A 
ATOM      9  O   UNL     1      -1.662  -1.099   2.759  0.00  0.00    -0.267 OA
ATOM     10  O   UNL     1       0.838  -3.735  -0.108  0.00  0.00    -0.267 OA
ENDROOT
BRANCH   1  23
ATOM     11  N   UNL     1      -1.376  -0.512   0.012  0.00  0.00    +0.386 N 
ATOM     12  C   UNL     1      -2.056  -0.070  -1.207  0.00  0.00    -0.073 C 
ATOM     13  C   UNL     1      -3.549  -0.443  -1.153  0.00  0.00    +0.015 C 
ATOM     14  C   UNL     1      -3.601  -1.909  -0.801  0.00  0.00    -0.041 C 
ATOM     15  C   UNL     1      -4.254  -2.934  -1.329  0.00  0.00    -0.001 A 
ATOM     16  C   UNL     1      -5.288  -3.008  -2.373  0.00  0.00    +0.010 A 
ATOM     17  C   UNL     1      -5.728  -4.253  -2.695  0.00  0.00    +0.001 A 
ATOM     18  C   UNL     1      -5.249  -5.419  -2.090  0.00  0.00    +0.002 A 
ATOM     19  C   UNL     1      -4.307  -5.444  -1.113  0.00  0.00    +0.026 A 
ATOM     20  C   UNL     1      -3.775  -4.194  -0.682  0.00  0.00    +0.043 A 
ATOM     21  N   UNL     1      -2.899  -3.927   0.243  0.00  0.00    -0.379 N 
ATOM     22  C   UNL     1      -2.773  -2.476   0.349  0.00  0.00    +0.097 C 
ATOM     23  C   UNL     1      -1.344  -1.979   0.126  0.00  0.00    -0.000 C 
ATOM     24  H   UNL     1      -2.413  -4.580   0.771  0.00  0.00    +0.160 HD
ATOM     25  H   UNL     1      -1.860  -0.132   0.812  0.00  0.00    -0.081 HD
BRANCH  11  27
ATOM     26  C   UNL     1      -0.019   1.526   0.010  0.00  0.00    -0.017 C 
ATOM     27  C   UNL     1       0.002  -0.004   0.002  0.00  0.00    -0.081 C 
ENDBRANCH  11  27
ENDBRANCH   1  23
BRANCH   7  28
ATOM     28  C   UNL     1      -0.221  -1.723   4.952  0.00  0.00    +0.134 C 
BRANCH  28  29
ATOM     29  C   UNL     1       0.558  -0.423   5.158  0.00  0.00    +0.052 C 
BRANCH  29  30
ATOM     30  C   UNL     1       0.284   0.115   6.539  0.00  0.00    -0.072 C 
ATOM     31  C   UNL     1       1.119  -0.181   7.482  0.00  0.00    -0.028 C 
ATOM     32  C   UNL     1       0.973   0.271   8.906  0.00  0.00    +0.027 C 
ATOM     33  C   UNL     1      -0.014   1.437   8.991  0.00  0.00    +0.004 C 
ATOM     34  C   UNL     1      -1.285   1.053   8.222  0.00  0.00    +0.005 C 
ATOM     35  C   UNL     1      -0.938   0.964   6.733  0.00  0.00    +0.030 C 
ENDBRANCH  29  30
ENDBRANCH  28  29
ENDBRANCH   7  28
TORSDOF 5
