REMARK  Name = ZINC20682141
REMARK  8 active torsions:
REMARK  status: ('A' for Active; 'I' for Inactive)
REMARK    1  A    between atoms: C_1  and  C_2
REMARK    2  A    between atoms: C_2  and  C_3
REMARK    3  A    between atoms: C_2  and  C_4
REMARK    4  A    between atoms: C_4  and  O_5
REMARK    5  A    between atoms: O_5  and  C_6
REMARK    6  A    between atoms: C_13  and  C_22
REMARK    7  A    between atoms: C_25  and  O_29
REMARK    8  A    between atoms: C_27  and  O_28
REMARK                            x       y       z     vdW  Elec       q    Type
REMARK                         _______ _______ _______ _____ _____    ______ ____
ROOT
ATOM      1  C   UNL     1       2.183   0.895   0.918  0.00  0.00    +0.142 A 
ATOM      2  C   UNL     1       3.483   1.355   0.991  0.00  0.00    +0.047 A 
ATOM      3  C   UNL     1       3.899   2.395   0.179  0.00  0.00    +0.004 A 
ATOM      4  C   UNL     1       3.010   2.965  -0.712  0.00  0.00    +0.006 A 
ATOM      5  C   UNL     1       1.712   2.506  -0.799  0.00  0.00    -0.016 A 
ATOM      6  C   UNL     1       1.270   1.469   0.025  0.00  0.00    +0.074 A 
ATOM      7  N   UNL     1      -0.032   0.966   0.019  0.00  0.00    -0.334 N 
ATOM      8  C   UNL     1      -0.946   1.506  -1.000  0.00  0.00    +0.109 C 
ATOM      9  C   UNL     1      -0.659   2.989  -1.114  0.00  0.00    +0.029 C 
ATOM     10  C   UNL     1       0.752   3.068  -1.774  0.00  0.00    +0.049 C 
ATOM     11  C   UNL     1       0.823   4.471  -2.250  0.00  0.00    -0.023 C 
ATOM     12  C   UNL     1      -0.410   4.892  -2.508  0.00  0.00    -0.030 C 
ATOM     13  C   UNL     1      -1.418   3.788  -2.181  0.00  0.00    +0.033 C 
ATOM     14  H   UNL     1      -0.388   0.203   0.727  0.00  0.00    +0.147 HD
ENDROOT
BRANCH   8  15
ATOM     15  C   UNL     1      -0.695   0.832  -2.325  0.00  0.00    +0.015 A 
ATOM     16  C   UNL     1       0.546   0.290  -2.599  0.00  0.00    +0.012 A 
ATOM     17  C   UNL     1       0.779  -0.330  -3.812  0.00  0.00    +0.046 A 
ATOM     18  C   UNL     1      -0.234  -0.409  -4.758  0.00  0.00    +0.120 A 
ATOM     19  C   UNL     1      -1.480   0.134  -4.485  0.00  0.00    +0.091 A 
ATOM     20  C   UNL     1      -1.712   0.751  -3.265  0.00  0.00    +0.125 A 
BRANCH  20  21
ATOM     21  O   UNL     1      -2.934   1.279  -2.992  0.00  0.00    -0.506 OA
ATOM     22  H   UNL     1      -3.741   1.214  -3.737  0.00  0.00    +0.292 HD
ENDBRANCH  20  21
BRANCH  18  23
ATOM     23  O   UNL     1      -0.004  -1.018  -5.951  0.00  0.00    -0.507 OA
ATOM     24  H   UNL     1      -0.807  -1.080  -6.700  0.00  0.00    +0.292 HD
ENDBRANCH  18  23
ENDBRANCH   8  15
BRANCH   1  25
ATOM     25  O   UNL     1       1.784  -0.127   1.722  0.00  0.00    -0.490 OA
BRANCH  25  26
ATOM     26  C   UNL     1       2.761  -0.671   2.612  0.00  0.00    +0.232 C 
BRANCH  26  28
ATOM     27  C   UNL     1       1.750  -2.952   2.497  0.00  0.00    +0.010 C 
ATOM     28  C   UNL     1       2.134  -1.802   3.429  0.00  0.00    +0.020 C 
ATOM     29  C   UNL     1       3.141  -2.300   4.468  0.00  0.00    +0.010 C 
ENDBRANCH  26  28
ENDBRANCH  25  26
ENDBRANCH   1  25
TORSDOF 6
