REMARK  Name = ZINC15016570
REMARK  3 active torsions:
REMARK  status: ('A' for Active; 'I' for Inactive)
REMARK    1  A    between atoms: C_1  and  C_2
REMARK    2  A    between atoms: C_3  and  N_9
REMARK    3  A    between atoms: C_15  and  C_16
REMARK                            x       y       z     vdW  Elec       q    Type
REMARK                         _______ _______ _______ _____ _____    ______ ____
ROOT
ATOM      1  N   UNL     1      -0.010  -0.012  -2.394  0.00  0.00    -0.225 NA
ATOM      2  C   UNL     1       0.093  -0.663  -3.532  0.00  0.00    +0.166 C 
ATOM      3  N   UNL     1       0.124  -2.024  -3.742  0.00  0.00    -0.260 N 
ATOM      4  C   UNL     1       0.233  -2.515  -4.965  0.00  0.00    +0.256 C 
ATOM      5  O   UNL     1       0.261  -3.715  -5.167  0.00  0.00    -0.269 OA
ATOM      6  C   UNL     1       0.317  -1.548  -6.069  0.00  0.00    +0.078 C 
ATOM      7  C   UNL     1       0.433  -1.773  -7.409  0.00  0.00    +0.035 C 
ATOM      8  S   UNL     1       0.219   0.002  -5.185  0.00  0.00    -0.049 S 
ATOM      9  H   UNL     1       0.065  -2.628  -2.985  0.00  0.00    +0.157 HD
ENDROOT
BRANCH   1  12
ATOM     10  C   UNL     1       1.664   0.601  -0.181  0.00  0.00    +0.047 C 
ATOM     11  C   UNL     1       0.575  -0.438  -0.110  0.00  0.00    -0.007 A 
ATOM     12  C   UNL     1      -0.218  -0.699  -1.230  0.00  0.00    +0.071 A 
ATOM     13  C   UNL     1      -1.225  -1.665  -1.155  0.00  0.00    +0.028 A 
ATOM     14  C   UNL     1      -1.430  -2.354   0.022  0.00  0.00    +0.004 A 
ATOM     15  C   UNL     1      -0.642  -2.091   1.128  0.00  0.00    +0.020 A 
ATOM     16  C   UNL     1       0.362  -1.139   1.060  0.00  0.00    +0.046 A 
ATOM     17 CL   UNL     1       1.350  -0.822   2.452  0.00  0.00    -0.083 Cl
ENDBRANCH   1  12
BRANCH   7  18
ATOM     18  C   UNL     1       0.499  -0.682  -8.307  0.00  0.00    +0.013 A 
ATOM     19  C   UNL     1       0.611  -0.692  -9.693  0.00  0.00    +0.015 A 
ATOM     20  C   UNL     1       0.652   0.543 -10.295  0.00  0.00    +0.008 A 
ATOM     21  C   UNL     1       0.583   1.656  -9.524  0.00  0.00    +0.046 A 
ATOM     22  S   UNL     1       0.452   1.066  -7.957  0.00  0.00    -0.097 S 
ENDBRANCH   7  18
TORSDOF 2
