REMARK  Name = ZINC63780733
REMARK  10 active torsions:
REMARK  status: ('A' for Active; 'I' for Inactive)
REMARK    1  A    between atoms: C_1  and  O_2
REMARK    2  A    between atoms: O_2  and  C_3
REMARK    3  A    between atoms: C_8  and  C_9
REMARK    4  A    between atoms: C_9  and  N_10
REMARK    5  A    between atoms: C_11  and  C_13
REMARK    6  A    between atoms: C_13  and  C_15
REMARK    7  A    between atoms: C_13  and  N_25
REMARK    8  A    between atoms: C_15  and  C_16
REMARK    9  A    between atoms: N_25  and  S_26
REMARK   10  A    between atoms: S_26  and  C_29
REMARK                            x       y       z     vdW  Elec       q    Type
REMARK                         _______ _______ _______ _____ _____    ______ ____
ROOT
ATOM      1  C   UNL     1       2.058  -3.513   2.806  0.00  0.00    +0.166 C 
ENDROOT
BRANCH   1   3
ATOM      2  N   UNL     1       0.391  -2.636   1.203  0.00  0.00    -0.310 N 
ATOM      3  C   UNL     1       1.545  -3.302   1.405  0.00  0.00    +0.232 C 
ATOM      4  O   UNL     1       2.171  -3.731   0.459  0.00  0.00    -0.274 OA
ATOM      5  H   UNL     1      -0.110  -2.293   1.959  0.00  0.00    +0.149 HD
BRANCH   2   6
ATOM      6  C   UNL     1      -0.108  -2.432  -0.160  0.00  0.00    +0.143 C 
BRANCH   6  12
ATOM      7  C   UNL     1      -1.393  -0.289   0.055  0.00  0.00    +0.125 A 
ATOM      8  C   UNL     1      -2.589   0.413   0.095  0.00  0.00    +0.046 A 
ATOM      9  C   UNL     1      -3.788  -0.261  -0.025  0.00  0.00    +0.004 A 
ATOM     10  C   UNL     1      -3.798  -1.634  -0.184  0.00  0.00    +0.001 A 
ATOM     11  C   UNL     1      -2.608  -2.336  -0.224  0.00  0.00    +0.009 A 
ATOM     12  C   UNL     1      -1.405  -1.666  -0.110  0.00  0.00    +0.011 A 
BRANCH   7  14
ATOM     13  C   UNL     1      -0.274   1.790   0.340  0.00  0.00    +0.277 C 
ATOM     14  O   UNL     1      -0.211   0.372   0.172  0.00  0.00    -0.495 OA
ENDBRANCH   7  14
ENDBRANCH   6  12
ENDBRANCH   2   6
ENDBRANCH   1   3
BRANCH   1  15
ATOM     15  N   UNL     1       3.319  -4.256   2.758  0.00  0.00    -0.178 NA
ATOM     16  H   UNL     1       3.309  -5.225   2.712  0.00  0.00    +0.149 HD
BRANCH  15  17
ATOM     17  S   UNL     1       4.761  -3.443   2.782  0.00  0.00    +0.059 S 
ATOM     18  O   UNL     1       5.784  -4.430   2.764  0.00  0.00    -0.153 OA
ATOM     19  O   UNL     1       4.669  -2.423   1.797  0.00  0.00    -0.153 OA
BRANCH  17  20
ATOM     20  C   UNL     1       4.875  -2.630   4.341  0.00  0.00    +0.105 A 
ATOM     21  C   UNL     1       4.301  -1.384   4.513  0.00  0.00    +0.030 A 
ATOM     22  C   UNL     1       4.389  -0.745   5.736  0.00  0.00    +0.022 A 
ATOM     23  C   UNL     1       5.053  -1.353   6.787  0.00  0.00    +0.041 A 
ATOM     24  C   UNL     1       5.627  -2.599   6.614  0.00  0.00    +0.022 A 
ATOM     25  C   UNL     1       5.533  -3.240   5.393  0.00  0.00    +0.030 A 
ATOM     26 CL   UNL     1       5.165  -0.550   8.322  0.00  0.00    -0.084 Cl
ENDBRANCH  17  20
ENDBRANCH  15  17
ENDBRANCH   1  15
BRANCH   1  27
ATOM     27  C   UNL     1       1.028  -4.306   3.612  0.00  0.00    +0.063 C 
BRANCH  27  28
ATOM     28  C   UNL     1       1.479  -4.404   5.047  0.00  0.00    -0.040 C 
ATOM     29  C   UNL     1       1.127  -3.589   6.067  0.00  0.00    -0.001 A 
ATOM     30  C   UNL     1       0.254  -2.412   6.143  0.00  0.00    +0.010 A 
ATOM     31  C   UNL     1       0.094  -1.789   7.333  0.00  0.00    +0.001 A 
ATOM     32  C   UNL     1       0.741  -2.239   8.493  0.00  0.00    +0.002 A 
ATOM     33  C   UNL     1       1.558  -3.313   8.502  0.00  0.00    +0.026 A 
ATOM     34  C   UNL     1       1.798  -4.044   7.306  0.00  0.00    +0.043 A 
ATOM     35  N   UNL     1       2.536  -5.099   7.061  0.00  0.00    -0.380 N 
ATOM     36  C   UNL     1       2.412  -5.437   5.638  0.00  0.00    +0.144 C 
ATOM     37  H   UNL     1       3.072  -5.579   7.712  0.00  0.00    +0.160 HD
ENDBRANCH  27  28
ENDBRANCH   1  27
TORSDOF 9
