REMARK  Name = ZINC02201967
REMARK  7 active torsions:
REMARK  status: ('A' for Active; 'I' for Inactive)
REMARK    1  A    between atoms: C_1  and  C_2
REMARK    2  A    between atoms: C_2  and  C_3
REMARK    3  A    between atoms: C_3  and  C_4
REMARK    4  A    between atoms: C_4  and  N_5
REMARK    5  A    between atoms: C_9  and  C_10
REMARK    6  A    between atoms: C_11  and  O_21
REMARK    7  A    between atoms: O_21  and  C_22
REMARK                            x       y       z     vdW  Elec       q    Type
REMARK                         _______ _______ _______ _____ _____    ______ ____
ROOT
ATOM      1  C   UNL     1      -7.775  -1.951   3.422  0.00  0.00    +0.103 A 
ATOM      2  C   UNL     1      -8.414  -3.102   3.935  0.00  0.00    +0.235 A 
ATOM      3  N   UNL     1      -9.710  -3.275   3.732  0.00  0.00    -0.194 NA
ATOM      4  C   UNL     1     -10.437  -2.387   3.053  0.00  0.00    +0.144 A 
ATOM      5  C   UNL     1     -11.811  -2.624   2.870  0.00  0.00    +0.047 A 
ATOM      6  C   UNL     1     -12.563  -1.722   2.176  0.00  0.00    +0.005 A 
ATOM      7  C   UNL     1     -11.956  -0.571   1.656  0.00  0.00    +0.018 A 
ATOM      8  C   UNL     1     -10.633  -0.359   1.842  0.00  0.00    +0.096 A 
ATOM      9  N   UNL     1      -9.874  -1.255   2.534  0.00  0.00    -0.268 N 
ATOM     10  C   UNL     1      -8.556  -1.011   2.707  0.00  0.00    +0.269 A 
ATOM     11  O   UNL     1      -8.048  -0.001   2.252  0.00  0.00    -0.266 OA
ENDROOT
BRANCH   1  16
ATOM     12  N   UNL     1      -3.407  -3.683   2.760  0.00  0.00    -0.255 N 
ATOM     13  C   UNL     1      -4.066  -2.637   3.229  0.00  0.00    +0.258 C 
ATOM     14  O   UNL     1      -3.473  -1.669   3.670  0.00  0.00    -0.269 OA
ATOM     15  C   UNL     1      -5.490  -2.675   3.205  0.00  0.00    +0.077 C 
ATOM     16  C   UNL     1      -6.391  -1.740   3.623  0.00  0.00    +0.039 C 
ATOM     17  S   UNL     1      -5.776  -4.283   2.477  0.00  0.00    -0.061 S 
ATOM     18  C   UNL     1      -4.066  -4.755   2.267  0.00  0.00    +0.121 C 
ATOM     19  S   UNL     1      -3.424  -6.199   1.609  0.00  0.00    -0.027 S 
BRANCH  12  20
ATOM     20  C   UNL     1      -1.942  -3.676   2.770  0.00  0.00    +0.115 C 
BRANCH  20  21
ATOM     21  C   UNL     1      -1.438  -4.268   4.088  0.00  0.00    +0.019 C 
BRANCH  21  23
ATOM     22  C   UNL     1       0.595  -4.853   5.416  0.00  0.00    +0.004 C 
ATOM     23  C   UNL     1       0.091  -4.261   4.098  0.00  0.00    -0.002 C 
ENDBRANCH  21  23
ENDBRANCH  20  21
ENDBRANCH  12  20
ENDBRANCH   1  16
BRANCH   2  24
ATOM     24  O   UNL     1      -7.705  -4.021   4.628  0.00  0.00    -0.437 OA
BRANCH  24  25
ATOM     25  C   UNL     1      -8.339  -5.160   5.011  0.00  0.00    +0.130 A 
ATOM     26  C   UNL     1      -8.544  -5.423   6.358  0.00  0.00    +0.047 A 
ATOM     27  C   UNL     1      -9.194  -6.579   6.745  0.00  0.00    +0.019 A 
ATOM     28  C   UNL     1      -9.632  -7.479   5.791  0.00  0.00    +0.018 A 
ATOM     29  C   UNL     1      -9.424  -7.223   4.447  0.00  0.00    +0.019 A 
ATOM     30  C   UNL     1      -8.779  -6.065   4.056  0.00  0.00    +0.047 A 
ATOM     31 BR   UNL     1     -10.515  -9.065   6.323  0.00  0.00    -0.050 Br
ENDBRANCH  24  25
ENDBRANCH   2  24
TORSDOF 6
