REMARK  Name = ZINC64202934
REMARK  9 active torsions:
REMARK  status: ('A' for Active; 'I' for Inactive)
REMARK    1  A    between atoms: C_1  and  O_2
REMARK    2  A    between atoms: O_2  and  C_3
REMARK    3  A    between atoms: C_6  and  C_13
REMARK    4  A    between atoms: N_15  and  C_16
REMARK    5  A    between atoms: C_16  and  C_18
REMARK    6  A    between atoms: C_16  and  C_28
REMARK    7  A    between atoms: C_18  and  C_19
REMARK    8  A    between atoms: C_28  and  O_30
REMARK    9  A    between atoms: O_30  and  C_31
REMARK                            x       y       z     vdW  Elec       q    Type
REMARK                         _______ _______ _______ _____ _____    ______ ____
ROOT
ATOM      1  C   UNL     1       0.443  -5.454  -0.007  0.00  0.00    +0.251 C 
ATOM      2  O   UNL     1       1.643  -5.251  -0.017  0.00  0.00    -0.270 OA
ATOM      3  N   UNL     1      -0.027  -6.718  -0.005  0.00  0.00    -0.298 N 
ATOM      4  H   UNL     1      -0.983  -6.879   0.003  0.00  0.00    +0.150 HD
ENDROOT
BRANCH   1   8
ATOM      5  C   UNL     1      -1.195  -0.635   0.010  0.00  0.00    +0.227 A 
ATOM      6  C   UNL     1      -1.259  -2.059   0.009  0.00  0.00    +0.070 A 
ATOM      7  C   UNL     1      -0.212  -2.992   0.000  0.00  0.00    +0.036 A 
ATOM      8  C   UNL     1      -0.492  -4.324   0.001  0.00  0.00    +0.077 A 
ATOM      9  S   UNL     1      -2.276  -4.357   0.015  0.00  0.00    -0.064 S 
ATOM     10  C   UNL     1      -2.566  -2.606   0.018  0.00  0.00    +0.118 A 
ATOM     11  N   UNL     1      -3.635  -1.838   0.027  0.00  0.00    -0.207 NA
ATOM     12  C   UNL     1      -3.510  -0.517   0.027  0.00  0.00    +0.217 A 
ATOM     13  N   UNL     1      -2.315   0.062   0.025  0.00  0.00    -0.179 NA
ATOM     14  N   UNL     1      -4.646   0.271   0.036  0.00  0.00    -0.327 N 
ATOM     15  H   UNL     1      -5.524  -0.143   0.042  0.00  0.00    +0.145 HD
ATOM     16  H   UNL     1      -4.566   1.238   0.036  0.00  0.00    +0.145 HD
BRANCH   5  18
ATOM     17  C   UNL     1      -0.017   1.425   0.010  0.00  0.00    +0.279 C 
ATOM     18  O   UNL     1       0.002  -0.004   0.002  0.00  0.00    -0.479 OA
ENDBRANCH   5  18
ENDBRANCH   1   8
BRANCH   3  19
ATOM     19  C   UNL     1       0.907  -7.846  -0.013  0.00  0.00    +0.186 C 
BRANCH  19  20
ATOM     20  C   UNL     1       1.311  -8.153  -1.432  0.00  0.00    +0.328 C 
ATOM     21  O   UNL     1       0.865  -7.496  -2.343  0.00  0.00    -0.249 OA
BRANCH  20  22
ATOM     22  O   UNL     1       2.167  -9.156  -1.684  0.00  0.00    -0.467 OA
ATOM     23  C   UNL     1       2.506  -9.391  -3.053  0.00  0.00    +0.280 C 
ENDBRANCH  20  22
ENDBRANCH  19  20
BRANCH  19  24
ATOM     24  C   UNL     1       0.230  -9.073   0.601  0.00  0.00    +0.067 C 
BRANCH  24  25
ATOM     25  C   UNL     1      -0.064  -8.810   2.055  0.00  0.00    -0.039 C 
ATOM     26  C   UNL     1      -1.225  -8.360   2.582  0.00  0.00    -0.001 A 
ATOM     27  C   UNL     1      -2.514  -7.995   1.981  0.00  0.00    +0.010 A 
ATOM     28  C   UNL     1      -3.514  -7.567   2.784  0.00  0.00    +0.001 A 
ATOM     29  C   UNL     1      -3.352  -7.464   4.173  0.00  0.00    +0.002 A 
ATOM     30  C   UNL     1      -2.198  -7.782   4.798  0.00  0.00    +0.026 A 
ATOM     31  C   UNL     1      -1.080  -8.243   4.050  0.00  0.00    +0.043 A 
ATOM     32  N   UNL     1       0.125  -8.606   4.417  0.00  0.00    -0.380 N 
ATOM     33  C   UNL     1       0.879  -9.001   3.222  0.00  0.00    +0.144 C 
ATOM     34  H   UNL     1       0.461  -8.616   5.327  0.00  0.00    +0.160 HD
ENDBRANCH  24  25
ENDBRANCH  19  24
ENDBRANCH   3  19
TORSDOF 7
