REMARK  Name = ZINC13568653
REMARK  8 active torsions:
REMARK  status: ('A' for Active; 'I' for Inactive)
REMARK    1  A    between atoms: C_1  and  O_2
REMARK    2  A    between atoms: O_2  and  C_3
REMARK    3  A    between atoms: C_7  and  C_9
REMARK    4  A    between atoms: C_14  and  C_24
REMARK    5  A    between atoms: C_28  and  O_32
REMARK    6  A    between atoms: C_29  and  O_30
REMARK    7  A    between atoms: O_30  and  C_31
REMARK    8  A    between atoms: O_32  and  C_33
REMARK                            x       y       z     vdW  Elec       q    Type
REMARK                         _______ _______ _______ _____ _____    ______ ____
ROOT
ATOM      1  C   UNL     1       2.439   3.937   0.117  0.00  0.00    +0.032 C 
ATOM      2  C   UNL     1       3.235   3.543  -1.126  0.00  0.00    +0.059 C 
ATOM      3  C   UNL     1       4.552   4.300  -1.161  0.00  0.00    +0.017 C 
ATOM      4  C   UNL     1       5.176   4.635  -0.018  0.00  0.00    +0.037 C 
ATOM      5  C   UNL     1       6.482   5.384   0.091  0.00  0.00    +0.140 C 
ATOM      6  N   UNL     1       7.203   5.520  -1.157  0.00  0.00    -0.331 N 
ATOM      7  C   UNL     1       6.677   6.260  -2.214  0.00  0.00    +0.049 A 
ATOM      8  C   UNL     1       7.257   7.449  -2.624  0.00  0.00    +0.025 A 
ATOM      9  C   UNL     1       6.637   8.207  -3.603  0.00  0.00    +0.002 A 
ATOM     10  C   UNL     1       5.449   7.781  -4.169  0.00  0.00    +0.002 A 
ATOM     11  C   UNL     1       4.878   6.582  -3.777  0.00  0.00    +0.025 A 
ATOM     12  C   UNL     1       5.507   5.815  -2.812  0.00  0.00    +0.052 A 
ATOM     13  N   UNL     1       5.014   4.580  -2.405  0.00  0.00    -0.316 N 
ATOM     14  C   UNL     1       4.606   4.293   1.231  0.00  0.00    +0.163 C 
ATOM     15  O   UNL     1       5.204   4.584   2.248  0.00  0.00    -0.292 OA
ATOM     16  C   UNL     1       3.288   3.586   1.344  0.00  0.00    +0.088 C 
ATOM     17  H   UNL     1       8.066   5.089  -1.258  0.00  0.00    +0.147 HD
ATOM     18  H   UNL     1       5.001   3.865  -3.061  0.00  0.00    +0.152 HD
ENDROOT
BRANCH   1  23
ATOM     19  C   UNL     1      -1.254   3.144   0.224  0.00  0.00    +0.120 A 
ATOM     20  C   UNL     1      -1.237   1.757   0.226  0.00  0.00    +0.045 A 
ATOM     21  C   UNL     1      -0.032   1.082   0.201  0.00  0.00    +0.004 A 
ATOM     22  C   UNL     1       1.157   1.788   0.163  0.00  0.00    +0.004 A 
ATOM     23  C   UNL     1       1.142   3.171   0.157  0.00  0.00    -0.040 A 
ATOM     24  C   UNL     1      -0.060   3.850   0.187  0.00  0.00    +0.049 A 
BRANCH  19  26
ATOM     25  C   UNL     1      -3.627   3.018   0.291  0.00  0.00    +0.277 C 
ATOM     26  O   UNL     1      -2.438   3.810   0.254  0.00  0.00    -0.495 OA
ENDBRANCH  19  26
ENDBRANCH   1  23
BRANCH   5  27
ATOM     27  C   UNL     1       6.198   6.763   0.631  0.00  0.00    +0.023 A 
ATOM     28  C   UNL     1       4.926   7.296   0.531  0.00  0.00    +0.009 A 
ATOM     29  C   UNL     1       4.661   8.557   1.030  0.00  0.00    +0.004 A 
ATOM     30  C   UNL     1       5.670   9.296   1.621  0.00  0.00    +0.049 A 
ATOM     31  C   UNL     1       6.947   8.770   1.720  0.00  0.00    +0.162 A 
ATOM     32  C   UNL     1       7.213   7.497   1.222  0.00  0.00    +0.167 A 
BRANCH  32  33
ATOM     33  O   UNL     1       8.465   6.976   1.317  0.00  0.00    -0.491 OA
ATOM     34  C   UNL     1       9.396   7.335   0.293  0.00  0.00    +0.277 C 
ENDBRANCH  32  33
BRANCH  31  35
ATOM     35  O   UNL     1       7.940   9.495   2.301  0.00  0.00    -0.491 OA
ATOM     36  C   UNL     1       7.595  10.793   2.789  0.00  0.00    +0.277 C 
ENDBRANCH  31  35
ENDBRANCH   5  27
TORSDOF 5
