REMARK  Name = ZINC41682305
REMARK  7 active torsions:
REMARK  status: ('A' for Active; 'I' for Inactive)
REMARK    1  A    between atoms: C_1  and  C_2
REMARK    2  A    between atoms: C_6  and  N_9
REMARK    3  A    between atoms: C_7  and  C_8
REMARK    4  A    between atoms: N_13  and  C_21
REMARK    5  A    between atoms: N_16  and  C_18
REMARK    6  A    between atoms: C_18  and  C_19
REMARK    7  A    between atoms: C_21  and  C_22
REMARK                            x       y       z     vdW  Elec       q    Type
REMARK                         _______ _______ _______ _____ _____    ______ ____
ROOT
ATOM      1  N   UNL     1       0.051  -2.797   2.390  0.00  0.00    -0.294 N 
ATOM      2  C   UNL     1      -0.035  -4.189   2.382  0.00  0.00    +0.209 A 
ATOM      3  C   UNL     1      -0.137  -4.939   3.645  0.00  0.00    +0.297 A 
ATOM      4  O   UNL     1      -0.146  -4.353   4.712  0.00  0.00    -0.264 OA
ATOM      5  N   UNL     1      -0.219  -6.285   3.604  0.00  0.00    -0.253 N 
ATOM      6  C   UNL     1      -0.208  -6.926   2.420  0.00  0.00    +0.349 A 
ATOM      7  O   UNL     1      -0.283  -8.139   2.396  0.00  0.00    -0.245 OA
ATOM      8  N   UNL     1      -0.115  -6.247   1.263  0.00  0.00    -0.209 N 
ATOM      9  N   UNL     1      -0.033  -4.849   1.253  0.00  0.00    -0.146 NA
ATOM     10  H   UNL     1       0.135  -2.321   3.231  0.00  0.00    +0.154 HD
ENDROOT
BRANCH   1  16
ATOM     11  C   UNL     1       1.180   1.241  -0.174  0.00  0.00    +0.044 C 
ATOM     12  C   UNL     1       0.557  -0.128  -0.085  0.00  0.00    -0.046 A 
ATOM     13  C   UNL     1      -0.050  -0.685  -1.197  0.00  0.00    +0.004 A 
ATOM     14  C   UNL     1      -0.623  -1.941  -1.120  0.00  0.00    +0.002 A 
ATOM     15  C   UNL     1      -0.591  -2.644   0.069  0.00  0.00    +0.023 A 
ATOM     16  C   UNL     1       0.017  -2.088   1.187  0.00  0.00    +0.036 A 
ATOM     17  C   UNL     1       0.597  -0.828   1.104  0.00  0.00    -0.026 A 
ATOM     18  C   UNL     1       1.264  -0.224   2.313  0.00  0.00    +0.046 C 
ENDBRANCH   1  16
BRANCH   8  19
ATOM     19  C   UNL     1      -0.105  -6.979  -0.005  0.00  0.00    +0.175 C 
BRANCH  19  20
ATOM     20  C   UNL     1      -1.519  -7.143  -0.502  0.00  0.00    -0.011 C 
ATOM     21  C   UNL     1      -1.843  -6.732  -1.703  0.00  0.00    +0.006 C 
ENDBRANCH  19  20
ENDBRANCH   8  19
BRANCH   5  22
ATOM     22  C   UNL     1      -0.321  -7.051   4.849  0.00  0.00    +0.157 C 
BRANCH  22  23
ATOM     23  C   UNL     1      -1.773  -7.225   5.214  0.00  0.00    -0.013 C 
ATOM     24  C   UNL     1      -2.258  -8.425   5.416  0.00  0.00    +0.005 C 
ENDBRANCH  22  23
ENDBRANCH   5  22
TORSDOF 5
