REMARK  Name = ZINC00931087
REMARK  11 active torsions:
REMARK  status: ('A' for Active; 'I' for Inactive)
REMARK    1  A    between atoms: C_1  and  C_2
REMARK    2  A    between atoms: C_5  and  C_7
REMARK    3  A    between atoms: C_7  and  C_9
REMARK    4  A    between atoms: C_7  and  N_18
REMARK    5  A    between atoms: N_11  and  C_12
REMARK    6  A    between atoms: N_18  and  C_19
REMARK    7  A    between atoms: C_21  and  O_27
REMARK    8  A    between atoms: C_23  and  O_25
REMARK    9  A    between atoms: O_25  and  C_26
REMARK   10  A    between atoms: O_27  and  C_28
REMARK   11  A    between atoms: C_29  and  C_31
REMARK                            x       y       z     vdW  Elec       q    Type
REMARK                         _______ _______ _______ _____ _____    ______ ____
ROOT
ATOM      1  N   UNL     1       2.739  -2.899  -0.948  0.00  0.00    -0.249 N 
ATOM      2  C   UNL     1       3.097  -3.840  -1.844  0.00  0.00    +0.265 C 
ATOM      3  O   UNL     1       4.145  -3.736  -2.447  0.00  0.00    -0.271 OA
ENDROOT
BRANCH   2   4
ATOM      4  C   UNL     1       2.197  -5.022  -2.097  0.00  0.00    +0.296 C 
ATOM      5  C   UNL     1       2.295  -6.007  -0.924  0.00  0.00    +0.283 C 
ATOM      6  O   UNL     1       1.440  -7.121  -1.202  0.00  0.00    -0.484 OA
ATOM      7  C   UNL     1       1.519  -7.655  -2.451  0.00  0.00    +0.162 A 
ATOM      8  C   UNL     1       1.012  -8.925  -2.682  0.00  0.00    +0.049 A 
ATOM      9  C   UNL     1       1.081  -9.480  -3.946  0.00  0.00    +0.004 A 
ATOM     10  C   UNL     1       1.657  -8.770  -4.984  0.00  0.00    +0.004 A 
ATOM     11  C   UNL     1       2.165  -7.505  -4.761  0.00  0.00    +0.049 A 
ATOM     12  C   UNL     1       2.100  -6.943  -3.494  0.00  0.00    +0.163 A 
ATOM     13  O   UNL     1       2.612  -5.699  -3.288  0.00  0.00    -0.472 OA
ENDBRANCH   2   4
BRANCH   1  14
ATOM     14  C   UNL     1       3.512  -1.742  -0.802  0.00  0.00    +0.045 A 
ATOM     15  C   UNL     1       3.243  -0.853   0.230  0.00  0.00    +0.069 A 
ATOM     16  C   UNL     1       4.009   0.294   0.374  0.00  0.00    +0.125 A 
ATOM     17  C   UNL     1       5.044   0.553  -0.512  0.00  0.00    +0.091 A 
ATOM     18  C   UNL     1       5.313  -0.335  -1.544  0.00  0.00    +0.125 A 
ATOM     19  C   UNL     1       4.551  -1.485  -1.685  0.00  0.00    +0.069 A 
BRANCH  18  20
ATOM     20  O   UNL     1       6.327  -0.080  -2.412  0.00  0.00    -0.495 OA
ATOM     21  C   UNL     1       7.073   1.121  -2.203  0.00  0.00    +0.277 C 
ENDBRANCH  18  20
BRANCH  16  22
ATOM     22  O   UNL     1       3.746   1.164   1.384  0.00  0.00    -0.495 OA
ATOM     23  C   UNL     1       4.575   2.325   1.473  0.00  0.00    +0.277 C 
ENDBRANCH  16  22
ENDBRANCH   1  14
BRANCH   1  24
ATOM     24  C   UNL     1       1.540  -3.087  -0.128  0.00  0.00    +0.233 C 
BRANCH  24  29
ATOM     25  C   UNL     1      -0.253   1.555  -0.950  0.00  0.00    +0.086 C 
ATOM     26  C   UNL     1      -0.201   0.065  -0.733  0.00  0.00    +0.102 A 
ATOM     27  C   UNL     1      -1.261  -0.764  -0.709  0.00  0.00    +0.045 A 
ATOM     28  C   UNL     1      -0.758  -2.065  -0.479  0.00  0.00    +0.047 A 
ATOM     29  C   UNL     1       0.578  -1.954  -0.376  0.00  0.00    +0.135 A 
ATOM     30  O   UNL     1       0.910  -0.663  -0.536  0.00  0.00    -0.462 OA
ENDBRANCH  24  29
BRANCH  24  31
ATOM     31  C   UNL     1       1.926  -3.109   1.329  0.00  0.00    +0.242 C 
ATOM     32  O   UNL     1       3.089  -2.979   1.650  0.00  0.00    -0.273 OA
ATOM     33  N   UNL     1       0.980  -3.272   2.275  0.00  0.00    -0.311 N 
ATOM     34  H   UNL     1       0.051  -3.376   2.018  0.00  0.00    +0.149 HD
BRANCH  33  35
ATOM     35  C   UNL     1       1.356  -3.293   3.690  0.00  0.00    +0.073 C 
ATOM     36  C   UNL     1       1.785  -4.708   4.083  0.00  0.00    +0.022 C 
ATOM     37  C   UNL     1       2.177  -4.730   5.562  0.00  0.00    +0.002 C 
ATOM     38  C   UNL     1       0.979  -4.305   6.414  0.00  0.00    +0.000 C 
ATOM     39  C   UNL     1       0.550  -2.889   6.021  0.00  0.00    +0.002 C 
ATOM     40  C   UNL     1       0.158  -2.868   4.542  0.00  0.00    +0.022 C 
ENDBRANCH  33  35
ENDBRANCH  24  31
ENDBRANCH   1  24
TORSDOF 8
