REMARK  Name = ZINC63351252
REMARK  8 active torsions:
REMARK  status: ('A' for Active; 'I' for Inactive)
REMARK    1  A    between atoms: C_1  and  O_2
REMARK    2  A    between atoms: O_2  and  C_3
REMARK    3  A    between atoms: C_3  and  C_5
REMARK    4  A    between atoms: C_8  and  C_11
REMARK    5  A    between atoms: N_29  and  C_32
REMARK    6  A    between atoms: C_37  and  C_38
REMARK    7  A    between atoms: C_38  and  O_40
REMARK    8  A    between atoms: O_40  and  C_41
REMARK                            x       y       z     vdW  Elec       q    Type
REMARK                         _______ _______ _______ _____ _____    ______ ____
ROOT
ATOM      1  C   UNL     1       0.851  -6.357   1.260  0.00  0.00    +0.135 C 
ATOM      2  C   UNL     1       2.190  -6.852   0.693  0.00  0.00    +0.131 C 
ATOM      3  C   UNL     1       2.346  -8.304   1.121  0.00  0.00    -0.034 C 
ATOM      4  C   UNL     1       2.507  -9.008   0.004  0.00  0.00    -0.001 A 
ATOM      5  C   UNL     1       2.763 -10.439  -0.222  0.00  0.00    +0.010 A 
ATOM      6  C   UNL     1       2.866 -10.832  -1.519  0.00  0.00    +0.001 A 
ATOM      7  C   UNL     1       2.741  -9.954  -2.601  0.00  0.00    +0.002 A 
ATOM      8  C   UNL     1       2.508  -8.623  -2.485  0.00  0.00    +0.026 A 
ATOM      9  C   UNL     1       2.385  -8.090  -1.169  0.00  0.00    +0.043 A 
ATOM     10  N   UNL     1       2.184  -6.846  -0.772  0.00  0.00    -0.375 N 
ATOM     11  C   UNL     1       2.249  -8.760   2.558  0.00  0.00    +0.065 C 
ATOM     12  C   UNL     1       0.919  -8.210   3.103  0.00  0.00    +0.169 C 
ATOM     13  N   UNL     1       0.786  -6.807   2.657  0.00  0.00    -0.264 N 
ATOM     14  C   UNL     1       0.624  -6.064   3.759  0.00  0.00    +0.317 C 
ATOM     15  O   UNL     1       0.369  -4.877   3.745  0.00  0.00    -0.252 OA
ATOM     16  N   UNL     1       0.777  -6.783   4.880  0.00  0.00    -0.192 N 
ATOM     17  C   UNL     1       0.982  -8.111   4.611  0.00  0.00    +0.248 C 
ATOM     18  O   UNL     1       1.173  -9.015   5.397  0.00  0.00    -0.273 OA
ATOM     19  H   UNL     1       2.051  -6.069  -1.336  0.00  0.00    +0.160 HD
ENDROOT
BRANCH   1  23
ATOM     20  C   UNL     1       0.680  -2.088   1.091  0.00  0.00    +0.059 A 
ATOM     21  C   UNL     1      -0.306  -2.855   0.466  0.00  0.00    +0.015 A 
ATOM     22  C   UNL     1      -0.244  -4.231   0.524  0.00  0.00    +0.006 A 
ATOM     23  C   UNL     1       0.791  -4.853   1.200  0.00  0.00    -0.025 A 
ATOM     24  C   UNL     1       1.770  -4.099   1.823  0.00  0.00    +0.006 A 
ATOM     25  C   UNL     1       1.724  -2.721   1.767  0.00  0.00    +0.015 A 
BRANCH  20  26
ATOM     26  C   UNL     1       0.620  -0.613   1.032  0.00  0.00    +0.339 C 
ATOM     27  O   UNL     1       1.482   0.051   1.573  0.00  0.00    -0.245 OA
BRANCH  26  29
ATOM     28  C   UNL     1      -0.383   1.424   0.363  0.00  0.00    +0.280 C 
ATOM     29  O   UNL     1      -0.389  -0.005   0.380  0.00  0.00    -0.464 OA
ENDBRANCH  26  29
ENDBRANCH  20  26
ENDBRANCH   1  23
BRANCH  16  30
ATOM     30  C   UNL     1       0.726  -6.248   6.168  0.00  0.00    +0.059 A 
ATOM     31  C   UNL     1      -0.481  -6.182   6.849  0.00  0.00    +0.025 A 
ATOM     32  C   UNL     1      -0.530  -5.653   8.123  0.00  0.00    +0.002 A 
ATOM     33  C   UNL     1       0.623  -5.184   8.732  0.00  0.00    +0.001 A 
ATOM     34  C   UNL     1       1.831  -5.241   8.071  0.00  0.00    +0.017 A 
ATOM     35  C   UNL     1       1.896  -5.779   6.783  0.00  0.00    +0.081 A 
BRANCH  35  36
ATOM     36  C   UNL     1       3.186  -5.848   6.073  0.00  0.00    +0.341 C 
ATOM     37  O   UNL     1       3.238  -6.313   4.951  0.00  0.00    -0.245 OA
BRANCH  36  38
ATOM     38  O   UNL     1       4.308  -5.396   6.667  0.00  0.00    -0.464 OA
ATOM     39  C   UNL     1       5.522  -5.495   5.920  0.00  0.00    +0.280 C 
ENDBRANCH  36  38
ENDBRANCH  35  36
ENDBRANCH  16  30
TORSDOF 6
