REMARK  Name = ZINC18043362
REMARK  4 active torsions:
REMARK  status: ('A' for Active; 'I' for Inactive)
REMARK    1  A    between atoms: C_9  and  O_20
REMARK    2  A    between atoms: C_10  and  N_11
REMARK    3  A    between atoms: N_12  and  C_13
REMARK    4  A    between atoms: C_18  and  O_19
REMARK                            x       y       z     vdW  Elec       q    Type
REMARK                         _______ _______ _______ _____ _____    ______ ____
ROOT
ATOM      1  C   UNL     1      -0.128   0.349   0.655  0.00  0.00    +0.001 A 
ATOM      2  C   UNL     1       0.928   1.219   0.917  0.00  0.00    +0.001 A 
ATOM      3  C   UNL     1       2.212   0.870   0.619  0.00  0.00    +0.011 A 
ATOM      4  C   UNL     1       2.474  -0.377   0.041  0.00  0.00    +0.013 A 
ATOM      5  C   UNL     1       1.403  -1.264  -0.226  0.00  0.00    -0.016 A 
ATOM      6  C   UNL     1       0.092  -0.872   0.094  0.00  0.00    +0.008 A 
ATOM      7  C   UNL     1       1.668  -2.518  -0.805  0.00  0.00    +0.012 A 
ATOM      8  C   UNL     1       2.939  -2.889  -1.111  0.00  0.00    +0.048 A 
ATOM      9  C   UNL     1       4.027  -2.052  -0.867  0.00  0.00    +0.144 A 
ATOM     10  C   UNL     1       3.836  -0.792  -0.294  0.00  0.00    +0.135 A 
ENDROOT
BRANCH  10  11
ATOM     11  N   UNL     1       4.891   0.030  -0.054  0.00  0.00    -0.145 NA
ATOM     12  N   UNL     1       5.881  -0.384   0.663  0.00  0.00    -0.145 NA
BRANCH  12  13
ATOM     13  C   UNL     1       5.787  -1.567   1.337  0.00  0.00    +0.127 A 
ATOM     14  C   UNL     1       4.568  -1.964   1.893  0.00  0.00    +0.033 A 
ATOM     15  C   UNL     1       4.481  -3.160   2.573  0.00  0.00    +0.002 A 
ATOM     16  C   UNL     1       5.596  -3.971   2.708  0.00  0.00    +0.004 A 
ATOM     17  C   UNL     1       6.807  -3.590   2.163  0.00  0.00    +0.047 A 
ATOM     18  C   UNL     1       6.913  -2.394   1.471  0.00  0.00    +0.144 A 
BRANCH  18  19
ATOM     19  O   UNL     1       8.101  -2.021   0.931  0.00  0.00    -0.505 OA
ATOM     20  H   UNL     1       8.658  -1.501   1.527  0.00  0.00    +0.292 HD
ENDBRANCH  18  19
ENDBRANCH  12  13
ENDBRANCH  10  11
BRANCH   9  21
ATOM     21  O   UNL     1       5.280  -2.463  -1.189  0.00  0.00    -0.505 OA
ATOM     22  H   UNL     1       5.524  -2.298  -2.110  0.00  0.00    +0.292 HD
ENDBRANCH   9  21
TORSDOF 4
