REMARK  Name = ZINC21341513
REMARK  10 active torsions:
REMARK  status: ('A' for Active; 'I' for Inactive)
REMARK    1  A    between atoms: C_1  and  C_2
REMARK    2  A    between atoms: C_2  and  C_3
REMARK    3  A    between atoms: C_3  and  C_4
REMARK    4  A    between atoms: C_4  and  C_6
REMARK    5  A    between atoms: C_4  and  N_12
REMARK    6  A    between atoms: C_13  and  C_15
REMARK    7  A    between atoms: C_15  and  S_16
REMARK    8  A    between atoms: S_16  and  C_17
REMARK    9  A    between atoms: C_20  and  C_23
REMARK   10  A    between atoms: N_21  and  N_22
REMARK                            x       y       z     vdW  Elec       q    Type
REMARK                         _______ _______ _______ _____ _____    ______ ____
ROOT
ATOM      1  S   UNL     1       2.885  -5.705  -0.184  0.00  0.00    -0.075 S 
ENDROOT
BRANCH   1   2
ATOM      2  C   UNL     1       1.907  -4.243  -0.090  0.00  0.00    +0.209 A 
ATOM      3  N   UNL     1       0.600  -4.186   0.035  0.00  0.00    -0.121 NA
ATOM      4  N   UNL     1       0.213  -2.961   0.079  0.00  0.00    -0.127 NA
ATOM      5  C   UNL     1       1.249  -2.160  -0.026  0.00  0.00    +0.183 A 
ATOM      6  N   UNL     1       2.366  -2.957  -0.134  0.00  0.00    -0.224 N 
BRANCH   5   7
ATOM      7  C   UNL     1       1.221  -0.682  -0.022  0.00  0.00    +0.035 A 
ATOM      8  C   UNL     1       1.939   0.035  -0.981  0.00  0.00    +0.013 A 
ATOM      9  C   UNL     1       1.909   1.413  -0.972  0.00  0.00    +0.001 A 
ATOM     10  C   UNL     1       1.169   2.087  -0.016  0.00  0.00    +0.001 A 
ATOM     11  C   UNL     1       0.456   1.383   0.938  0.00  0.00    +0.016 A 
ATOM     12  C   UNL     1       0.477   0.003   0.940  0.00  0.00    +0.029 A 
ATOM     13 BR   UNL     1      -0.500  -0.958   2.244  0.00  0.00    -0.050 Br
ENDBRANCH   5   7
BRANCH   6  14
ATOM     14  N   UNL     1       3.663  -2.547  -0.257  0.00  0.00    -0.295 N 
ATOM     15  H   UNL     1       3.901  -1.474  -0.279  0.00  0.00    +0.163 HD
ATOM     16  H   UNL     1       4.470  -3.291  -0.334  0.00  0.00    +0.163 HD
ENDBRANCH   6  14
ENDBRANCH   1   2
BRANCH   1  17
ATOM     17  C   UNL     1       1.586  -6.960  -0.061  0.00  0.00    +0.173 C 
BRANCH  17  19
ATOM     18  N   UNL     1       1.426  -9.428  -0.047  0.00  0.00    -0.308 N 
ATOM     19  C   UNL     1       2.207  -8.332  -0.121  0.00  0.00    +0.224 C 
ATOM     20  O   UNL     1       3.408  -8.450  -0.235  0.00  0.00    -0.275 OA
ATOM     21  H   UNL     1       0.336  -9.322   0.058  0.00  0.00    +0.149 HD
BRANCH  18  22
ATOM     22  C   UNL     1       2.029 -10.762  -0.105  0.00  0.00    +0.103 C 
BRANCH  22  23
ATOM     23  C   UNL     1       1.126 -11.752   0.584  0.00  0.00    -0.027 A 
ATOM     24  C   UNL     1      -0.245 -11.665   0.425  0.00  0.00    +0.005 A 
ATOM     25  C   UNL     1      -1.073 -12.575   1.054  0.00  0.00    +0.000 A 
ATOM     26  C   UNL     1      -0.532 -13.568   1.849  0.00  0.00    +0.000 A 
ATOM     27  C   UNL     1       0.838 -13.653   2.012  0.00  0.00    +0.000 A 
ATOM     28  C   UNL     1       1.667 -12.745   1.380  0.00  0.00    +0.005 A 
ENDBRANCH  22  23
BRANCH  22  29
ATOM     29  C   UNL     1       2.216 -11.174  -1.566  0.00  0.00    +0.027 C 
BRANCH  29  31
ATOM     30  C   UNL     1       3.417 -10.654  -3.695  0.00  0.00    +0.004 C 
ATOM     31  C   UNL     1       3.230 -10.242  -2.233  0.00  0.00    -0.001 C 
ENDBRANCH  29  31
ENDBRANCH  22  29
ENDBRANCH  18  22
ENDBRANCH  17  19
ENDBRANCH   1  17
TORSDOF 9
