REMARK  Name = ZINC20842037
REMARK  10 active torsions:
REMARK  status: ('A' for Active; 'I' for Inactive)
REMARK    1  A    between atoms: C_1  and  C_2
REMARK    2  A    between atoms: C_2  and  C_3
REMARK    3  A    between atoms: C_2  and  C_4
REMARK    4  A    between atoms: C_2  and  C_5
REMARK    5  A    between atoms: C_8  and  S_11
REMARK    6  A    between atoms: N_9  and  N_10
REMARK    7  A    between atoms: S_11  and  C_12
REMARK    8  A    between atoms: C_12  and  C_13
REMARK    9  A    between atoms: C_13  and  C_14
REMARK   10  A    between atoms: N_16  and  C_17
REMARK                            x       y       z     vdW  Elec       q    Type
REMARK                         _______ _______ _______ _____ _____    ______ ____
ROOT
ATOM      1  C   UNL     1       0.055   4.004  -0.274  0.00  0.00    +0.086 C 
ENDROOT
BRANCH   1   2
ATOM      2  S   UNL     1      -0.644   2.341  -0.423  0.00  0.00    -0.084 S 
BRANCH   2   6
ATOM      3  C   UNL     1       2.254  -0.270  -0.335  0.00  0.00    +0.156 A 
ATOM      4  N   UNL     1       2.891   0.862  -0.223  0.00  0.00    -0.131 NA
ATOM      5  N   UNL     1       2.057   1.840  -0.234  0.00  0.00    -0.121 NA
ATOM      6  C   UNL     1       0.833   1.381  -0.355  0.00  0.00    +0.208 A 
ATOM      7  N   UNL     1       0.921   0.020  -0.423  0.00  0.00    -0.227 N 
BRANCH   3   9
ATOM      8  C   UNL     1       2.391  -2.395  -1.605  0.00  0.00    +0.019 C 
ATOM      9  C   UNL     1       2.873  -1.643  -0.363  0.00  0.00    +0.024 C 
ATOM     10  C   UNL     1       4.397  -1.515  -0.403  0.00  0.00    +0.019 C 
ATOM     11  C   UNL     1       2.459  -2.414   0.892  0.00  0.00    +0.019 C 
ENDBRANCH   3   9
BRANCH   7  12
ATOM     12  N   UNL     1      -0.110  -0.867  -0.552  0.00  0.00    -0.295 N 
ATOM     13  H   UNL     1      -1.146  -0.502  -0.613  0.00  0.00    +0.163 HD
ATOM     14  H   UNL     1       0.097  -1.947  -0.596  0.00  0.00    +0.163 HD
ENDBRANCH   7  12
ENDBRANCH   2   6
ENDBRANCH   1   2
BRANCH   1  15
ATOM     15  C   UNL     1      -1.074   5.036  -0.309  0.00  0.00    +0.107 C 
BRANCH  15  16
ATOM     16  C   UNL     1      -0.492   6.421  -0.185  0.00  0.00    +0.218 C 
ATOM     17  O   UNL     1       0.707   6.567  -0.078  0.00  0.00    -0.275 OA
ATOM     18  N   UNL     1      -1.304   7.496  -0.192  0.00  0.00    -0.284 N 
ATOM     19  H   UNL     1      -2.383   7.369  -0.367  0.00  0.00    +0.155 HD
BRANCH  18  20
ATOM     20  C   UNL     1      -0.776   8.774   0.023  0.00  0.00    +0.053 A 
ATOM     21  C   UNL     1       0.514   9.073  -0.395  0.00  0.00    +0.044 A 
ATOM     22  C   UNL     1       1.031  10.337  -0.185  0.00  0.00    +0.043 A 
ATOM     23  C   UNL     1       0.269  11.302   0.450  0.00  0.00    +0.021 A 
ATOM     24  C   UNL     1      -1.014  11.006   0.872  0.00  0.00    +0.023 A 
ATOM     25  C   UNL     1      -1.539   9.745   0.660  0.00  0.00    +0.062 A 
ATOM     26 CL   UNL     1      -3.150   9.374   1.191  0.00  0.00    -0.082 Cl
ATOM     27 CL   UNL     1       2.642  10.714  -0.714  0.00  0.00    -0.083 Cl
ENDBRANCH  18  20
ENDBRANCH  15  16
ENDBRANCH   1  15
TORSDOF 7
