REMARK  Name = ZINC13033110
REMARK  11 active torsions:
REMARK  status: ('A' for Active; 'I' for Inactive)
REMARK    1  A    between atoms: C_1  and  C_2
REMARK    2  A    between atoms: C_4  and  C_36
REMARK    3  A    between atoms: C_7  and  C_14
REMARK    4  A    between atoms: C_14  and  N_67
REMARK    5  A    between atoms: C_15  and  C_16
REMARK    6  A    between atoms: C_15  and  N_67
REMARK    7  A    between atoms: N_20  and  C_21
REMARK    8  A    between atoms: C_21  and  C_22
REMARK    9  A    between atoms: C_22  and  C_23
REMARK   10  A    between atoms: C_29  and  C_30
REMARK   11  A    between atoms: C_29  and  N_67
REMARK                            x       y       z     vdW  Elec       q    Type
REMARK                         _______ _______ _______ _____ _____    ______ ____
ROOT
ATOM      1  N   UNL     1       3.837   0.578  -1.691  0.00  0.00    +0.389 N 
ATOM      2  H   UNL     1       3.491   1.258  -2.379  0.00  0.00    -0.081 HD
ENDROOT
BRANCH   1   3
ATOM      3  C   UNL     1       5.236   0.912  -1.348  0.00  0.00    -0.037 C 
BRANCH   3  10
ATOM      4  C   UNL     1       8.341  -4.556   3.559  0.00  0.00    +0.044 C 
ATOM      5  C   UNL     1       7.840  -3.655   2.459  0.00  0.00    -0.048 A 
ATOM      6  C   UNL     1       8.092  -3.983   1.134  0.00  0.00    +0.007 A 
ATOM      7  C   UNL     1       7.647  -3.180   0.122  0.00  0.00    -0.041 A 
ATOM      8  C   UNL     1       6.932  -2.017   0.424  0.00  0.00    +0.002 A 
ATOM      9  C   UNL     1       6.441  -1.133  -0.635  0.00  0.00    +0.017 A 
ATOM     10  C   UNL     1       5.755  -0.018  -0.282  0.00  0.00    +0.001 A 
ATOM     11  C   UNL     1       5.529   0.277   1.079  0.00  0.00    +0.251 A 
ATOM     12  O   UNL     1       4.914   1.286   1.374  0.00  0.00    -0.268 OA
ATOM     13  N   UNL     1       5.971  -0.531   2.059  0.00  0.00    -0.322 N 
ATOM     14  H   UNL     1       5.795  -0.301   2.984  0.00  0.00    +0.169 HD
ATOM     15  C   UNL     1       6.675  -1.680   1.767  0.00  0.00    +0.050 A 
ATOM     16  C   UNL     1       7.139  -2.513   2.780  0.00  0.00    +0.029 A 
ATOM     17  C   UNL     1       7.925  -3.547  -1.312  0.00  0.00    +0.044 C 
ENDBRANCH   3  10
ENDBRANCH   1   3
BRANCH   1  18
ATOM     18  C   UNL     1       2.990   0.645  -0.482  0.00  0.00    +0.001 C 
BRANCH  18  19
ATOM     19  C   UNL     1       1.546   0.520  -0.892  0.00  0.00    +0.135 A 
ATOM     20  N   UNL     1       0.853  -0.589  -0.988  0.00  0.00    -0.115 NA
ATOM     21  N   UNL     1      -0.340  -0.281  -1.366  0.00  0.00    -0.023 NA
ATOM     22  N   UNL     1      -0.426   0.995  -1.513  0.00  0.00    -0.044 NA
ATOM     23  N   UNL     1       0.716   1.524  -1.230  0.00  0.00    -0.231 N 
BRANCH  23  24
ATOM     24  C   UNL     1       1.048   2.951  -1.270  0.00  0.00    +0.152 C 
BRANCH  24  25
ATOM     25  C   UNL     1       0.762   3.579   0.095  0.00  0.00    +0.058 C 
BRANCH  25  26
ATOM     26  C   UNL     1       1.103   5.047   0.054  0.00  0.00    -0.046 A 
ATOM     27  C   UNL     1       2.375   5.470   0.390  0.00  0.00    +0.004 A 
ATOM     28  C   UNL     1       2.690   6.816   0.348  0.00  0.00    +0.000 A 
ATOM     29  C   UNL     1       1.729   7.739  -0.021  0.00  0.00    +0.000 A 
ATOM     30  C   UNL     1       0.456   7.316  -0.353  0.00  0.00    +0.000 A 
ATOM     31  C   UNL     1       0.142   5.970  -0.315  0.00  0.00    +0.004 A 
ENDBRANCH  25  26
ENDBRANCH  24  25
ENDBRANCH  23  24
ENDBRANCH  18  19
ENDBRANCH   1  18
BRANCH   1  32
ATOM     32  C   UNL     1       3.771  -0.776  -2.280  0.00  0.00    -0.046 C 
BRANCH  32  33
ATOM     33  C   UNL     1       4.303  -0.714  -3.713  0.00  0.00    +0.102 C 
ATOM     34  C   UNL     1       4.094  -2.070  -4.423  0.00  0.00    +0.032 C 
ATOM     35  C   UNL     1       5.359  -2.236  -5.295  0.00  0.00    +0.030 C 
ATOM     36  C   UNL     1       6.182  -0.961  -5.009  0.00  0.00    +0.160 C 
ATOM     37  O   UNL     1       5.734  -0.516  -3.710  0.00  0.00    -0.378 OA
ENDBRANCH  32  33
ENDBRANCH   1  32
TORSDOF 9
