REMARK  Name = ZINC61511252
REMARK  6 active torsions:
REMARK  status: ('A' for Active; 'I' for Inactive)
REMARK    1  A    between atoms: C_1  and  C_2
REMARK    2  A    between atoms: C_2  and  C_3
REMARK    3  A    between atoms: C_2  and  N_12
REMARK    4  A    between atoms: C_13  and  C_15
REMARK    5  A    between atoms: C_17  and  S_22
REMARK    6  A    between atoms: S_22  and  N_25
REMARK                            x       y       z     vdW  Elec       q    Type
REMARK                         _______ _______ _______ _____ _____    ______ ____
ROOT
ATOM      1  N   UNL     1       0.711  -0.489   1.189  0.00  0.00    -0.302 N 
ATOM      2  C   UNL     1       2.054  -0.600   1.174  0.00  0.00    +0.246 C 
ATOM      3  O   UNL     1       2.677  -0.297   0.175  0.00  0.00    -0.270 OA
ATOM      4  H   UNL     1       0.213  -0.731   1.986  0.00  0.00    +0.150 HD
ENDROOT
BRANCH   2   5
ATOM      5  C   UNL     1       2.768  -1.089   2.371  0.00  0.00    +0.057 A 
ATOM      6  C   UNL     1       2.055  -1.444   3.518  0.00  0.00    +0.043 A 
ATOM      7  C   UNL     1       2.728  -1.900   4.631  0.00  0.00    +0.106 A 
ATOM      8  C   UNL     1       4.108  -2.007   4.615  0.00  0.00    +0.030 A 
ATOM      9  C   UNL     1       4.822  -1.658   3.484  0.00  0.00    +0.022 A 
ATOM     10  C   UNL     1       4.161  -1.205   2.359  0.00  0.00    +0.053 A 
ATOM     11 CL   UNL     1       5.057  -0.774   0.936  0.00  0.00    -0.083 Cl
BRANCH   7  12
ATOM     12  S   UNL     1       1.829  -2.348   6.079  0.00  0.00    +0.056 S 
ATOM     13  O   UNL     1       2.731  -2.228   7.170  0.00  0.00    -0.153 OA
ATOM     14  O   UNL     1       0.597  -1.641   6.027  0.00  0.00    -0.153 OA
BRANCH  12  15
ATOM     15  N   UNL     1       1.457  -3.956   5.947  0.00  0.00    -0.204 NA
ATOM     16  H   UNL     1       1.739  -4.456   5.165  0.00  0.00    +0.144 HD
ATOM     17  H   UNL     1       0.958  -4.398   6.651  0.00  0.00    +0.144 HD
ENDBRANCH  12  15
ENDBRANCH   7  12
ENDBRANCH   2   5
BRANCH   1  19
ATOM     18  C   UNL     1      -0.019   1.526   0.010  0.00  0.00    +0.036 C 
ATOM     19  C   UNL     1       0.002  -0.004   0.002  0.00  0.00    +0.136 C 
BRANCH  19  20
ATOM     20  C   UNL     1      -1.412  -0.526   0.013  0.00  0.00    +0.126 A 
ATOM     21  C   UNL     1      -2.074  -0.969  -1.064  0.00  0.00    +0.055 A 
ATOM     22  C   UNL     1      -3.402  -1.375  -0.590  0.00  0.00    +0.020 A 
ATOM     23  C   UNL     1      -4.536  -1.907  -1.202  0.00  0.00    +0.011 A 
ATOM     24  C   UNL     1      -5.646  -2.180  -0.453  0.00  0.00    +0.001 A 
ATOM     25  C   UNL     1      -5.651  -1.931   0.912  0.00  0.00    +0.004 A 
ATOM     26  C   UNL     1      -4.540  -1.404   1.535  0.00  0.00    +0.047 A 
ATOM     27  C   UNL     1      -3.401  -1.120   0.792  0.00  0.00    +0.135 A 
ATOM     28  O   UNL     1      -2.189  -0.619   1.105  0.00  0.00    -0.458 OA
ENDBRANCH  19  20
ENDBRANCH   1  19
TORSDOF 5
