REMARK  Name = ZINC09598802
REMARK  11 active torsions:
REMARK  status: ('A' for Active; 'I' for Inactive)
REMARK    1  A    between atoms: C_1  and  C_2
REMARK    2  A    between atoms: C_2  and  O_3
REMARK    3  A    between atoms: O_3  and  C_4
REMARK    4  A    between atoms: C_7  and  N_10
REMARK    5  A    between atoms: C_11  and  C_13
REMARK    6  A    between atoms: C_13  and  N_14
REMARK    7  A    between atoms: N_22  and  C_25
REMARK    8  A    between atoms: C_25  and  C_26
REMARK    9  A    between atoms: N_28  and  C_29
REMARK   10  A    between atoms: C_29  and  C_30
REMARK   11  A    between atoms: C_33  and  C_36
REMARK                            x       y       z     vdW  Elec       q    Type
REMARK                         _______ _______ _______ _____ _____    ______ ____
ROOT
ATOM      1  N   UNL     1       0.052  -7.982  -3.084  0.00  0.00    -0.284 N 
ATOM      2  C   UNL     1       1.236  -8.737  -3.108  0.00  0.00    +0.066 A 
ATOM      3  C   UNL     1       1.398 -10.119  -3.125  0.00  0.00    +0.034 A 
ATOM      4  C   UNL     1       2.641 -10.653  -3.148  0.00  0.00    +0.048 A 
ATOM      5  S   UNL     1       3.677  -9.263  -3.147  0.00  0.00    -0.090 S 
ATOM      6  C   UNL     1       2.428  -8.006  -3.116  0.00  0.00    +0.100 A 
ATOM      7  C   UNL     1       2.428  -6.607  -3.106  0.00  0.00    +0.271 A 
ATOM      8  O   UNL     1       3.477  -5.989  -3.118  0.00  0.00    -0.266 OA
ATOM      9  N   UNL     1       1.246  -5.951  -3.078  0.00  0.00    -0.251 N 
ATOM     10  C   UNL     1       0.092  -6.641  -3.070  0.00  0.00    +0.333 A 
ATOM     11  O   UNL     1      -0.956  -6.026  -3.049  0.00  0.00    -0.246 OA
ENDROOT
BRANCH   1  12
ATOM     12  C   UNL     1      -1.243  -8.667  -3.074  0.00  0.00    +0.222 C 
BRANCH  12  14
ATOM     13  N   UNL     1      -2.881  -9.503  -4.727  0.00  0.00    -0.284 N 
ATOM     14  C   UNL     1      -1.707  -8.886  -4.491  0.00  0.00    +0.237 C 
ATOM     15  O   UNL     1      -1.023  -8.507  -5.418  0.00  0.00    -0.274 OA
ATOM     16  H   UNL     1      -3.396  -9.865  -3.990  0.00  0.00    +0.155 HD
BRANCH  13  20
ATOM     17  C   UNL     1      -4.303  -9.854  -8.632  0.00  0.00    +0.121 A 
ATOM     18  C   UNL     1      -2.940  -9.927  -8.381  0.00  0.00    +0.047 A 
ATOM     19  C   UNL     1      -2.469  -9.810  -7.088  0.00  0.00    +0.027 A 
ATOM     20  C   UNL     1      -3.359  -9.621  -6.039  0.00  0.00    +0.034 A 
ATOM     21  C   UNL     1      -4.723  -9.553  -6.291  0.00  0.00    +0.027 A 
ATOM     22  C   UNL     1      -5.192  -9.664  -7.585  0.00  0.00    +0.047 A 
BRANCH  17  23
ATOM     23  O   UNL     1      -4.766  -9.968  -9.905  0.00  0.00    -0.492 OA
BRANCH  23  25
ATOM     24  C   UNL     1      -6.509 -10.034 -11.577  0.00  0.00    +0.048 C 
ATOM     25  C   UNL     1      -6.180  -9.884 -10.091  0.00  0.00    +0.225 C 
ENDBRANCH  23  25
ENDBRANCH  17  23
ENDBRANCH  13  20
ENDBRANCH  12  14
ENDBRANCH   1  12
BRANCH   9  26
ATOM     26  C   UNL     1       1.222  -4.487  -3.061  0.00  0.00    +0.225 C 
BRANCH  26  27
ATOM     27  C   UNL     1       1.233  -4.000  -1.635  0.00  0.00    +0.233 C 
ATOM     28  O   UNL     1       1.257  -4.798  -0.722  0.00  0.00    -0.274 OA
ATOM     29  N   UNL     1       1.214  -2.678  -1.374  0.00  0.00    -0.310 N 
ATOM     30  H   UNL     1       1.195  -2.039  -2.104  0.00  0.00    +0.149 HD
BRANCH  29  31
ATOM     31  C   UNL     1       1.225  -2.205   0.013  0.00  0.00    +0.139 C 
BRANCH  31  32
ATOM     32  C   UNL     1       1.200  -0.698   0.029  0.00  0.00    -0.030 A 
ATOM     33  C   UNL     1      -0.008  -0.026   0.053  0.00  0.00    +0.005 A 
ATOM     34  C   UNL     1      -0.030   1.356   0.069  0.00  0.00    +0.003 A 
ATOM     35  C   UNL     1       1.156   2.066   0.062  0.00  0.00    -0.050 A 
ATOM     36  C   UNL     1       2.364   1.395   0.037  0.00  0.00    +0.003 A 
ATOM     37  C   UNL     1       2.386   0.013   0.022  0.00  0.00    +0.005 A 
ATOM     38  C   UNL     1       1.131   3.573   0.080  0.00  0.00    +0.044 C 
ENDBRANCH  31  32
ENDBRANCH  29  31
ENDBRANCH  26  27
ENDBRANCH   9  26
TORSDOF 9
