REMARK  Name = ZINC39770047
REMARK  7 active torsions:
REMARK  status: ('A' for Active; 'I' for Inactive)
REMARK    1  A    between atoms: C_1  and  O_2
REMARK    2  A    between atoms: O_2  and  C_3
REMARK    3  A    between atoms: C_6  and  C_9
REMARK    4  A    between atoms: C_11  and  C_15
REMARK    5  A    between atoms: N_17  and  N_18
REMARK    6  A    between atoms: C_19  and  C_20
REMARK    7  A    between atoms: C_29  and  O_30
REMARK                            x       y       z     vdW  Elec       q    Type
REMARK                         _______ _______ _______ _____ _____    ______ ____
ROOT
ATOM      1  C   UNL     1      -7.302  -4.906  -1.105  0.00  0.00    +0.263 C 
ATOM      2  O   UNL     1      -7.796  -4.298  -2.031  0.00  0.00    -0.271 OA
ATOM      3  N   UNL     1      -7.107  -6.237  -1.200  0.00  0.00    -0.205 N 
ATOM      4  H   UNL     1      -6.712  -6.723  -0.460  0.00  0.00    +0.177 HD
ENDROOT
BRANCH   1   7
ATOM      5  C   UNL     1      -5.330  -2.557   0.195  0.00  0.00    +0.092 C 
ATOM      6  C   UNL     1      -5.412  -3.901   0.165  0.00  0.00    +0.041 C 
ATOM      7  C   UNL     1      -6.906  -4.175   0.151  0.00  0.00    +0.240 C 
ATOM      8  N   UNL     1      -7.494  -2.825   0.178  0.00  0.00    -0.170 NA
ATOM      9  N   UNL     1      -6.573  -2.006   0.206  0.00  0.00    -0.153 NA
BRANCH   5  13
ATOM     10  C   UNL     1      -1.696  -0.348   0.264  0.00  0.00    +0.120 A 
ATOM     11  C   UNL     1      -2.913   0.320   0.278  0.00  0.00    +0.046 A 
ATOM     12  C   UNL     1      -4.093  -0.394   0.255  0.00  0.00    +0.013 A 
ATOM     13  C   UNL     1      -4.063  -1.787   0.219  0.00  0.00    +0.002 A 
ATOM     14  C   UNL     1      -2.839  -2.454   0.205  0.00  0.00    +0.013 A 
ATOM     15  C   UNL     1      -1.663  -1.735   0.222  0.00  0.00    +0.046 A 
BRANCH  10  17
ATOM     16  C   UNL     1      -0.642   1.782   0.329  0.00  0.00    +0.277 C 
ATOM     17  O   UNL     1      -0.535   0.358   0.286  0.00  0.00    -0.495 OA
ENDBRANCH  10  17
ENDBRANCH   5  13
ENDBRANCH   1   7
BRANCH   3  18
ATOM     18  N   UNL     1      -7.475  -6.917  -2.368  0.00  0.00    -0.188 NA
ATOM     19  C   UNL     1      -7.204  -8.182  -2.496  0.00  0.00    +0.142 C 
BRANCH  19  20
ATOM     20  C   UNL     1      -6.638  -8.930  -1.365  0.00  0.00    +0.044 A 
ATOM     21  C   UNL     1      -5.375  -9.652  -1.504  0.00  0.00    -0.006 A 
ATOM     22  C   UNL     1      -4.664  -9.655  -2.710  0.00  0.00    +0.009 A 
ATOM     23  C   UNL     1      -3.488 -10.340  -2.797  0.00  0.00    +0.001 A 
ATOM     24  C   UNL     1      -2.984 -11.038  -1.703  0.00  0.00    +0.001 A 
ATOM     25  C   UNL     1      -3.650 -11.056  -0.515  0.00  0.00    +0.008 A 
ATOM     26  C   UNL     1      -4.865 -10.361  -0.389  0.00  0.00    -0.017 A 
ATOM     27  C   UNL     1      -5.580 -10.355   0.822  0.00  0.00    +0.012 A 
ATOM     28  C   UNL     1      -6.753  -9.679   0.934  0.00  0.00    +0.046 A 
ATOM     29  C   UNL     1      -7.293  -8.963  -0.134  0.00  0.00    +0.126 A 
BRANCH  29  30
ATOM     30  O   UNL     1      -8.466  -8.297   0.024  0.00  0.00    -0.506 OA
ATOM     31  H   UNL     1      -9.244  -8.798  -0.257  0.00  0.00    +0.292 HD
ENDBRANCH  29  30
ENDBRANCH  19  20
ENDBRANCH   3  18
TORSDOF 6
