REMARK  Name = ZINC28392053
REMARK  7 active torsions:
REMARK  status: ('A' for Active; 'I' for Inactive)
REMARK    1  A    between atoms: C_1  and  C_2
REMARK    2  A    between atoms: C_2  and  C_3
REMARK    3  A    between atoms: C_3  and  C_5
REMARK    4  A    between atoms: C_3  and  N_21
REMARK    5  A    between atoms: C_5  and  N_6
REMARK    6  A    between atoms: N_9  and  C_10
REMARK    7  A    between atoms: C_10  and  C_11
REMARK                            x       y       z     vdW  Elec       q    Type
REMARK                         _______ _______ _______ _____ _____    ______ ____
ROOT
ATOM      1  N   UNL     1       1.234  -2.588  -2.479  0.00  0.00    -0.301 N 
ATOM      2  C   UNL     1       1.279  -3.921  -2.674  0.00  0.00    +0.300 C 
ATOM      3  O   UNL     1       0.835  -4.674  -1.829  0.00  0.00    -0.253 OA
ATOM      4  N   UNL     1       1.816  -4.419  -3.805  0.00  0.00    -0.295 N 
ATOM      5  H   UNL     1       1.589  -1.987  -3.153  0.00  0.00    +0.150 HD
ATOM      6  H   UNL     1       2.170  -3.818  -4.479  0.00  0.00    +0.151 HD
ENDROOT
BRANCH   1   7
ATOM      7  C   UNL     1       0.650  -2.046  -1.250  0.00  0.00    +0.090 C 
BRANCH   7   8
ATOM      8  C   UNL     1       0.587  -0.521  -1.344  0.00  0.00    -0.051 C 
BRANCH   8   9
ATOM      9  N   UNL     1      -0.494  -0.131  -2.259  0.00  0.00    +0.385 N 
ATOM     10  C   UNL     1      -1.747  -0.782  -1.845  0.00  0.00    -0.073 C 
ATOM     11  C   UNL     1      -2.906  -0.135  -2.605  0.00  0.00    +0.017 C 
ATOM     12  C   UNL     1      -2.600  -0.115  -4.081  0.00  0.00    -0.048 A 
ATOM     13  C   UNL     1      -3.639   0.104  -4.973  0.00  0.00    +0.004 A 
ATOM     14  C   UNL     1      -3.396   0.133  -6.331  0.00  0.00    +0.000 A 
ATOM     15  C   UNL     1      -2.111  -0.057  -6.804  0.00  0.00    +0.000 A 
ATOM     16  C   UNL     1      -1.076  -0.277  -5.917  0.00  0.00    +0.002 A 
ATOM     17  C   UNL     1      -1.319  -0.308  -4.552  0.00  0.00    -0.061 A 
ATOM     18  C   UNL     1      -0.162  -0.558  -3.621  0.00  0.00    -0.042 C 
ATOM     19  H   UNL     1      -0.610   0.871  -2.238  0.00  0.00    -0.081 HD
ENDBRANCH   8   9
BRANCH   8  21
ATOM     20  C   UNL     1       0.330   1.593  -0.037  0.00  0.00    +0.002 C 
ATOM     21  C   UNL     1       0.317   0.065   0.043  0.00  0.00    -0.017 C 
ENDBRANCH   8  21
ENDBRANCH   7   8
ENDBRANCH   1   7
BRANCH   4  22
ATOM     22  C   UNL     1       1.864  -5.868  -4.017  0.00  0.00    +0.141 C 
BRANCH  22  23
ATOM     23  C   UNL     1       2.507  -6.160  -5.348  0.00  0.00    -0.027 A 
ATOM     24  C   UNL     1       1.728  -6.246  -6.487  0.00  0.00    +0.009 A 
ATOM     25  C   UNL     1       2.314  -6.515  -7.709  0.00  0.00    +0.050 A 
ATOM     26  C   UNL     1       3.686  -6.698  -7.797  0.00  0.00    +0.162 A 
ATOM     27  C   UNL     1       4.470  -6.609  -6.653  0.00  0.00    +0.162 A 
ATOM     28  C   UNL     1       3.876  -6.334  -5.430  0.00  0.00    +0.054 A 
ATOM     29  O   UNL     1       5.819  -6.777  -6.717  0.00  0.00    -0.485 OA
ATOM     30  C   UNL     1       6.333  -7.412  -7.894  0.00  0.00    +0.270 C 
ATOM     31  C   UNL     1       5.663  -6.771  -9.117  0.00  0.00    +0.270 C 
ATOM     32  O   UNL     1       4.249  -6.966  -9.007  0.00  0.00    -0.485 OA
ENDBRANCH  22  23
ENDBRANCH   4  22
TORSDOF 6
