REMARK  Name = ZINC39673877
REMARK  9 active torsions:
REMARK  status: ('A' for Active; 'I' for Inactive)
REMARK    1  A    between atoms: C_1  and  C_2
REMARK    2  A    between atoms: C_2  and  C_3
REMARK    3  A    between atoms: C_3  and  C_4
REMARK    4  A    between atoms: C_4  and  C_6
REMARK    5  A    between atoms: C_4  and  N_7
REMARK    6  A    between atoms: C_8  and  C_10
REMARK    7  A    between atoms: C_21  and  C_23
REMARK    8  A    between atoms: C_30  and  C_34
REMARK    9  A    between atoms: N_32  and  C_33
REMARK                            x       y       z     vdW  Elec       q    Type
REMARK                         _______ _______ _______ _____ _____    ______ ____
ROOT
ATOM      1  C   UNL     1       0.390  -4.260   2.565  0.00  0.00    +0.100 C 
ATOM      2  C   UNL     1      -0.659  -4.299   3.699  0.00  0.00    +0.121 C 
ATOM      3  N   UNL     1      -1.171  -5.689   3.688  0.00  0.00    -0.296 N 
ATOM      4  C   UNL     1       0.028  -6.522   3.430  0.00  0.00    +0.115 C 
ATOM      5  C   UNL     1       0.841  -5.721   2.394  0.00  0.00    -0.004 C 
ATOM      6  C   UNL     1       0.524  -6.210   0.984  0.00  0.00    -0.010 C 
ATOM      7  C   UNL     1       1.032  -7.645   0.821  0.00  0.00    -0.082 C 
ATOM      8  N   UNL     1       2.480  -7.683   1.060  0.00  0.00    +0.379 N 
ATOM      9  C   UNL     1       2.769  -7.300   2.447  0.00  0.00    -0.082 C 
ATOM     10  C   UNL     1       2.334  -5.851   2.679  0.00  0.00    -0.010 C 
ATOM     11  C   UNL     1      -2.441  -6.103   3.871  0.00  0.00    +0.250 C 
ATOM     12  O   UNL     1      -3.337  -5.288   3.977  0.00  0.00    -0.270 OA
ATOM     13  H   UNL     1       2.822  -8.618   0.892  0.00  0.00    -0.086 HD
ATOM     14  H   UNL     1       2.940  -7.042   0.432  0.00  0.00    -0.086 HD
ENDROOT
BRANCH  11  15
ATOM     15  C   UNL     1      -2.744  -7.546   3.942  0.00  0.00    +0.074 A 
ATOM     16  C   UNL     1      -1.836  -8.433   4.538  0.00  0.00    +0.127 A 
ATOM     17  N   UNL     1      -2.086  -9.719   4.612  0.00  0.00    -0.235 NA
ATOM     18  C   UNL     1      -3.208 -10.245   4.129  0.00  0.00    +0.160 A 
ATOM     19  C   UNL     1      -4.172  -9.421   3.515  0.00  0.00    +0.060 A 
ATOM     20  C   UNL     1      -3.941  -8.044   3.423  0.00  0.00    +0.067 A 
ATOM     21 CL   UNL     1      -5.103  -6.989   2.682  0.00  0.00    -0.082 Cl
ATOM     22  C   UNL     1      -5.263 -10.297   3.102  0.00  0.00    +0.071 A 
ATOM     23  N   UNL     1      -4.946 -11.511   3.450  0.00  0.00    -0.174 NA
ATOM     24  N   UNL     1      -3.698 -11.520   4.080  0.00  0.00    -0.249 N 
ATOM     25  C   UNL     1      -3.021 -12.709   4.604  0.00  0.00    +0.174 C 
ATOM     26  C   UNL     1      -6.528  -9.874   2.400  0.00  0.00    +0.068 C 
ENDBRANCH  11  15
BRANCH   1  28
ATOM     27  N   UNL     1       0.515  -3.070   0.401  0.00  0.00    -0.312 N 
ATOM     28  C   UNL     1      -0.233  -3.751   1.291  0.00  0.00    +0.218 C 
ATOM     29  O   UNL     1      -1.407  -3.954   1.067  0.00  0.00    -0.275 OA
ATOM     30  H   UNL     1       1.454  -2.907   0.580  0.00  0.00    +0.149 HD
BRANCH  27  31
ATOM     31  C   UNL     1      -0.091  -2.574  -0.838  0.00  0.00    +0.070 C 
ATOM     32  C   UNL     1      -0.751  -1.219  -0.576  0.00  0.00    +0.028 C 
BRANCH  31  33
ATOM     33  C   UNL     1       0.992  -2.416  -1.907  0.00  0.00    +0.022 C 
BRANCH  33  35
ATOM     34  C   UNL     1       2.648  -3.632  -3.328  0.00  0.00    +0.004 C 
ATOM     35  C   UNL     1       1.566  -3.790  -2.259  0.00  0.00    -0.002 C 
ENDBRANCH  33  35
ENDBRANCH  31  33
ENDBRANCH  27  31
ENDBRANCH   1  28
TORSDOF 5
