REMARK  Name = ZINC13145111
REMARK  6 active torsions:
REMARK  status: ('A' for Active; 'I' for Inactive)
REMARK    1  A    between atoms: C_2  and  C_3
REMARK    2  A    between atoms: C_3  and  N_4
REMARK    3  A    between atoms: C_8  and  S_25
REMARK    4  A    between atoms: N_13  and  C_14
REMARK    5  A    between atoms: C_14  and  C_16
REMARK    6  A    between atoms: S_25  and  N_28
REMARK                            x       y       z     vdW  Elec       q    Type
REMARK                         _______ _______ _______ _____ _____    ______ ____
ROOT
ATOM      1  N   UNL     1       7.543   0.156  -0.064  0.00  0.00    -0.317 N 
ATOM      2  C   UNL     1       8.916   0.321  -0.076  0.00  0.00    +0.058 A 
ATOM      3  C   UNL     1       9.900  -0.683  -0.090  0.00  0.00    +0.029 A 
ATOM      4  C   UNL     1      11.236  -0.362  -0.101  0.00  0.00    +0.030 A 
ATOM      5  C   UNL     1      11.658   0.957  -0.099  0.00  0.00    +0.106 A 
ATOM      6  C   UNL     1      10.713   1.967  -0.085  0.00  0.00    +0.045 A 
ATOM      7  C   UNL     1       9.376   1.647  -0.074  0.00  0.00    +0.041 A 
ATOM      8  S   UNL     1       7.878   2.601  -0.064  0.00  0.00    -0.052 S 
ATOM      9  C   UNL     1       6.720   1.242  -0.052  0.00  0.00    +0.167 A 
ATOM     10  N   UNL     1       5.393   1.280  -0.040  0.00  0.00    -0.149 NA
ENDROOT
BRANCH   5  11
ATOM     11  S   UNL     1      13.377   1.343  -0.112  0.00  0.00    +0.056 S 
ATOM     12  O   UNL     1      13.505   2.644   0.444  0.00  0.00    -0.153 OA
ATOM     13  O   UNL     1      14.052   0.214   0.427  0.00  0.00    -0.153 OA
BRANCH  11  14
ATOM     14  N   UNL     1      13.841   1.458  -1.698  0.00  0.00    -0.204 NA
ATOM     15  H   UNL     1      13.191   1.316  -2.404  0.00  0.00    +0.144 HD
ATOM     16  H   UNL     1      14.762   1.666  -1.920  0.00  0.00    +0.144 HD
ENDBRANCH  11  14
ENDBRANCH   5  11
BRANCH  10  17
ATOM     17  C   UNL     1       4.757   2.459  -0.029  0.00  0.00    +0.305 C 
ATOM     18  O   UNL     1       5.396   3.497  -0.029  0.00  0.00    -0.265 OA
BRANCH  17  19
ATOM     19  C   UNL     1       3.284   2.501  -0.015  0.00  0.00    +0.193 A 
ATOM     20  C   UNL     1       2.535   3.632  -0.003  0.00  0.00    +0.063 A 
ATOM     21  C   UNL     1       1.139   3.195   0.008  0.00  0.00    +0.021 A 
ATOM     22  C   UNL     1      -0.089   3.860   0.023  0.00  0.00    +0.011 A 
ATOM     23  C   UNL     1      -1.249   3.138   0.030  0.00  0.00    +0.001 A 
ATOM     24  C   UNL     1      -1.214   1.750   0.017  0.00  0.00    +0.004 A 
ATOM     25  C   UNL     1      -0.013   1.076   0.008  0.00  0.00    +0.047 A 
ATOM     26  C   UNL     1       1.181   1.789   0.000  0.00  0.00    +0.136 A 
ATOM     27  O   UNL     1       2.477   1.420  -0.013  0.00  0.00    -0.450 OA
ENDBRANCH  17  19
ENDBRANCH  10  17
BRANCH   1  28
ATOM     28  C   UNL     1       6.971  -1.192  -0.065  0.00  0.00    +0.151 C 
BRANCH  28  30
ATOM     29  C   UNL     1       4.571  -1.624   0.061  0.00  0.00    +0.005 C 
ATOM     30  C   UNL     1       5.649  -1.177   0.657  0.00  0.00    -0.013 C 
ENDBRANCH  28  30
ENDBRANCH   1  28
TORSDOF 6
