REMARK  Name = ZINC59773149
REMARK  6 active torsions:
REMARK  status: ('A' for Active; 'I' for Inactive)
REMARK    1  A    between atoms: C_1  and  C_2
REMARK    2  A    between atoms: C_5  and  C_8
REMARK    3  A    between atoms: C_8  and  C_9
REMARK    4  A    between atoms: C_10  and  C_27
REMARK    5  A    between atoms: C_15  and  C_17
REMARK    6  A    between atoms: C_20  and  N_24
REMARK                            x       y       z     vdW  Elec       q    Type
REMARK                         _______ _______ _______ _____ _____    ______ ____
ROOT
ATOM      1  C   UNL     1       1.487  -4.759  -0.032  0.00  0.00    +0.018 A 
ATOM      2  C   UNL     1       2.309  -5.048   1.006  0.00  0.00    +0.051 A 
ATOM      3  N   UNL     1       3.528  -5.459   0.709  0.00  0.00    -0.230 NA
ATOM      4  C   UNL     1       3.919  -5.581  -0.541  0.00  0.00    +0.165 A 
ATOM      5  S   UNL     1       2.557  -5.118  -1.415  0.00  0.00    -0.056 S 
ATOM      6  N   UNL     1       5.154  -5.996  -1.023  0.00  0.00    -0.261 N 
ATOM      7  C   UNL     1       6.133  -6.336  -0.162  0.00  0.00    +0.251 C 
ATOM      8  O   UNL     1       5.936  -6.280   1.036  0.00  0.00    -0.270 OA
ATOM      9  C   UNL     1       1.853  -4.905   2.435  0.00  0.00    +0.066 C 
ATOM     10  H   UNL     1       5.311  -6.041  -1.979  0.00  0.00    +0.157 HD
ENDROOT
BRANCH   7  11
ATOM     11  C   UNL     1       7.447  -6.777  -0.675  0.00  0.00    +0.055 A 
ATOM     12  C   UNL     1       7.679  -6.837  -2.050  0.00  0.00    +0.017 A 
ATOM     13  C   UNL     1       8.907  -7.250  -2.522  0.00  0.00    +0.033 A 
ATOM     14  C   UNL     1       9.910  -7.605  -1.636  0.00  0.00    +0.128 A 
ATOM     15  C   UNL     1       9.688  -7.549  -0.272  0.00  0.00    +0.053 A 
ATOM     16  C   UNL     1       8.465  -7.131   0.215  0.00  0.00    +0.055 A 
ATOM     17 CL   UNL     1       8.190  -7.053   1.927  0.00  0.00    -0.083 Cl
BRANCH  14  18
ATOM     18  N   UNL     1      11.225  -8.047  -2.151  0.00  0.00    +0.056 N 
ATOM     19  O   UNL     1      11.422  -8.098  -3.343  0.00  0.00    -0.126 OA
ATOM     20  O   UNL     1      12.103  -8.358  -1.379  0.00  0.00    -0.126 OA
ENDBRANCH  14  18
ENDBRANCH   7  11
BRANCH   1  21
ATOM     21  C   UNL     1       0.059  -4.275  -0.021  0.00  0.00    +0.079 C 
BRANCH  21  26
ATOM     22  C   UNL     1      -0.018   1.503   0.010  0.00  0.00    +0.044 C 
ATOM     23  C   UNL     1       0.002  -0.004   0.002  0.00  0.00    -0.050 A 
ATOM     24  C   UNL     1       0.006  -0.689  -1.199  0.00  0.00    +0.003 A 
ATOM     25  C   UNL     1       0.025  -2.071  -1.206  0.00  0.00    +0.004 A 
ATOM     26  C   UNL     1       0.040  -2.768  -0.013  0.00  0.00    -0.042 A 
ATOM     27  C   UNL     1       0.037  -2.084   1.188  0.00  0.00    +0.004 A 
ATOM     28  C   UNL     1       0.023  -0.702   1.195  0.00  0.00    +0.003 A 
ENDBRANCH  21  26
ENDBRANCH   1  21
TORSDOF 4
