REMARK  Name = ZINC04920737
REMARK  5 active torsions:
REMARK  status: ('A' for Active; 'I' for Inactive)
REMARK    1  A    between atoms: C_1  and  C_2
REMARK    2  A    between atoms: C_5  and  N_9
REMARK    3  A    between atoms: C_6  and  C_8
REMARK    4  A    between atoms: C_16  and  C_19
REMARK    5  A    between atoms: C_21  and  C_24
REMARK                            x       y       z     vdW  Elec       q    Type
REMARK                         _______ _______ _______ _____ _____    ______ ____
ROOT
ATOM      1  N   UNL     1       1.237  -2.080  -0.016  0.00  0.00    -0.269 N 
ATOM      2  C   UNL     1       2.409  -2.734  -0.137  0.00  0.00    +0.306 C 
ATOM      3  O   UNL     1       3.454  -2.112  -0.148  0.00  0.00    -0.252 OA
ATOM      4  N   UNL     1       2.423  -4.077  -0.245  0.00  0.00    -0.285 N 
ATOM      5  C   UNL     1       1.167  -4.833  -0.348  0.00  0.00    +0.109 C 
ATOM      6  C   UNL     1       1.230  -5.727  -1.591  0.00  0.00    +0.020 C 
ATOM      7  C   UNL     1       2.485  -6.600  -1.524  0.00  0.00    +0.016 C 
ATOM      8  C   UNL     1       3.729  -5.708  -1.507  0.00  0.00    +0.095 C 
ATOM      9  C   UNL     1       3.695  -4.814  -0.269  0.00  0.00    +0.122 C 
ATOM     10  H   UNL     1       0.411  -2.579   0.077  0.00  0.00    +0.156 HD
ENDROOT
BRANCH   1  15
ATOM     11  C   UNL     1       1.139   3.592  -0.046  0.00  0.00    +0.044 C 
ATOM     12  C   UNL     1       1.165   2.086  -0.038  0.00  0.00    -0.050 A 
ATOM     13  C   UNL     1       2.205   1.410  -0.651  0.00  0.00    +0.005 A 
ATOM     14  C   UNL     1       2.231   0.030  -0.645  0.00  0.00    +0.024 A 
ATOM     15  C   UNL     1       1.213  -0.681  -0.023  0.00  0.00    +0.038 A 
ATOM     16  C   UNL     1       0.171   0.000   0.591  0.00  0.00    -0.029 A 
ATOM     17  C   UNL     1       0.150   1.381   0.582  0.00  0.00    +0.008 A 
ATOM     18  C   UNL     1      -0.936  -0.767   1.268  0.00  0.00    +0.045 C 
ENDBRANCH   1  15
BRANCH   8  19
ATOM     19  C   UNL     1       4.965  -6.569  -1.474  0.00  0.00    +0.232 A 
ATOM     20  N   UNL     1       5.920  -6.594  -2.370  0.00  0.00    -0.191 NA
ATOM     21  C   UNL     1       6.813  -7.506  -1.923  0.00  0.00    +0.202 A 
ATOM     22  N   UNL     1       6.348  -7.983  -0.798  0.00  0.00    -0.056 NA
ATOM     23  O   UNL     1       5.290  -7.455  -0.527  0.00  0.00    -0.337 OA
BRANCH  21  24
ATOM     24  C   UNL     1       8.080  -7.898  -2.590  0.00  0.00    +0.023 A 
ATOM     25  C   UNL     1       8.447  -7.306  -3.797  0.00  0.00    +0.013 A 
ATOM     26  C   UNL     1       9.628  -7.670  -4.410  0.00  0.00    +0.021 A 
ATOM     27  C   UNL     1      10.443  -8.629  -3.833  0.00  0.00    +0.041 A 
ATOM     28  C   UNL     1      10.081  -9.223  -2.636  0.00  0.00    +0.021 A 
ATOM     29  C   UNL     1       8.904  -8.862  -2.013  0.00  0.00    +0.013 A 
ATOM     30 CL   UNL     1      11.925  -9.088  -4.613  0.00  0.00    -0.084 Cl
ENDBRANCH  21  24
ENDBRANCH   8  19
TORSDOF 3
