REMARK  Name = ZINC16435992
REMARK  20 active torsions:
REMARK  status: ('A' for Active; 'I' for Inactive)
REMARK    1  A    between atoms: C_1  and  C_2
REMARK    2  A    between atoms: C_5  and  N_9
REMARK    3  A    between atoms: C_6  and  C_8
REMARK    4  A    between atoms: C_10  and  N_18
REMARK    5  A    between atoms: C_12  and  C_14
REMARK    6  A    between atoms: C_14  and  C_15
REMARK    7  A    between atoms: C_14  and  C_16
REMARK    8  A    between atoms: C_14  and  C_17
REMARK    9  A    between atoms: C_19  and  C_21
REMARK   10  A    between atoms: C_21  and  N_22
REMARK   11  A    between atoms: N_22  and  C_23
REMARK   12  A    between atoms: C_23  and  C_24
REMARK   13  A    between atoms: C_24  and  C_25
REMARK   14  A    between atoms: C_25  and  O_26
REMARK   15  A    between atoms: O_26  and  C_27
REMARK   16  A    between atoms: C_28  and  C_30
REMARK   17  A    between atoms: C_33  and  C_36
REMARK   18  A    between atoms: C_36  and  C_37
REMARK   19  A    between atoms: C_36  and  C_38
REMARK   20  A    between atoms: C_36  and  C_39
REMARK                            x       y       z     vdW  Elec       q    Type
REMARK                         _______ _______ _______ _____ _____    ______ ____
ROOT
ATOM      1  N   UNL     1       1.656  -5.437  -1.421  0.00  0.00    -0.269 N 
ATOM      2  C   UNL     1       1.671  -4.089  -1.450  0.00  0.00    +0.236 C 
ATOM      3  O   UNL     1       1.686  -3.506  -2.513  0.00  0.00    -0.274 OA
ATOM      4  H   UNL     1       1.644  -5.903  -0.570  0.00  0.00    +0.156 HD
ENDROOT
BRANCH   1   6
ATOM      5  N   UNL     1       1.524  -7.508  -2.737  0.00  0.00    -0.218 N 
ATOM      6  C   UNL     1       1.659  -6.160  -2.613  0.00  0.00    +0.129 A 
ATOM      7  C   UNL     1       1.790  -5.646  -3.866  0.00  0.00    +0.069 A 
ATOM      8  C   UNL     1       1.743  -6.708  -4.773  0.00  0.00    +0.071 A 
ATOM      9  N   UNL     1       1.581  -7.820  -4.101  0.00  0.00    -0.169 NA
BRANCH   5  14
ATOM     10  C   UNL     1       0.851 -11.210   1.512  0.00  0.00    +0.044 C 
ATOM     11  C   UNL     1       1.030 -10.227   0.384  0.00  0.00    -0.050 A 
ATOM     12  C   UNL     1       2.035  -9.279   0.447  0.00  0.00    +0.005 A 
ATOM     13  C   UNL     1       2.205  -8.381  -0.588  0.00  0.00    +0.028 A 
ATOM     14  C   UNL     1       1.357  -8.422  -1.687  0.00  0.00    +0.070 A 
ATOM     15  C   UNL     1       0.349  -9.374  -1.747  0.00  0.00    -0.025 A 
ATOM     16  C   UNL     1       0.187 -10.273  -0.711  0.00  0.00    +0.008 A 
ATOM     17  C   UNL     1      -0.569  -9.426  -2.942  0.00  0.00    +0.046 C 
ENDBRANCH   5  14
BRANCH   8  18
ATOM     18  C   UNL     1       1.853  -6.593  -6.271  0.00  0.00    +0.006 C 
ATOM     19  C   UNL     1       3.311  -6.330  -6.657  0.00  0.00    +0.017 C 
ATOM     20  C   UNL     1       1.382  -7.896  -6.920  0.00  0.00    +0.017 C 
ATOM     21  C   UNL     1       0.980  -5.436  -6.760  0.00  0.00    +0.017 C 
ENDBRANCH   8  18
ENDBRANCH   1   6
BRANCH   2  22
ATOM     22  C   UNL     1       1.669  -3.308  -0.161  0.00  0.00    +0.204 C 
BRANCH  22  23
ATOM     23  N   UNL     1       1.686  -1.874  -0.460  0.00  0.00    -0.289 N 
ATOM     24  C   UNL     1       0.527  -1.202  -0.607  0.00  0.00    +0.247 C 
ATOM     25  O   UNL     1      -0.530  -1.756  -0.378  0.00  0.00    -0.270 OA
BRANCH  24  26
ATOM     26  C   UNL     1       0.542   0.210  -1.047  0.00  0.00    +0.037 A 
ATOM     27  C   UNL     1      -0.330   0.641  -2.048  0.00  0.00    +0.013 A 
ATOM     28  C   UNL     1      -0.311   1.959  -2.454  0.00  0.00    +0.005 A 
ATOM     29  C   UNL     1       0.570   2.853  -1.871  0.00  0.00    -0.042 A 
ATOM     30  C   UNL     1       1.437   2.433  -0.879  0.00  0.00    +0.005 A 
ATOM     31  C   UNL     1       1.428   1.117  -0.464  0.00  0.00    +0.013 A 
BRANCH  29  32
ATOM     32  C   UNL     1       0.585   4.292  -2.320  0.00  0.00    -0.013 C 
ATOM     33  C   UNL     1      -0.791   4.916  -2.080  0.00  0.00    +0.015 C 
ATOM     34  C   UNL     1       1.640   5.063  -1.525  0.00  0.00    +0.015 C 
ATOM     35  C   UNL     1       0.921   4.357  -3.811  0.00  0.00    +0.015 C 
ENDBRANCH  29  32
ENDBRANCH  24  26
BRANCH  23  36
ATOM     36  C   UNL     1       2.964  -1.170  -0.598  0.00  0.00    +0.111 C 
BRANCH  36  37
ATOM     37  C   UNL     1       3.509  -0.825   0.789  0.00  0.00    +0.047 C 
BRANCH  37  38
ATOM     38  C   UNL     1       4.762   0.041   0.644  0.00  0.00    +0.161 C 
BRANCH  38  39
ATOM     39  O   UNL     1       5.271   0.364   1.939  0.00  0.00    -0.383 OA
ATOM     40  C   UNL     1       6.448   1.175   1.916  0.00  0.00    +0.193 C 
ENDBRANCH  38  39
ENDBRANCH  37  38
ENDBRANCH  36  37
ENDBRANCH  23  36
ENDBRANCH  22  23
ENDBRANCH   2  22
TORSDOF 11
