REMARK  Name = ZINC12350207
REMARK  7 active torsions:
REMARK  status: ('A' for Active; 'I' for Inactive)
REMARK    1  A    between atoms: C_1  and  C_2
REMARK    2  A    between atoms: C_2  and  C_16
REMARK    3  A    between atoms: N_3  and  N_4
REMARK    4  A    between atoms: C_8  and  C_11
REMARK    5  A    between atoms: N_25  and  N_28
REMARK    6  A    between atoms: N_28  and  C_29
REMARK    7  A    between atoms: C_33  and  C_36
REMARK                            x       y       z     vdW  Elec       q    Type
REMARK                         _______ _______ _______ _____ _____    ______ ____
ROOT
ATOM      1  C   UNL     1      -6.632   3.001  -0.874  0.00  0.00    +0.118 C 
ATOM      2  N   UNL     1      -7.130   2.975   0.320  0.00  0.00    -0.086 NA
ATOM      3  O   UNL     1      -6.602   1.933   1.114  0.00  0.00    -0.379 OA
ATOM      4  C   UNL     1      -5.402   1.453   0.484  0.00  0.00    +0.309 C 
ATOM      5  C   UNL     1      -5.621   1.879  -1.000  0.00  0.00    +0.183 C 
ATOM      6  C   UNL     1      -4.274   2.481  -1.354  0.00  0.00    +0.252 C 
ATOM      7  O   UNL     1      -3.857   2.671  -2.476  0.00  0.00    -0.273 OA
ATOM      8  N   UNL     1      -3.621   2.766  -0.217  0.00  0.00    -0.150 N 
ATOM      9  C   UNL     1      -4.230   2.322   0.893  0.00  0.00    +0.283 C 
ATOM     10  O   UNL     1      -3.898   2.574   2.031  0.00  0.00    -0.269 OA
ENDROOT
BRANCH   8  11
ATOM     11  N   UNL     1      -2.411   3.472  -0.191  0.00  0.00    -0.227 N 
ATOM     12  C   UNL     1      -2.417   4.933  -0.090  0.00  0.00    +0.156 C 
ATOM     13  C   UNL     1      -1.204   2.784  -0.260  0.00  0.00    +0.156 A 
ATOM     14  C   UNL     1      -0.507   2.494   0.909  0.00  0.00    +0.083 A 
ATOM     15  C   UNL     1       0.693   1.810   0.825  0.00  0.00    +0.037 A 
ATOM     16  C   UNL     1       1.157   1.439  -0.430  0.00  0.00    +0.074 A 
ATOM     17  C   UNL     1       0.414   1.760  -1.548  0.00  0.00    +0.125 A 
ATOM     18  N   UNL     1      -0.725   2.418  -1.438  0.00  0.00    -0.237 NA
ATOM     19 CL   UNL     1      -1.135   2.982   2.453  0.00  0.00    -0.080 Cl
BRANCH  16  20
ATOM     20  C   UNL     1       2.459   0.693  -0.571  0.00  0.00    +0.419 C 
ATOM     21  F   UNL     1       2.706   0.436  -1.923  0.00  0.00    -0.166 F 
ATOM     22  F   UNL     1       3.499   1.468  -0.045  0.00  0.00    -0.166 F 
ATOM     23  F   UNL     1       2.381  -0.517   0.127  0.00  0.00    -0.166 F 
ENDBRANCH  16  20
ENDBRANCH   8  11
BRANCH   1  25
ATOM     24  C   UNL     1      -6.463   5.365  -1.873  0.00  0.00    +0.069 C 
ATOM     25  C   UNL     1      -6.987   3.953  -1.926  0.00  0.00    +0.081 C 
ATOM     26  N   UNL     1      -7.756   3.581  -2.909  0.00  0.00    -0.184 NA
BRANCH  26  27
ATOM     27  N   UNL     1      -8.162   2.244  -3.013  0.00  0.00    -0.220 N 
ATOM     28  C   UNL     1      -8.893   1.824  -4.119  0.00  0.00    +0.156 A 
ATOM     29  C   UNL     1      -9.381   0.520  -4.168  0.00  0.00    +0.083 A 
ATOM     30  C   UNL     1     -10.112   0.118  -5.273  0.00  0.00    +0.037 A 
ATOM     31  C   UNL     1     -10.321   1.031  -6.298  0.00  0.00    +0.074 A 
ATOM     32  C   UNL     1      -9.803   2.306  -6.184  0.00  0.00    +0.125 A 
ATOM     33  N   UNL     1      -9.115   2.665  -5.117  0.00  0.00    -0.237 NA
ATOM     34 CL   UNL     1      -9.083  -0.582  -2.861  0.00  0.00    -0.080 Cl
ATOM     35  H   UNL     1      -7.933   1.612  -2.314  0.00  0.00    +0.176 HD
BRANCH  31  36
ATOM     36  C   UNL     1     -11.105   0.635  -7.522  0.00  0.00    +0.419 C 
ATOM     37  F   UNL     1     -11.176   1.720  -8.402  0.00  0.00    -0.166 F 
ATOM     38  F   UNL     1     -10.470  -0.439  -8.156  0.00  0.00    -0.166 F 
ATOM     39  F   UNL     1     -12.398   0.255  -7.145  0.00  0.00    -0.166 F 
ENDBRANCH  31  36
ENDBRANCH  26  27
ENDBRANCH   1  25
TORSDOF 5
