REMARK  Name = ZINC29120666
REMARK  8 active torsions:
REMARK  status: ('A' for Active; 'I' for Inactive)
REMARK    1  A    between atoms: C_1  and  C_2
REMARK    2  A    between atoms: C_7  and  C_9
REMARK    3  A    between atoms: C_7  and  C_10
REMARK    4  A    between atoms: N_13  and  C_17
REMARK    5  A    between atoms: C_17  and  C_18
REMARK    6  A    between atoms: C_23  and  C_26
REMARK    7  A    between atoms: C_29  and  N_32
REMARK    8  A    between atoms: C_33  and  C_35
REMARK                            x       y       z     vdW  Elec       q    Type
REMARK                         _______ _______ _______ _____ _____    ______ ____
ROOT
ATOM      1  C   UNL     1      -2.337  -3.340  -4.308  0.00  0.00    +0.237 C 
ATOM      2  O   UNL     1      -1.990  -2.202  -4.540  0.00  0.00    -0.274 OA
ATOM      3  N   UNL     1      -3.361  -3.885  -4.995  0.00  0.00    -0.263 N 
ATOM      4  C   UNL     1      -4.018  -3.143  -5.968  0.00  0.00    +0.165 A 
ATOM      5  N   UNL     1      -5.034  -3.488  -6.738  0.00  0.00    -0.225 NA
ATOM      6  C   UNL     1      -5.543  -2.644  -7.623  0.00  0.00    +0.080 A 
ATOM      7  C   UNL     1      -5.007  -1.393  -7.743  0.00  0.00    +0.076 A 
ATOM      8  S   UNL     1      -3.718  -1.465  -6.505  0.00  0.00    -0.060 S 
ATOM      9  H   UNL     1      -3.639  -4.796  -4.810  0.00  0.00    +0.157 HD
ENDROOT
BRANCH   6  10
ATOM     10  C   UNL     1      -6.684  -3.054  -8.477  0.00  0.00    +0.001 A 
ATOM     11  C   UNL     1      -7.212  -2.165  -9.412  0.00  0.00    +0.012 A 
ATOM     12  C   UNL     1      -8.273  -2.548 -10.204  0.00  0.00    +0.024 A 
ATOM     13  C   UNL     1      -8.817  -3.820 -10.072  0.00  0.00    +0.033 A 
ATOM     14  C   UNL     1      -8.293  -4.709  -9.141  0.00  0.00    +0.024 A 
ATOM     15  C   UNL     1      -7.227  -4.332  -8.350  0.00  0.00    +0.012 A 
BRANCH  13  16
ATOM     16  N   UNL     1      -9.894  -4.207 -10.877  0.00  0.00    -0.286 N 
ATOM     17  C   UNL     1      -9.991  -5.481 -11.306  0.00  0.00    +0.214 C 
ATOM     18  O   UNL     1      -9.193  -6.311 -10.926  0.00  0.00    -0.276 OA
ATOM     19  C   UNL     1     -11.092  -5.874 -12.257  0.00  0.00    +0.109 C 
ATOM     20  H   UNL     1     -10.570  -3.558 -11.127  0.00  0.00    +0.155 HD
ENDBRANCH  13  16
ENDBRANCH   6  10
BRANCH   1  21
ATOM     21  C   UNL     1      -1.625  -4.146  -3.252  0.00  0.00    +0.214 C 
BRANCH  21  33
ATOM     22  C   UNL     1      -0.076   1.517   0.068  0.00  0.00    +0.007 C 
ATOM     23  C   UNL     1      -0.061  -0.015   0.063  0.00  0.00    -0.011 C 
ATOM     24  C   UNL     1       0.671  -0.508  -1.188  0.00  0.00    +0.038 C 
ATOM     25  C   UNL     1       0.650  -2.030  -1.229  0.00  0.00    +0.113 C 
ATOM     26  C   UNL     1       1.192  -2.661   0.038  0.00  0.00    +0.041 C 
ATOM     27  C   UNL     1       0.709  -2.041   1.338  0.00  0.00    -0.032 C 
ATOM     28  C   UNL     1       0.690  -0.518   1.294  0.00  0.00    +0.009 C 
ATOM     29  C   UNL     1       1.681  -2.467   2.460  0.00  0.00    +0.011 C 
ATOM     30  C   UNL     1      -0.678  -2.573   1.710  0.00  0.00    +0.011 C 
ATOM     31  C   UNL     1      -0.726  -2.540  -1.577  0.00  0.00    +0.247 C 
ATOM     32  O   UNL     1      -1.780  -2.288  -1.033  0.00  0.00    -0.273 OA
ATOM     33  N   UNL     1      -0.560  -3.336  -2.656  0.00  0.00    -0.215 N 
ATOM     34  C   UNL     1       0.697  -3.289  -3.110  0.00  0.00    +0.310 C 
ATOM     35  O   UNL     1       1.089  -3.909  -4.080  0.00  0.00    -0.252 OA
ATOM     36  N   UNL     1       1.478  -2.483  -2.370  0.00  0.00    -0.285 N 
ATOM     37  H   UNL     1       2.399  -2.239  -2.537  0.00  0.00    +0.151 HD
ENDBRANCH  21  33
ENDBRANCH   1  21
TORSDOF 4
