REMARK  Name = ZINC01443427
REMARK  7 active torsions:
REMARK  status: ('A' for Active; 'I' for Inactive)
REMARK    1  A    between atoms: C_1  and  C_2
REMARK    2  A    between atoms: C_7  and  C_8
REMARK    3  A    between atoms: N_10  and  N_11
REMARK    4  A    between atoms: C_12  and  C_14
REMARK    5  A    between atoms: C_14  and  S_15
REMARK    6  A    between atoms: S_15  and  C_16
REMARK    7  A    between atoms: C_18  and  C_27
REMARK                            x       y       z     vdW  Elec       q    Type
REMARK                         _______ _______ _______ _____ _____    ______ ____
ROOT
ATOM      1  S   UNL     1       3.690  -4.922   1.255  0.00  0.00    -0.101 S 
ENDROOT
BRANCH   1   2
ATOM      2  C   UNL     1       3.330  -6.627   1.518  0.00  0.00    +0.075 C 
ATOM      3  N   UNL     1       2.104  -6.984   1.572  0.00  0.00    -0.268 NA
ATOM      4  C   UNL     1       1.654  -8.349   1.779  0.00  0.00    +0.166 C 
ATOM      5  C   UNL     1       2.720  -9.350   1.432  0.00  0.00    -0.015 A 
ATOM      6  C   UNL     1       2.352 -10.659   1.159  0.00  0.00    +0.006 A 
ATOM      7  C   UNL     1       3.311 -11.600   0.841  0.00  0.00    +0.000 A 
ATOM      8  C   UNL     1       4.644 -11.237   0.794  0.00  0.00    +0.000 A 
ATOM      9  C   UNL     1       5.012  -9.934   1.065  0.00  0.00    +0.004 A 
ATOM     10  C   UNL     1       4.050  -8.989   1.384  0.00  0.00    -0.036 A 
ATOM     11  C   UNL     1       4.478  -7.576   1.673  0.00  0.00    +0.097 C 
BRANCH   4  12
ATOM     12  C   UNL     1       1.273  -8.521   3.227  0.00  0.00    -0.019 A 
ATOM     13  C   UNL     1       2.070  -7.981   4.220  0.00  0.00    +0.007 A 
ATOM     14  C   UNL     1       1.717  -8.133   5.548  0.00  0.00    +0.020 A 
ATOM     15  C   UNL     1       0.573  -8.835   5.883  0.00  0.00    +0.041 A 
ATOM     16  C   UNL     1      -0.221  -9.379   4.890  0.00  0.00    +0.020 A 
ATOM     17  C   UNL     1       0.129  -9.222   3.562  0.00  0.00    +0.007 A 
ATOM     18 CL   UNL     1       0.134  -9.033   7.551  0.00  0.00    -0.084 Cl
ENDBRANCH   4  12
ENDBRANCH   1   2
BRANCH   1  19
ATOM     19  C   UNL     1       2.009  -4.260   1.141  0.00  0.00    +0.172 C 
BRANCH  19  21
ATOM     20  N   UNL     1       0.930  -2.062   0.792  0.00  0.00    -0.233 N 
ATOM     21  C   UNL     1       2.070  -2.772   0.910  0.00  0.00    +0.239 C 
ATOM     22  O   UNL     1       3.143  -2.215   0.829  0.00  0.00    -0.273 OA
ATOM     23  H   UNL     1       0.072  -2.508   0.856  0.00  0.00    +0.173 HD
BRANCH  20  26
ATOM     24  C   UNL     1      -0.152   0.032   0.459  0.00  0.00    +0.260 C 
ATOM     25  O   UNL     1      -1.228  -0.527   0.539  0.00  0.00    -0.269 OA
ATOM     26  N   UNL     1       0.987  -0.679   0.577  0.00  0.00    -0.230 N 
ATOM     27  H   UNL     1       1.846  -0.232   0.512  0.00  0.00    +0.173 HD
BRANCH  24  34
ATOM     28  C   UNL     1      -2.589   1.498  -0.074  0.00  0.00    +0.044 C 
ATOM     29  C   UNL     1      -1.262   2.209  -0.026  0.00  0.00    -0.038 A 
ATOM     30  C   UNL     1      -1.200   3.572  -0.231  0.00  0.00    +0.004 A 
ATOM     31  C   UNL     1       0.019   4.226  -0.194  0.00  0.00    +0.000 A 
ATOM     32  C   UNL     1       1.182   3.519   0.055  0.00  0.00    +0.001 A 
ATOM     33  C   UNL     1       1.134   2.157   0.268  0.00  0.00    +0.013 A 
ATOM     34  C   UNL     1      -0.093   1.492   0.232  0.00  0.00    +0.041 A 
ENDBRANCH  24  34
ENDBRANCH  20  26
ENDBRANCH  19  21
ENDBRANCH   1  19
TORSDOF 6
