REMARK  Name = ZINC48629843
REMARK  2 active torsions:
REMARK  status: ('A' for Active; 'I' for Inactive)
REMARK    1  A    between atoms: C_6  and  C_7
REMARK    2  A    between atoms: C_7  and  C_9
REMARK                            x       y       z     vdW  Elec       q    Type
REMARK                         _______ _______ _______ _____ _____    ______ ____
ROOT
ATOM      1  C   UNL     1      -0.017   1.379   0.010  0.00  0.00    +0.007 A 
ATOM      2  C   UNL     1       1.168   2.090   0.002  0.00  0.00    +0.030 A 
ATOM      3  C   UNL     1       2.377   1.414  -0.013  0.00  0.00    +0.087 A 
ATOM      4  C   UNL     1       2.397   0.019  -0.021  0.00  0.00    +0.157 A 
ATOM      5  C   UNL     1       1.204  -0.685  -0.013  0.00  0.00    +0.053 A 
ATOM      6  C   UNL     1       0.002  -0.004   0.002  0.00  0.00    -0.026 A 
ATOM      7  O   UNL     1       3.697  -0.364  -0.036  0.00  0.00    -0.408 OA
ATOM      8  C   UNL     1       4.479   0.727  -0.038  0.00  0.00    +0.419 A 
ATOM      9  O   UNL     1       5.695   0.719  -0.050  0.00  0.00    -0.223 OA
ATOM     10  N   UNL     1       3.708   1.832  -0.024  0.00  0.00    -0.288 N 
ATOM     11  H   UNL     1       4.021   2.750  -0.022  0.00  0.00    +0.172 HD
ENDROOT
BRANCH   6  12
ATOM     12  C   UNL     1      -1.295  -0.772   0.010  0.00  0.00    +0.116 C 
ATOM     13 CL   UNL     1      -2.322  -0.231  -1.370  0.00  0.00    -0.116 Cl
BRANCH  12  14
ATOM     14  C   UNL     1      -2.032  -0.514   1.326  0.00  0.00    +0.039 C 
ATOM     15  C   UNL     1      -2.516   0.959   1.409  0.00  0.00    +0.035 C 
ATOM     16  C   UNL     1      -3.752   0.811   2.331  0.00  0.00    +0.160 C 
ATOM     17  O   UNL     1      -4.347  -0.443   1.962  0.00  0.00    -0.379 OA
ATOM     18  C   UNL     1      -3.358  -1.303   1.377  0.00  0.00    +0.165 C 
ENDBRANCH  12  14
ENDBRANCH   6  12
TORSDOF 2
