REMARK  Name = ZINC00906483
REMARK  10 active torsions:
REMARK  status: ('A' for Active; 'I' for Inactive)
REMARK    1  A    between atoms: C_1  and  N_2
REMARK    2  A    between atoms: C_3  and  C_34
REMARK    3  A    between atoms: C_6  and  S_7
REMARK    4  A    between atoms: S_7  and  C_8
REMARK    5  A    between atoms: C_8  and  C_9
REMARK    6  A    between atoms: N_11  and  C_12
REMARK    7  A    between atoms: N_11  and  C_18
REMARK    8  A    between atoms: C_18  and  C_20
REMARK    9  A    between atoms: C_18  and  C_26
REMARK   10  A    between atoms: N_28  and  C_29
REMARK                            x       y       z     vdW  Elec       q    Type
REMARK                         _______ _______ _______ _____ _____    ______ ____
ROOT
ATOM      1  C   UNL     1       1.808   5.030  -1.908  0.00  0.00    +0.231 C 
ATOM      2  O   UNL     1       0.600   5.122  -1.955  0.00  0.00    -0.274 OA
ATOM      3  N   UNL     1       2.387   4.216  -1.004  0.00  0.00    -0.255 N 
ENDROOT
BRANCH   3   4
ATOM      4  C   UNL     1       3.775   4.034  -1.013  0.00  0.00    +0.037 A 
ATOM      5  C   UNL     1       4.615   5.076  -0.645  0.00  0.00    +0.023 A 
ATOM      6  C   UNL     1       5.984   4.892  -0.650  0.00  0.00    +0.002 A 
ATOM      7  C   UNL     1       6.518   3.675  -1.033  0.00  0.00    +0.000 A 
ATOM      8  C   UNL     1       5.684   2.637  -1.405  0.00  0.00    +0.002 A 
ATOM      9  C   UNL     1       4.314   2.813  -1.397  0.00  0.00    +0.023 A 
ENDBRANCH   3   4
BRANCH   1  10
ATOM     10  C   UNL     1       2.662   5.825  -2.862  0.00  0.00    +0.173 C 
BRANCH  10  11
ATOM     11  S   UNL     1       1.606   6.903  -3.862  0.00  0.00    -0.077 S 
BRANCH  11  17
ATOM     12  C   UNL     1       1.312   9.184  -6.237  0.00  0.00    +0.153 C 
ATOM     13  N   UNL     1       2.604   8.631  -5.822  0.00  0.00    -0.305 N 
ATOM     14  C   UNL     1       3.844   8.951  -6.324  0.00  0.00    +0.165 A 
ATOM     15  N   UNL     1       4.723   8.225  -5.672  0.00  0.00    -0.128 NA
ATOM     16  N   UNL     1       4.125   7.488  -4.805  0.00  0.00    -0.122 NA
ATOM     17  C   UNL     1       2.828   7.691  -4.857  0.00  0.00    +0.192 A 
BRANCH  14  18
ATOM     18  C   UNL     1       4.134   9.928  -7.395  0.00  0.00    +0.019 A 
ATOM     19  C   UNL     1       5.364   9.903  -8.053  0.00  0.00    +0.011 A 
ATOM     20  C   UNL     1       5.626  10.815  -9.054  0.00  0.00    +0.001 A 
ATOM     21  C   UNL     1       4.676  11.760  -9.400  0.00  0.00    +0.000 A 
ATOM     22  C   UNL     1       3.456  11.793  -8.748  0.00  0.00    +0.001 A 
ATOM     23  C   UNL     1       3.179  10.884  -7.748  0.00  0.00    +0.011 A 
ENDBRANCH  14  18
ENDBRANCH  11  17
ENDBRANCH  10  11
ENDBRANCH   1  10
BRANCH   3  24
ATOM     24  C   UNL     1       1.565   3.521  -0.011  0.00  0.00    +0.197 C 
BRANCH  24  25
ATOM     25  C   UNL     1       2.432   2.590   0.797  0.00  0.00    -0.018 A 
ATOM     26  C   UNL     1       2.135   1.241   0.850  0.00  0.00    +0.006 A 
ATOM     27  C   UNL     1       2.930   0.387   1.590  0.00  0.00    +0.000 A 
ATOM     28  C   UNL     1       4.023   0.881   2.278  0.00  0.00    +0.000 A 
ATOM     29  C   UNL     1       4.319   2.231   2.225  0.00  0.00    +0.000 A 
ATOM     30  C   UNL     1       3.524   3.085   1.485  0.00  0.00    +0.006 A 
ENDBRANCH  24  25
BRANCH  24  31
ATOM     31  C   UNL     1       0.923   4.531   0.905  0.00  0.00    +0.239 C 
ATOM     32  O   UNL     1       1.132   5.715   0.744  0.00  0.00    -0.273 OA
ATOM     33  N   UNL     1       0.116   4.119   1.903  0.00  0.00    -0.311 N 
ATOM     34  H   UNL     1      -0.051   3.172   2.032  0.00  0.00    +0.149 HD
BRANCH  33  35
ATOM     35  C   UNL     1      -0.508   5.101   2.794  0.00  0.00    +0.073 C 
ATOM     36  C   UNL     1       0.432   5.415   3.976  0.00  0.00    +0.022 C 
ATOM     37  C   UNL     1      -0.521   5.586   5.184  0.00  0.00    +0.002 C 
ATOM     38  C   UNL     1      -1.595   4.499   4.929  0.00  0.00    +0.002 C 
ATOM     39  C   UNL     1      -1.797   4.519   3.400  0.00  0.00    +0.022 C 
ENDBRANCH  33  35
ENDBRANCH  24  31
ENDBRANCH   3  24
TORSDOF 9
