REMARK  Name = ZINC53993849
REMARK  3 active torsions:
REMARK  status: ('A' for Active; 'I' for Inactive)
REMARK    1  A    between atoms: C_3  and  N_18
REMARK    2  A    between atoms: C_6  and  C_7
REMARK    3  A    between atoms: C_9  and  C_12
REMARK                            x       y       z     vdW  Elec       q    Type
REMARK                         _______ _______ _______ _____ _____    ______ ____
ROOT
ATOM      1  C   UNL     1      -1.265  -0.761   0.011  0.00  0.00    +0.259 A 
ATOM      2  N   UNL     1      -1.380  -2.069   0.010  0.00  0.00    -0.187 NA
ATOM      3  C   UNL     1      -2.679  -2.415   0.019  0.00  0.00    +0.209 A 
ATOM      4  N   UNL     1      -3.407  -1.321   0.026  0.00  0.00    -0.055 NA
ATOM      5  O   UNL     1      -2.501  -0.229   0.026  0.00  0.00    -0.332 OA
ENDROOT
BRANCH   1  11
ATOM      6  C   UNL     1      -0.017   1.393   0.010  0.00  0.00    +0.015 A 
ATOM      7  C   UNL     1       1.167   2.096   0.002  0.00  0.00    +0.023 A 
ATOM      8  C   UNL     1       2.381   1.417  -0.013  0.00  0.00    +0.025 A 
ATOM      9  C   UNL     1       2.403   0.026  -0.021  0.00  0.00    +0.023 A 
ATOM     10  C   UNL     1       1.223  -0.683  -0.014  0.00  0.00    +0.015 A 
ATOM     11  C   UNL     1       0.002  -0.004   0.002  0.00  0.00    +0.040 A 
BRANCH   8  12
ATOM     12  N   UNL     1       3.577   2.131  -0.022  0.00  0.00    -0.358 N 
ATOM     13  H   UNL     1       3.562   3.101  -0.017  0.00  0.00    +0.142 HD
ATOM     14  H   UNL     1       4.424   1.658  -0.033  0.00  0.00    +0.142 HD
ENDBRANCH   8  12
ENDBRANCH   1  11
BRANCH   3  15
ATOM     15  C   UNL     1      -3.201  -3.797   0.021  0.00  0.00    +0.061 A 
ATOM     16  C   UNL     1      -4.501  -4.228   0.025  0.00  0.00    +0.020 A 
ATOM     17  C   UNL     1      -4.750  -5.581   0.026  0.00  0.00    +0.023 A 
ATOM     18  C   UNL     1      -3.701  -6.447   0.023  0.00  0.00    +0.056 A 
ATOM     19  S   UNL     1      -2.302  -5.339   0.011  0.00  0.00    -0.078 S 
ATOM     20 BR   UNL     1      -3.721  -8.338   0.025  0.00  0.00    -0.043 Br
ENDBRANCH   3  15
TORSDOF 3
