REMARK  Name = ZINC54927987
REMARK  8 active torsions:
REMARK  status: ('A' for Active; 'I' for Inactive)
REMARK    1  A    between atoms: C_1  and  C_2
REMARK    2  A    between atoms: C_5  and  N_9
REMARK    3  A    between atoms: C_6  and  C_8
REMARK    4  A    between atoms: N_9  and  C_10
REMARK    5  A    between atoms: C_13  and  C_20
REMARK    6  A    between atoms: C_14  and  C_16
REMARK    7  A    between atoms: C_16  and  C_18
REMARK    8  A    between atoms: C_16  and  O_19
REMARK                            x       y       z     vdW  Elec       q    Type
REMARK                         _______ _______ _______ _____ _____    ______ ____
ROOT
ATOM      1  N   UNL     1       0.058  -4.168  -0.021  0.00  0.00    -0.282 N 
ATOM      2  C   UNL     1       1.336  -4.884  -0.031  0.00  0.00    +0.137 C 
ATOM      3  C   UNL     1      -1.134  -4.877  -0.019  0.00  0.00    +0.165 A 
ATOM      4  N   UNL     1      -2.364  -4.410  -0.016  0.00  0.00    -0.229 NA
ATOM      5  C   UNL     1      -3.403  -5.225  -0.015  0.00  0.00    +0.053 A 
ATOM      6  C   UNL     1      -3.143  -6.555  -0.017  0.00  0.00    +0.042 A 
ATOM      7  S   UNL     1      -1.358  -6.545  -0.027  0.00  0.00    -0.054 S 
ATOM      8  C   UNL     1      -4.816  -4.699  -0.011  0.00  0.00    +0.066 C 
ENDROOT
BRANCH   1  13
ATOM      9  C   UNL     1      -0.018   1.503   0.010  0.00  0.00    +0.044 C 
ATOM     10  C   UNL     1       0.002  -0.004   0.002  0.00  0.00    -0.050 A 
ATOM     11  C   UNL     1       0.006  -0.688  -1.200  0.00  0.00    +0.005 A 
ATOM     12  C   UNL     1       0.024  -2.068  -1.212  0.00  0.00    +0.024 A 
ATOM     13  C   UNL     1       0.040  -2.771  -0.013  0.00  0.00    +0.038 A 
ATOM     14  C   UNL     1       0.036  -2.081   1.193  0.00  0.00    -0.029 A 
ATOM     15  C   UNL     1       0.023  -0.700   1.196  0.00  0.00    +0.008 A 
ATOM     16  C   UNL     1       0.052  -2.839   2.495  0.00  0.00    +0.045 C 
ENDBRANCH   1  13
BRANCH   6  17
ATOM     17  C   UNL     1      -4.098  -7.720  -0.017  0.00  0.00    +0.150 C 
ATOM     18  C   UNL     1      -4.136  -8.350  -1.411  0.00  0.00    +0.043 C 
BRANCH  17  19
ATOM     19  O   UNL     1      -3.662  -8.694   0.934  0.00  0.00    -0.387 OA
ATOM     20  H   UNL     1      -2.779  -9.048   0.757  0.00  0.00    +0.210 HD
ENDBRANCH  17  19
ENDBRANCH   6  17
TORSDOF 3
