REMARK  Name = ZINC22732309
REMARK  7 active torsions:
REMARK  status: ('A' for Active; 'I' for Inactive)
REMARK    1  A    between atoms: C_1  and  S_2
REMARK    2  A    between atoms: S_2  and  C_3
REMARK    3  A    between atoms: C_8  and  N_9
REMARK    4  A    between atoms: C_10  and  C_12
REMARK    5  A    between atoms: C_12  and  C_13
REMARK    6  A    between atoms: N_19  and  S_20
REMARK    7  A    between atoms: S_20  and  C_23
REMARK                            x       y       z     vdW  Elec       q    Type
REMARK                         _______ _______ _______ _____ _____    ______ ____
ROOT
ATOM      1  C   UNL     1      -3.223   1.019   0.147  0.00  0.00    +0.089 C 
ATOM      2  C   UNL     1      -2.599   0.686   1.506  0.00  0.00    +0.021 C 
ATOM      3  C   UNL     1      -1.388   1.593   1.742  0.00  0.00    +0.003 C 
ATOM      4  C   UNL     1      -0.341   1.341   0.655  0.00  0.00    +0.017 C 
ATOM      5  C   UNL     1      -0.940   1.681  -0.714  0.00  0.00    +0.110 C 
ATOM      6  N   UNL     1      -2.184   0.920  -0.888  0.00  0.00    -0.173 NA
ENDROOT
BRANCH   6   7
ATOM      7  S   UNL     1      -2.412  -0.030  -2.225  0.00  0.00    +0.067 S 
ATOM      8  O   UNL     1      -3.799   0.024  -2.530  0.00  0.00    -0.152 OA
ATOM      9  O   UNL     1      -1.411   0.341  -3.162  0.00  0.00    -0.152 OA
BRANCH   7  10
ATOM     10  C   UNL     1      -2.066  -1.691  -1.749  0.00  0.00    +0.143 A 
ATOM     11  C   UNL     1      -2.907  -2.629  -1.250  0.00  0.00    +0.036 A 
ATOM     12  C   UNL     1      -2.409  -3.882  -0.945  0.00  0.00    +0.010 A 
ATOM     13  C   UNL     1      -1.093  -4.134  -1.152  0.00  0.00    +0.047 A 
ATOM     14  S   UNL     1      -0.516  -2.576  -1.804  0.00  0.00    -0.077 S 
ENDBRANCH   7  10
ENDBRANCH   6   7
BRANCH   1  15
ATOM     15  C   UNL     1      -4.348   0.028  -0.161  0.00  0.00    +0.116 C 
BRANCH  15  17
ATOM     16  N   UNL     1      -6.378  -0.824   0.968  0.00  0.00    -0.285 N 
ATOM     17  C   UNL     1      -5.372   0.072   0.945  0.00  0.00    +0.219 C 
ATOM     18  O   UNL     1      -5.290   0.915   1.814  0.00  0.00    -0.275 OA
ATOM     19  H   UNL     1      -6.498  -1.537   0.139  0.00  0.00    +0.155 HD
BRANCH  16  25
ATOM     20  C   UNL     1      -7.822  -2.058   2.473  0.00  0.00    +0.029 A 
ATOM     21  C   UNL     1      -8.701  -2.075   3.546  0.00  0.00    +0.016 A 
ATOM     22  C   UNL     1      -9.035  -0.896   4.185  0.00  0.00    +0.001 A 
ATOM     23  C   UNL     1      -8.492   0.303   3.760  0.00  0.00    +0.002 A 
ATOM     24  C   UNL     1      -7.612   0.329   2.695  0.00  0.00    +0.024 A 
ATOM     25  C   UNL     1      -7.270  -0.849   2.048  0.00  0.00    +0.047 A 
BRANCH  20  27
ATOM     26  C   UNL     1      -8.344  -4.826   2.542  0.00  0.00    +0.090 C 
ATOM     27  S   UNL     1      -7.399  -3.558   1.652  0.00  0.00    -0.127 S 
ENDBRANCH  20  27
ENDBRANCH  16  25
ENDBRANCH  15  17
ENDBRANCH   1  15
TORSDOF 6
