REMARK  Name = ZINC63493540
REMARK  7 active torsions:
REMARK  status: ('A' for Active; 'I' for Inactive)
REMARK    1  A    between atoms: C_1  and  C_2
REMARK    2  A    between atoms: C_2  and  C_4
REMARK    3  A    between atoms: C_2  and  N_18
REMARK    4  A    between atoms: N_6  and  C_7
REMARK    5  A    between atoms: C_7  and  C_8
REMARK    6  A    between atoms: C_8  and  C_9
REMARK    7  A    between atoms: C_25  and  C_27
REMARK                            x       y       z     vdW  Elec       q    Type
REMARK                         _______ _______ _______ _____ _____    ______ ____
ROOT
ATOM      1  C   UNL     1      -0.019   1.526   0.010  0.00  0.00    +0.042 C 
ATOM      2  C   UNL     1       0.002  -0.004   0.002  0.00  0.00    +0.190 C 
ENDROOT
BRANCH   2   3
ATOM      3  N   UNL     1       0.711  -0.489   1.189  0.00  0.00    -0.251 N 
ATOM      4  C   UNL     1       0.174  -1.298   2.158  0.00  0.00    +0.070 A 
ATOM      5  C   UNL     1      -1.079  -1.879   2.342  0.00  0.00    +0.029 A 
ATOM      6  C   UNL     1      -1.313  -2.657   3.439  0.00  0.00    +0.022 A 
ATOM      7  C   UNL     1      -0.315  -2.880   4.380  0.00  0.00    +0.042 A 
ATOM      8  C   UNL     1       0.923  -2.322   4.225  0.00  0.00    +0.032 A 
ATOM      9  C   UNL     1       1.186  -1.523   3.109  0.00  0.00    +0.029 A 
ATOM     10  C   UNL     1       2.365  -0.789   2.638  0.00  0.00    +0.100 A 
ATOM     11  N   UNL     1       2.042  -0.206   1.509  0.00  0.00    -0.169 NA
ATOM     12 CL   UNL     1      -0.643  -3.874   5.765  0.00  0.00    -0.084 Cl
BRANCH  10  13
ATOM     13  C   UNL     1       3.684  -0.725   3.311  0.00  0.00    +0.003 A 
ATOM     14  C   UNL     1       3.759  -0.722   4.703  0.00  0.00    +0.010 A 
ATOM     15  C   UNL     1       4.990  -0.662   5.325  0.00  0.00    +0.001 A 
ATOM     16  C   UNL     1       6.147  -0.604   4.570  0.00  0.00    +0.000 A 
ATOM     17  C   UNL     1       6.079  -0.606   3.188  0.00  0.00    +0.001 A 
ATOM     18  C   UNL     1       4.854  -0.672   2.555  0.00  0.00    +0.010 A 
ENDBRANCH  10  13
ENDBRANCH   2   3
BRANCH   2  19
ATOM     19  C   UNL     1       0.707  -0.490  -1.238  0.00  0.00    +0.237 C 
ATOM     20  O   UNL     1       1.704  -1.174  -1.140  0.00  0.00    -0.273 OA
ATOM     21  N   UNL     1       0.231  -0.164  -2.456  0.00  0.00    -0.313 N 
ATOM     22  H   UNL     1      -0.566   0.383  -2.534  0.00  0.00    +0.149 HD
BRANCH  21  23
ATOM     23  C   UNL     1       0.917  -0.637  -3.661  0.00  0.00    +0.108 C 
BRANCH  23  24
ATOM     24  C   UNL     1       0.177  -0.130  -4.901  0.00  0.00    +0.052 C 
BRANCH  24  25
ATOM     25  C   UNL     1       0.882  -0.616  -6.141  0.00  0.00    -0.040 C 
ATOM     26  C   UNL     1       0.586  -1.719  -6.865  0.00  0.00    -0.001 A 
ATOM     27  C   UNL     1      -0.442  -2.757  -6.721  0.00  0.00    +0.010 A 
ATOM     28  C   UNL     1      -0.490  -3.762  -7.624  0.00  0.00    +0.001 A 
ATOM     29  C   UNL     1       0.414  -3.837  -8.692  0.00  0.00    +0.002 A 
ATOM     30  C   UNL     1       1.386  -2.921  -8.891  0.00  0.00    +0.026 A 
ATOM     31  C   UNL     1       1.529  -1.821  -8.002  0.00  0.00    +0.043 A 
ATOM     32  N   UNL     1       2.375  -0.820  -7.981  0.00  0.00    -0.380 N 
ATOM     33  C   UNL     1       2.060   0.035  -6.830  0.00  0.00    +0.144 C 
ATOM     34  H   UNL     1       3.088  -0.668  -8.621  0.00  0.00    +0.160 HD
ENDBRANCH  24  25
ENDBRANCH  23  24
ENDBRANCH  21  23
ENDBRANCH   2  19
TORSDOF 6
