REMARK  Name = ZINC14377713
REMARK  11 active torsions:
REMARK  status: ('A' for Active; 'I' for Inactive)
REMARK    1  A    between atoms: C_1  and  C_2
REMARK    2  A    between atoms: C_2  and  C_3
REMARK    3  A    between atoms: C_2  and  O_4
REMARK    4  A    between atoms: O_4  and  C_5
REMARK    5  A    between atoms: C_5  and  C_7
REMARK    6  A    between atoms: C_7  and  C_8
REMARK    7  A    between atoms: C_8  and  C_10
REMARK    8  A    between atoms: C_8  and  N_19
REMARK    9  A    between atoms: C_15  and  N_16
REMARK   10  A    between atoms: C_20  and  C_22
REMARK   11  A    between atoms: N_27  and  C_29
REMARK                            x       y       z     vdW  Elec       q    Type
REMARK                         _______ _______ _______ _____ _____    ______ ____
ROOT
ATOM      1  N   UNL     1       0.774  -0.741   1.051  0.00  0.00    -0.308 N 
ATOM      2  C   UNL     1       0.294  -0.120  -0.045  0.00  0.00    +0.219 C 
ATOM      3  O   UNL     1      -0.172  -0.771  -0.956  0.00  0.00    -0.275 OA
ATOM      4  H   UNL     1       1.147  -0.220   1.779  0.00  0.00    +0.149 HD
ENDROOT
BRANCH   2   5
ATOM      5  C   UNL     1       0.335   1.383  -0.138  0.00  0.00    +0.101 C 
ATOM      6  C   UNL     1      -0.562   2.030   0.944  0.00  0.00    +0.110 C 
ATOM      7  C   UNL     1      -1.169   3.232   0.253  0.00  0.00    +0.221 C 
ATOM      8  O   UNL     1      -1.707   4.159   0.819  0.00  0.00    -0.275 OA
ATOM      9  N   UNL     1      -1.023   3.122  -1.079  0.00  0.00    -0.271 N 
ATOM     10  C   UNL     1      -0.336   1.875  -1.439  0.00  0.00    +0.127 C 
BRANCH   9  11
ATOM     11  C   UNL     1      -1.469   4.074  -2.004  0.00  0.00    +0.040 A 
ATOM     12  C   UNL     1      -1.374   3.818  -3.366  0.00  0.00    +0.027 A 
ATOM     13  C   UNL     1      -1.817   4.755  -4.278  0.00  0.00    +0.051 A 
ATOM     14  C   UNL     1      -2.348   5.960  -3.838  0.00  0.00    +0.162 A 
ATOM     15  C   UNL     1      -2.441   6.220  -2.477  0.00  0.00    +0.164 A 
ATOM     16  C   UNL     1      -2.000   5.277  -1.561  0.00  0.00    +0.073 A 
ATOM     17  O   UNL     1      -2.966   7.392  -2.026  0.00  0.00    -0.485 OA
ATOM     18  C   UNL     1      -3.055   8.464  -2.971  0.00  0.00    +0.270 C 
ATOM     19  C   UNL     1      -3.642   7.907  -4.276  0.00  0.00    +0.270 C 
ATOM     20  O   UNL     1      -2.771   6.875  -4.753  0.00  0.00    -0.485 OA
ENDBRANCH   9  11
ENDBRANCH   2   5
BRANCH   1  21
ATOM     21  C   UNL     1       0.734  -2.203   1.141  0.00  0.00    +0.116 C 
BRANCH  21  22
ATOM     22  C   UNL     1       1.947  -2.781   0.458  0.00  0.00    +0.003 A 
ATOM     23  C   UNL     1       3.055  -1.988   0.228  0.00  0.00    +0.008 A 
ATOM     24  C   UNL     1       4.168  -2.520  -0.395  0.00  0.00    +0.000 A 
ATOM     25  C   UNL     1       4.170  -3.843  -0.795  0.00  0.00    +0.002 A 
ATOM     26  C   UNL     1       3.060  -4.635  -0.569  0.00  0.00    +0.033 A 
ATOM     27  C   UNL     1       1.948  -4.104   0.057  0.00  0.00    +0.131 A 
BRANCH  27  28
ATOM     28  N   UNL     1       0.759  -4.952   0.298  0.00  0.00    +0.057 N 
ATOM     29  O   UNL     1       0.793  -6.139   0.028  0.00  0.00    -0.126 OA
ATOM     30  O   UNL     1      -0.253  -4.463   0.767  0.00  0.00    -0.126 OA
ENDBRANCH  27  28
ENDBRANCH  21  22
BRANCH  21  31
ATOM     31  C   UNL     1       0.728  -2.623   2.612  0.00  0.00    +0.147 C 
BRANCH  31  32
ATOM     32  C   UNL     1      -0.544  -2.148   3.265  0.00  0.00    +0.309 C 
ATOM     33  O   UNL     1      -1.362  -1.536   2.620  0.00  0.00    -0.251 OA
BRANCH  32  34
ATOM     34  O   UNL     1      -0.769  -2.404   4.564  0.00  0.00    -0.462 OA
BRANCH  34  36
ATOM     35  C   UNL     1      -2.464  -2.847   6.255  0.00  0.00    +0.052 C 
ATOM     36  C   UNL     1      -2.015  -1.917   5.126  0.00  0.00    +0.170 C 
ATOM     37  C   UNL     1      -1.808  -0.506   5.680  0.00  0.00    +0.052 C 
ENDBRANCH  34  36
ENDBRANCH  32  34
ENDBRANCH  31  32
ENDBRANCH  21  31
ENDBRANCH   1  21
TORSDOF 9
