REMARK  Name = ZINC45513223
REMARK  8 active torsions:
REMARK  status: ('A' for Active; 'I' for Inactive)
REMARK    1  A    between atoms: C_1  and  C_2
REMARK    2  A    between atoms: C_2  and  C_3
REMARK    3  A    between atoms: C_7  and  C_30
REMARK    4  A    between atoms: C_8  and  N_9
REMARK    5  A    between atoms: C_10  and  C_12
REMARK    6  A    between atoms: C_12  and  N_13
REMARK    7  A    between atoms: C_16  and  N_19
REMARK    8  A    between atoms: C_30  and  C_31
REMARK                            x       y       z     vdW  Elec       q    Type
REMARK                         _______ _______ _______ _____ _____    ______ ____
ROOT
ATOM      1  N   UNL     1      -0.194   4.391   5.370  0.00  0.00    +0.386 N 
ATOM      2  C   UNL     1      -0.202   3.566   6.584  0.00  0.00    -0.076 C 
ATOM      3  C   UNL     1      -1.402   3.946   7.455  0.00  0.00    +0.006 C 
ATOM      4  C   UNL     1      -1.298   5.424   7.841  0.00  0.00    +0.089 C 
ATOM      5  C   UNL     1      -1.216   6.269   6.567  0.00  0.00    +0.006 C 
ATOM      6  C   UNL     1      -0.023   5.804   5.729  0.00  0.00    -0.076 C 
ATOM      7  H   UNL     1      -1.068   4.273   4.880  0.00  0.00    -0.081 HD
ENDROOT
BRANCH   4   8
ATOM      8  N   UNL     1      -2.482   5.813   8.611  0.00  0.00    -0.289 N 
ATOM      9  C   UNL     1      -2.481   6.312   9.912  0.00  0.00    +0.070 A 
ATOM     10  C   UNL     1      -1.474   6.582  10.826  0.00  0.00    +0.028 A 
ATOM     11  C   UNL     1      -1.793   7.085  12.072  0.00  0.00    +0.002 A 
ATOM     12  C   UNL     1      -3.115   7.320  12.412  0.00  0.00    +0.002 A 
ATOM     13  C   UNL     1      -4.124   7.053  11.508  0.00  0.00    +0.028 A 
ATOM     14  C   UNL     1      -3.813   6.549  10.255  0.00  0.00    +0.067 A 
ATOM     15  N   UNL     1      -4.583   6.187   9.152  0.00  0.00    -0.306 N 
ATOM     16  H   UNL     1      -5.550   6.240   9.092  0.00  0.00    +0.170 HD
ATOM     17  C   UNL     1      -3.756   5.755   8.181  0.00  0.00    +0.328 A 
ATOM     18  O   UNL     1      -4.108   5.368   7.082  0.00  0.00    -0.247 OA
ENDBRANCH   4   8
BRANCH   1  19
ATOM     19  C   UNL     1       0.913   3.971   4.501  0.00  0.00    +0.019 C 
BRANCH  19  21
ATOM     20  N   UNL     1       1.568   1.959   3.219  0.00  0.00    -0.287 N 
ATOM     21  C   UNL     1       0.676   2.558   4.032  0.00  0.00    +0.201 C 
ATOM     22  O   UNL     1      -0.319   1.961   4.387  0.00  0.00    -0.278 OA
ATOM     23  H   UNL     1       2.402   2.404   3.003  0.00  0.00    +0.155 HD
BRANCH  20  29
ATOM     24  C   UNL     1       0.924   0.568   1.352  0.00  0.00    -0.026 A 
ATOM     25  C   UNL     1       0.657  -0.681   0.828  0.00  0.00    +0.005 A 
ATOM     26  C   UNL     1       0.747  -1.804   1.630  0.00  0.00    +0.001 A 
ATOM     27  C   UNL     1       1.105  -1.680   2.960  0.00  0.00    +0.005 A 
ATOM     28  C   UNL     1       1.374  -0.433   3.491  0.00  0.00    -0.026 A 
ATOM     29  C   UNL     1       1.290   0.695   2.686  0.00  0.00    +0.040 A 
BRANCH  24  31
ATOM     30  C   UNL     1       2.208   2.127  -0.087  0.00  0.00    +0.009 C 
ATOM     31  C   UNL     1       0.826   1.790   0.477  0.00  0.00    +0.033 C 
ENDBRANCH  24  31
BRANCH  28  32
ATOM     32  C   UNL     1       1.764  -0.299   4.940  0.00  0.00    +0.033 C 
ATOM     33  C   UNL     1       1.678  -1.666   5.621  0.00  0.00    +0.009 C 
ENDBRANCH  28  32
ENDBRANCH  20  29
ENDBRANCH  19  21
ENDBRANCH   1  19
TORSDOF 6
