REMARK  Name = ZINC04577023
REMARK  6 active torsions:
REMARK  status: ('A' for Active; 'I' for Inactive)
REMARK    1  A    between atoms: C_1  and  O_2
REMARK    2  A    between atoms: O_2  and  C_3
REMARK    3  A    between atoms: C_3  and  C_5
REMARK    4  A    between atoms: C_9  and  N_10
REMARK    5  A    between atoms: C_11  and  C_13
REMARK    6  A    between atoms: C_16  and  N_20
REMARK                            x       y       z     vdW  Elec       q    Type
REMARK                         _______ _______ _______ _____ _____    ______ ____
ROOT
ATOM      1  N   UNL     1      -0.011   0.966   0.007  0.00  0.00    -0.275 N 
ATOM      2  C   UNL     1      -1.187   1.624   0.017  0.00  0.00    +0.250 C 
ATOM      3  O   UNL     1      -1.204   2.839   0.023  0.00  0.00    -0.270 OA
ATOM      4  H   UNL     1       0.002  -0.004   0.002  0.00  0.00    +0.156 HD
ENDROOT
BRANCH   1   9
ATOM      5  C   UNL     1       2.477   1.181  -0.010  0.00  0.00    +0.091 A 
ATOM      6  C   UNL     1       3.562   2.148  -0.021  0.00  0.00    -0.021 A 
ATOM      7  C   UNL     1       3.179   3.443  -0.009  0.00  0.00    -0.004 A 
ATOM      8  S   UNL     1       1.409   3.392   0.007  0.00  0.00    -0.077 S 
ATOM      9  C   UNL     1       1.179   1.675  -0.000  0.00  0.00    +0.087 A 
ATOM     10  C   UNL     1       4.068   4.649  -0.011  0.00  0.00    +0.043 C 
ATOM     11  C   UNL     1       5.491   4.200   0.351  0.00  0.00    +0.005 C 
ATOM     12  C   UNL     1       5.853   2.977  -0.496  0.00  0.00    +0.005 C 
ATOM     13  C   UNL     1       5.037   1.767  -0.038  0.00  0.00    +0.037 C 
BRANCH   5  14
ATOM     14  C   UNL     1       2.743  -0.259  -0.012  0.00  0.00    +0.342 C 
ATOM     15  O   UNL     1       2.846  -0.856  -1.067  0.00  0.00    -0.245 OA
BRANCH  14  17
ATOM     16  C   UNL     1       3.136  -2.348   1.077  0.00  0.00    +0.280 C 
ATOM     17  O   UNL     1       2.873  -0.922   1.155  0.00  0.00    -0.464 OA
ENDBRANCH  14  17
ENDBRANCH   5  14
ENDBRANCH   1   9
BRANCH   2  18
ATOM     18  C   UNL     1      -2.456   0.868   0.018  0.00  0.00    +0.055 A 
ATOM     19  C   UNL     1      -2.441  -0.528   0.011  0.00  0.00    +0.017 A 
ATOM     20  C   UNL     1      -3.630  -1.228   0.013  0.00  0.00    +0.033 A 
ATOM     21  C   UNL     1      -4.836  -0.550   0.023  0.00  0.00    +0.128 A 
ATOM     22  C   UNL     1      -4.860   0.833   0.031  0.00  0.00    +0.053 A 
ATOM     23  C   UNL     1      -3.678   1.547   0.034  0.00  0.00    +0.055 A 
ATOM     24 CL   UNL     1      -3.709   3.282   0.050  0.00  0.00    -0.083 Cl
BRANCH  21  25
ATOM     25  N   UNL     1      -6.107  -1.308   0.026  0.00  0.00    +0.056 N 
ATOM     26  O   UNL     1      -6.090  -2.526   0.020  0.00  0.00    -0.126 OA
ATOM     27  O   UNL     1      -7.171  -0.715   0.035  0.00  0.00    -0.126 OA
ENDBRANCH  21  25
ENDBRANCH   2  18
TORSDOF 5
