REMARK  Name = ZINC09234055
REMARK  4 active torsions:
REMARK  status: ('A' for Active; 'I' for Inactive)
REMARK    1  A    between atoms: C_3  and  C_10
REMARK    2  A    between atoms: C_5  and  N_7
REMARK    3  A    between atoms: C_18  and  C_20
REMARK    4  A    between atoms: C_20  and  C_22
REMARK                            x       y       z     vdW  Elec       q    Type
REMARK                         _______ _______ _______ _____ _____    ______ ____
ROOT
ATOM      1  C   UNL     1       3.125  -3.074  -1.490  0.00  0.00    +0.016 C 
ATOM      2  C   UNL     1       2.129  -4.204  -1.178  0.00  0.00    -0.047 C 
ATOM      3  C   UNL     1       2.439  -5.421  -2.081  0.00  0.00    +0.052 C 
ATOM      4  S   UNL     1       2.064  -6.795  -0.903  0.00  0.00    -0.181 S 
ATOM      5  C   UNL     1       2.517  -5.881   0.636  0.00  0.00    -0.005 C 
ATOM      6  C   UNL     1       3.151  -3.563   0.878  0.00  0.00    +0.052 C 
ATOM      7  C   UNL     1       3.405  -2.424  -0.117  0.00  0.00    +0.069 C 
ATOM      8  C   UNL     1       2.633  -3.032   2.187  0.00  0.00    -0.024 A 
ATOM      9  C   UNL     1       1.515  -2.307   2.536  0.00  0.00    +0.043 A 
ATOM     10  C   UNL     1       1.302  -1.956   3.859  0.00  0.00    +0.124 A 
ATOM     11  C   UNL     1       2.217  -2.337   4.827  0.00  0.00    +0.040 A 
ATOM     12  C   UNL     1       3.337  -3.063   4.480  0.00  0.00    +0.026 A 
ATOM     13  C   UNL     1       3.558  -3.419   3.151  0.00  0.00    +0.036 A 
ATOM     14  N   UNL     1       4.599  -4.138   2.560  0.00  0.00    -0.286 N 
ATOM     15  C   UNL     1       4.436  -4.267   1.230  0.00  0.00    +0.212 C 
ATOM     16  O   UNL     1       5.181  -4.839   0.462  0.00  0.00    -0.277 OA
ATOM     17  F   UNL     1       0.206  -1.245   4.204  0.00  0.00    -0.205 F 
ATOM     18  H   UNL     1       5.353  -4.503   3.051  0.00  0.00    +0.155 HD
ATOM     19  N   UNL     1       2.166  -4.452   0.287  0.00  0.00    +0.401 N 
ATOM     20  H   UNL     1       1.240  -4.241   0.678  0.00  0.00    -0.078 HD
ENDROOT
BRANCH   1  23
ATOM     21  C   UNL     1       0.569  -0.990  -3.329  0.00  0.00    +0.002 A 
ATOM     22  C   UNL     1       1.136  -1.909  -2.465  0.00  0.00    +0.004 A 
ATOM     23  C   UNL     1       2.508  -2.073  -2.432  0.00  0.00    -0.043 A 
ATOM     24  C   UNL     1       3.314  -1.313  -3.259  0.00  0.00    +0.036 A 
ATOM     25  C   UNL     1       2.748  -0.397  -4.125  0.00  0.00    +0.126 A 
ATOM     26  C   UNL     1       1.375  -0.235  -4.159  0.00  0.00    +0.033 A 
BRANCH  25  27
ATOM     27  N   UNL     1       3.611   0.412  -5.015  0.00  0.00    +0.056 N 
ATOM     28  O   UNL     1       3.112   1.221  -5.776  0.00  0.00    -0.126 OA
ATOM     29  O   UNL     1       4.821   0.269  -4.985  0.00  0.00    -0.126 OA
ENDBRANCH  25  27
ENDBRANCH   1  23
BRANCH   7  30
ATOM     30  C   UNL     1       2.456  -1.280   0.133  0.00  0.00    +0.168 C 
ATOM     31  O   UNL     1       1.277  -1.404  -0.124  0.00  0.00    -0.292 OA
BRANCH  30  32
ATOM     32  C   UNL     1       2.959  -0.014   0.688  0.00  0.00    +0.036 A 
ATOM     33  C   UNL     1       2.086   1.059   0.925  0.00  0.00    +0.014 A 
ATOM     34  C   UNL     1       2.610   2.227   1.448  0.00  0.00    +0.020 A 
ATOM     35  C   UNL     1       3.965   2.300   1.719  0.00  0.00    +0.111 A 
ATOM     36  N   UNL     1       4.764   1.275   1.487  0.00  0.00    -0.263 NA
ATOM     37  C   UNL     1       4.315   0.142   0.989  0.00  0.00    +0.122 A 
ENDBRANCH  30  32
ENDBRANCH   7  30
TORSDOF 4
