REMARK  Name = ZINC65538600
REMARK  5 active torsions:
REMARK  status: ('A' for Active; 'I' for Inactive)
REMARK    1  A    between atoms: C_1  and  C_2
REMARK    2  A    between atoms: C_4  and  C_25
REMARK    3  A    between atoms: C_9  and  C_10
REMARK    4  A    between atoms: C_10  and  N_11
REMARK    5  A    between atoms: C_18  and  C_20
REMARK                            x       y       z     vdW  Elec       q    Type
REMARK                         _______ _______ _______ _____ _____    ______ ____
ROOT
ATOM      1  N   UNL     1      -1.843   0.305   2.664  0.00  0.00    -0.295 N 
ATOM      2  C   UNL     1      -1.896   0.866   3.889  0.00  0.00    +0.303 C 
ATOM      3  O   UNL     1      -0.886   1.313   4.397  0.00  0.00    -0.253 OA
ATOM      4  N   UNL     1      -3.068   0.930   4.550  0.00  0.00    -0.282 N 
ATOM      5  C   UNL     1      -4.379   0.517   4.017  0.00  0.00    +0.110 C 
ATOM      6  C   UNL     1      -5.232   0.195   5.269  0.00  0.00    +0.021 C 
ATOM      7  C   UNL     1      -4.750   1.284   6.263  0.00  0.00    +0.024 C 
ATOM      8  C   UNL     1      -3.251   1.419   5.925  0.00  0.00    +0.081 C 
ATOM      9  H   UNL     1      -2.648  -0.052   2.259  0.00  0.00    +0.151 HD
ENDROOT
BRANCH   8  10
ATOM     10  C   UNL     1      -2.830   2.887   6.015  0.00  0.00    +0.010 C 
ATOM     11  C   UNL     1      -3.081   3.422   7.441  0.00  0.00    +0.005 C 
ATOM     12  C   UNL     1      -3.556   4.880   7.221  0.00  0.00    +0.000 C 
ATOM     13  C   UNL     1      -4.434   4.766   5.950  0.00  0.00    +0.000 C 
ATOM     14  C   UNL     1      -3.690   3.742   5.068  0.00  0.00    +0.005 C 
ENDBRANCH   8  10
BRANCH   1  15
ATOM     15  C   UNL     1      -0.568   0.235   1.946  0.00  0.00    +0.146 C 
BRANCH  15  24
ATOM     16  C   UNL     1      -1.022   1.822  -0.423  0.00  0.00    +0.044 C 
ATOM     17  C   UNL     1      -0.994   0.318  -0.508  0.00  0.00    -0.039 A 
ATOM     18  C   UNL     1      -1.183  -0.326  -1.739  0.00  0.00    +0.024 A 
ATOM     19  C   UNL     1      -1.157  -1.678  -1.805  0.00  0.00    +0.016 A 
ATOM     20  N   UNL     1      -0.949  -2.423  -0.689  0.00  0.00    -0.326 N 
ATOM     21  H   UNL     1      -0.932  -3.390  -0.755  0.00  0.00    +0.169 HD
ATOM     22  C   UNL     1      -0.763  -1.833   0.507  0.00  0.00    +0.254 A 
ATOM     23  O   UNL     1      -0.576  -2.517   1.502  0.00  0.00    -0.268 OA
ATOM     24  C   UNL     1      -0.780  -0.432   0.611  0.00  0.00    +0.037 A 
ATOM     25  C   UNL     1      -1.362  -2.363  -3.131  0.00  0.00    +0.063 C 
ENDBRANCH  15  24
ENDBRANCH   1  15
TORSDOF 3
