REMARK  Name = ZINC35738205
REMARK  7 active torsions:
REMARK  status: ('A' for Active; 'I' for Inactive)
REMARK    1  A    between atoms: C_1  and  C_2
REMARK    2  A    between atoms: C_4  and  C_14
REMARK    3  A    between atoms: C_5  and  C_13
REMARK    4  A    between atoms: N_6  and  C_7
REMARK    5  A    between atoms: N_10  and  C_12
REMARK    6  A    between atoms: C_14  and  C_16
REMARK    7  A    between atoms: C_16  and  C_18
REMARK                            x       y       z     vdW  Elec       q    Type
REMARK                         _______ _______ _______ _____ _____    ______ ____
ROOT
ATOM      1  C   UNL     1      -0.018   1.503   0.010  0.00  0.00    +0.064 C 
ATOM      2  C   UNL     1       0.002  -0.004   0.002  0.00  0.00    +0.022 A 
ATOM      3  C   UNL     1       0.008  -0.777  -1.097  0.00  0.00    +0.034 A 
ATOM      4  C   UNL     1       0.030  -2.168  -0.626  0.00  0.00    +0.040 A 
ATOM      5  C   UNL     1       0.035  -2.099   0.756  0.00  0.00    +0.032 A 
ATOM      6  N   UNL     1       0.023  -0.802   1.111  0.00  0.00    -0.314 N 
ATOM      7  C   UNL     1       0.056  -3.275   1.699  0.00  0.00    +0.064 C 
ENDROOT
BRANCH   6   8
ATOM      8  C   UNL     1       0.030  -0.332   2.438  0.00  0.00    +0.084 A 
ATOM      9  C   UNL     1       1.071  -0.488   3.365  0.00  0.00    +0.160 A 
ATOM     10  N   UNL     1       0.708   0.080   4.486  0.00  0.00    -0.178 NA
ATOM     11  N   UNL     1      -0.574   0.617   4.314  0.00  0.00    -0.272 N 
ATOM     12  C   UNL     1      -0.969   0.358   3.047  0.00  0.00    +0.134 A 
ATOM     13  C   UNL     1      -1.349   1.339   5.326  0.00  0.00    +0.172 C 
ENDBRANCH   6   8
BRANCH   4  14
ATOM     14  C   UNL     1       0.043  -3.378  -1.449  0.00  0.00    +0.182 C 
ATOM     15  O   UNL     1       0.060  -4.471  -0.922  0.00  0.00    -0.290 OA
BRANCH  14  16
ATOM     16  C   UNL     1       0.035  -3.268  -2.952  0.00  0.00    +0.148 C 
ATOM     17  C   UNL     1      -1.406  -3.124  -3.446  0.00  0.00    +0.033 C 
ATOM     18 CL   UNL     1       0.988  -1.821  -3.453  0.00  0.00    -0.114 Cl
ENDBRANCH  14  16
ENDBRANCH   4  14
TORSDOF 3
