REMARK  Name = ZINC44270344
REMARK  7 active torsions:
REMARK  status: ('A' for Active; 'I' for Inactive)
REMARK    1  A    between atoms: C_4  and  N_13
REMARK    2  A    between atoms: C_5  and  C_7
REMARK    3  A    between atoms: C_7  and  N_8
REMARK    4  A    between atoms: N_16  and  C_17
REMARK    5  A    between atoms: C_17  and  C_18
REMARK    6  A    between atoms: C_18  and  C_20
REMARK    7  A    between atoms: C_18  and  N_25
REMARK                            x       y       z     vdW  Elec       q    Type
REMARK                         _______ _______ _______ _____ _____    ______ ____
ROOT
ATOM      1  N   UNL     1       3.689  -0.703   0.375  0.00  0.00    -0.269 N 
ATOM      2  C   UNL     1       4.817  -0.002   0.145  0.00  0.00    +0.304 C 
ATOM      3  O   UNL     1       4.784   1.213   0.123  0.00  0.00    -0.253 OA
ATOM      4  N   UNL     1       5.982  -0.648  -0.059  0.00  0.00    -0.300 N 
ATOM      5  H   UNL     1       3.728  -1.668   0.463  0.00  0.00    +0.156 HD
ATOM      6  H   UNL     1       6.009  -1.617  -0.042  0.00  0.00    +0.150 HD
ENDROOT
BRANCH   1  10
ATOM      7  C   UNL     1       0.037   1.276   0.703  0.00  0.00    +0.000 A 
ATOM      8  C   UNL     1       1.196   1.887   1.147  0.00  0.00    +0.002 A 
ATOM      9  C   UNL     1       2.408   1.234   1.039  0.00  0.00    +0.024 A 
ATOM     10  C   UNL     1       2.462  -0.038   0.485  0.00  0.00    +0.040 A 
ATOM     11  C   UNL     1       1.298  -0.650   0.041  0.00  0.00    -0.005 A 
ATOM     12  C   UNL     1       0.088   0.009   0.151  0.00  0.00    +0.007 A 
BRANCH  11  13
ATOM     13  C   UNL     1       1.353  -2.030  -0.561  0.00  0.00    +0.180 C 
BRANCH  13  14
ATOM     14  N   UNL     1       1.303  -3.031   0.507  0.00  0.00    -0.267 N 
ATOM     15  C   UNL     1       0.419  -4.046   0.603  0.00  0.00    +0.108 A 
ATOM     16  C   UNL     1       0.709  -4.740   1.728  0.00  0.00    +0.041 A 
ATOM     17  C   UNL     1       1.808  -4.129   2.340  0.00  0.00    +0.134 A 
ATOM     18  N   UNL     1       2.169  -3.108   1.605  0.00  0.00    -0.179 NA
ENDBRANCH  13  14
ENDBRANCH  11  13
ENDBRANCH   1  10
BRANCH   4  19
ATOM     19  C   UNL     1       7.208   0.114  -0.309  0.00  0.00    +0.098 C 
BRANCH  19  20
ATOM     20  C   UNL     1       8.353  -0.850  -0.624  0.00  0.00    +0.016 C 
BRANCH  20  21
ATOM     21  N   UNL     1       8.475  -1.837   0.458  0.00  0.00    +0.387 N 
ATOM     22  C   UNL     1       8.627  -1.138   1.740  0.00  0.00    -0.078 C 
ATOM     23  C   UNL     1       8.673  -2.159   2.879  0.00  0.00    -0.019 C 
ATOM     24  C   UNL     1       9.861  -3.102   2.665  0.00  0.00    -0.004 C 
ATOM     25  C   UNL     1       9.730  -3.769   1.292  0.00  0.00    -0.019 C 
ATOM     26  C   UNL     1       9.645  -2.688   0.212  0.00  0.00    -0.078 C 
ATOM     27  H   UNL     1       7.644  -2.409   0.485  0.00  0.00    -0.081 HD
ENDBRANCH  20  21
BRANCH  20  28
ATOM     28  C   UNL     1       9.641  -0.078  -0.747  0.00  0.00    +0.093 A 
ATOM     29  C   UNL     1      10.205   0.333  -1.897  0.00  0.00    +0.043 A 
ATOM     30  C   UNL     1      11.394   1.015  -1.549  0.00  0.00    +0.041 A 
ATOM     31  C   UNL     1      11.485   0.979  -0.208  0.00  0.00    +0.195 A 
ATOM     32  O   UNL     1      10.418   0.321   0.273  0.00  0.00    -0.469 OA
ENDBRANCH  20  28
ENDBRANCH  19  20
ENDBRANCH   4  19
TORSDOF 7
