REMARK  Name = ZINC44564284
REMARK  14 active torsions:
REMARK  status: ('A' for Active; 'I' for Inactive)
REMARK    1  A    between atoms: C_1  and  C_2
REMARK    2  A    between atoms: C_2  and  C_4
REMARK    3  A    between atoms: C_2  and  C_12
REMARK    4  A    between atoms: C_5  and  C_6
REMARK    5  A    between atoms: C_6  and  C_8
REMARK    6  A    between atoms: C_6  and  C_9
REMARK    7  A    between atoms: C_9  and  C_10
REMARK    8  A    between atoms: C_9  and  C_11
REMARK    9  A    between atoms: C_18  and  C_37
REMARK   10  A    between atoms: C_22  and  C_23
REMARK   11  A    between atoms: C_22  and  O_36
REMARK   12  A    between atoms: C_23  and  C_25
REMARK   13  A    between atoms: C_23  and  O_35
REMARK   14  A    between atoms: C_28  and  O_34
REMARK                            x       y       z     vdW  Elec       q    Type
REMARK                         _______ _______ _______ _____ _____    ______ ____
ROOT
ATOM      1  C   UNL     1      -0.771   0.621   0.069  0.00  0.00    +0.002 C 
ATOM      2  C   UNL     1      -1.590   1.067  -1.157  0.00  0.00    +0.005 C 
ATOM      3  C   UNL     1      -2.343  -0.184  -1.664  0.00  0.00    +0.007 C 
ATOM      4  C   UNL     1      -2.406  -1.093  -0.423  0.00  0.00    +0.030 C 
ATOM      5  C   UNL     1      -1.026  -0.902   0.233  0.00  0.00    -0.023 C 
ATOM      6  C   UNL     1       0.061  -1.617  -0.574  0.00  0.00    +0.007 C 
ATOM      7  C   UNL     1      -0.296  -3.086  -0.785  0.00  0.00    +0.003 C 
ATOM      8  C   UNL     1      -1.594  -3.159  -1.597  0.00  0.00    +0.038 C 
ATOM      9  C   UNL     1      -2.698  -2.532  -0.772  0.00  0.00    +0.099 C 
ATOM     10  C   UNL     1      -1.028  -1.327   1.703  0.00  0.00    +0.012 C 
ENDROOT
BRANCH   1  12
ATOM     11  C   UNL     1       0.933   2.368  -0.463  0.00  0.00    +0.012 C 
ATOM     12  C   UNL     1       0.717   0.882  -0.169  0.00  0.00    +0.012 C 
BRANCH  12  13
ATOM     13  C   UNL     1       1.498   0.494   1.060  0.00  0.00    -0.027 C 
ATOM     14  C   UNL     1       2.505  -0.339   0.960  0.00  0.00    -0.027 C 
BRANCH  14  15
ATOM     15  C   UNL     1       3.286  -0.727   2.189  0.00  0.00    +0.011 C 
ATOM     16  C   UNL     1       3.198  -2.241   2.392  0.00  0.00    +0.012 C 
BRANCH  15  17
ATOM     17  C   UNL     1       4.750  -0.320   2.011  0.00  0.00    -0.011 C 
ATOM     18  C   UNL     1       4.838   1.194   1.808  0.00  0.00    +0.008 C 
ATOM     19  C   UNL     1       5.543  -0.715   3.259  0.00  0.00    +0.008 C 
ENDBRANCH  15  17
ENDBRANCH  14  15
ENDBRANCH  12  13
ENDBRANCH   1  12
BRANCH   9  20
ATOM     20  O   UNL     1      -2.862  -3.281   0.434  0.00  0.00    -0.385 OA
ATOM     21  H   UNL     1      -3.053  -4.218   0.292  0.00  0.00    +0.210 HD
ENDBRANCH   9  20
BRANCH   9  22
ATOM     22  C   UNL     1      -3.997  -2.597  -1.579  0.00  0.00    +0.169 C 
BRANCH  22  23
ATOM     23  C   UNL     1      -4.361  -4.038  -1.829  0.00  0.00    +0.010 C 
ATOM     24  C   UNL     1      -4.623  -4.452  -3.064  0.00  0.00    -0.044 C 
ATOM     25  C   UNL     1      -5.127  -5.854  -3.343  0.00  0.00    +0.066 C 
ATOM     26  C   UNL     1      -6.308  -5.758  -4.314  0.00  0.00    +0.119 C 
ATOM     27  C   UNL     1      -5.870  -5.051  -5.596  0.00  0.00    +0.036 C 
ATOM     28  C   UNL     1      -5.527  -3.589  -5.293  0.00  0.00    +0.037 C 
ATOM     29  C   UNL     1      -4.443  -3.561  -4.239  0.00  0.00    -0.051 C 
ATOM     30  C   UNL     1      -3.378  -2.777  -4.361  0.00  0.00    +0.012 C 
BRANCH  26  31
ATOM     31  O   UNL     1      -6.769  -7.073  -4.632  0.00  0.00    -0.391 OA
ATOM     32  H   UNL     1      -7.518  -7.090  -5.243  0.00  0.00    +0.210 HD
ENDBRANCH  26  31
ENDBRANCH  22  23
BRANCH  22  33
ATOM     33  O   UNL     1      -5.045  -1.961  -0.846  0.00  0.00    -0.385 OA
ATOM     34  H   UNL     1      -5.174  -2.316   0.045  0.00  0.00    +0.210 HD
ENDBRANCH  22  33
ENDBRANCH   9  22
TORSDOF 9
