REMARK  Name = ZINC21263926
REMARK  14 active torsions:
REMARK  status: ('A' for Active; 'I' for Inactive)
REMARK    1  A    between atoms: C_1  and  C_2
REMARK    2  A    between atoms: C_2  and  C_31
REMARK    3  A    between atoms: C_4  and  N_10
REMARK    4  A    between atoms: C_6  and  C_8
REMARK    5  A    between atoms: C_6  and  C_9
REMARK    6  A    between atoms: N_10  and  C_11
REMARK    7  A    between atoms: C_11  and  N_13
REMARK    8  A    between atoms: N_13  and  C_14
REMARK    9  A    between atoms: N_13  and  C_21
REMARK   10  A    between atoms: C_14  and  C_15
REMARK   11  A    between atoms: C_23  and  C_29
REMARK   12  A    between atoms: C_23  and  C_30
REMARK   13  A    between atoms: C_25  and  C_27
REMARK   14  A    between atoms: C_25  and  C_28
REMARK                            x       y       z     vdW  Elec       q    Type
REMARK                         _______ _______ _______ _____ _____    ______ ____
ROOT
ATOM      1  N   UNL     1       0.024   0.155   0.078  0.00  0.00    -0.305 N 
ENDROOT
BRANCH   1   2
ATOM      2  C   UNL     1       0.082  -0.376   1.446  0.00  0.00    +0.073 C 
ATOM      3  C   UNL     1       1.267  -1.333   1.565  0.00  0.00    +0.009 C 
ATOM      4  C   UNL     1       1.339  -1.917   2.974  0.00  0.00    -0.072 C 
ATOM      5  N   UNL     1       0.070  -2.445   3.432  0.00  0.00    +0.386 N 
ATOM      6  C   UNL     1      -1.160  -1.736   3.149  0.00  0.00    -0.072 C 
ATOM      7  C   UNL     1      -1.202  -1.152   1.739  0.00  0.00    +0.009 C 
ATOM      8  C   UNL     1      -1.404  -0.621   4.173  0.00  0.00    -0.010 C 
ATOM      9  C   UNL     1      -2.332  -2.735   3.274  0.00  0.00    -0.010 C 
ATOM     10  C   UNL     1       1.879  -0.857   3.941  0.00  0.00    -0.010 C 
ATOM     11  C   UNL     1       2.361  -3.074   2.947  0.00  0.00    -0.010 C 
ATOM     12  H   UNL     1      -0.092  -3.440   2.993  0.00  0.00    -0.084 HD
ATOM     13  H   UNL     1       0.082  -2.525   4.529  0.00  0.00    -0.084 HD
ENDBRANCH   1   2
BRANCH   1  14
ATOM     14  C   UNL     1       0.009  -0.690  -0.972  0.00  0.00    +0.134 C 
ATOM     15  S   UNL     1       0.072  -0.073  -2.568  0.00  0.00    -0.019 S 
BRANCH  14  16
ATOM     16  N   UNL     1      -0.057  -2.020  -0.766  0.00  0.00    -0.324 N 
ATOM     17  H   UNL     1      -0.182  -2.413   0.254  0.00  0.00    +0.148 HD
BRANCH  16  21
ATOM     18  C   UNL     1       1.864  -4.951  -3.436  0.00  0.00    -0.010 C 
ATOM     19  C   UNL     1       0.645  -5.286  -2.568  0.00  0.00    -0.072 C 
ATOM     20  C   UNL     1       0.556  -4.296  -1.409  0.00  0.00    +0.009 C 
ATOM     21  C   UNL     1       0.040  -2.945  -1.903  0.00  0.00    +0.069 C 
ATOM     22  C   UNL     1      -1.349  -3.146  -2.507  0.00  0.00    +0.009 C 
ATOM     23  C   UNL     1      -1.282  -4.121  -3.680  0.00  0.00    -0.072 C 
ATOM     24  N   UNL     1      -0.564  -5.338  -3.362  0.00  0.00    +0.386 N 
ATOM     25  C   UNL     1      -0.668  -3.418  -4.896  0.00  0.00    -0.010 C 
ATOM     26  C   UNL     1      -2.732  -4.500  -4.054  0.00  0.00    -0.010 C 
ATOM     27  C   UNL     1       0.886  -6.688  -1.964  0.00  0.00    -0.010 C 
ATOM     28  H   UNL     1      -0.338  -5.775  -4.346  0.00  0.00    -0.084 HD
ATOM     29  H   UNL     1      -1.314  -5.959  -2.849  0.00  0.00    -0.084 HD
ENDBRANCH  16  21
ENDBRANCH  14  16
ENDBRANCH   1  14
BRANCH   1  30
ATOM     30  C   UNL     1      -0.016   1.602  -0.145  0.00  0.00    +0.142 C 
BRANCH  30  31
ATOM     31  C   UNL     1       1.389   2.131  -0.269  0.00  0.00    -0.027 A 
ATOM     32  C   UNL     1       2.084   2.568   0.849  0.00  0.00    +0.025 A 
ATOM     33  C   UNL     1       3.373   3.042   0.697  0.00  0.00    +0.111 A 
ATOM     34  N   UNL     1       3.939   3.091  -0.493  0.00  0.00    -0.263 NA
ATOM     35  C   UNL     1       3.306   2.688  -1.578  0.00  0.00    +0.111 A 
ATOM     36  C   UNL     1       2.017   2.197  -1.504  0.00  0.00    +0.025 A 
ENDBRANCH  30  31
ENDBRANCH   1  30
TORSDOF 6
