REMARK  Name = ZINC20984850
REMARK  4 active torsions:
REMARK  status: ('A' for Active; 'I' for Inactive)
REMARK    1  A    between atoms: C_4  and  C_7
REMARK    2  A    between atoms: N_11  and  C_12
REMARK    3  A    between atoms: N_15  and  N_16
REMARK    4  A    between atoms: C_17  and  C_18
REMARK                            x       y       z     vdW  Elec       q    Type
REMARK                         _______ _______ _______ _____ _____    ______ ____
ROOT
ATOM      1  C   UNL     1       2.580   3.976  -0.023  0.00  0.00    +0.082 A 
ATOM      2  C   UNL     1       3.455   2.957  -0.144  0.00  0.00    +0.077 A 
ATOM      3  S   UNL     1       2.401   1.528   0.044  0.00  0.00    -0.056 S 
ATOM      4  C   UNL     1       0.851   2.388   0.264  0.00  0.00    +0.190 A 
ATOM      5  N   UNL     1      -0.347   1.898   0.455  0.00  0.00    -0.256 NA
ATOM      6  N   UNL     1       1.252   3.708   0.185  0.00  0.00    -0.208 N 
ENDROOT
BRANCH   1  10
ATOM      7  C   UNL     1       3.932   7.994  -0.285  0.00  0.00    +0.000 A 
ATOM      8  C   UNL     1       4.771   7.017   0.220  0.00  0.00    +0.001 A 
ATOM      9  C   UNL     1       4.338   5.710   0.308  0.00  0.00    +0.010 A 
ATOM     10  C   UNL     1       3.050   5.375  -0.114  0.00  0.00    +0.001 A 
ATOM     11  C   UNL     1       2.211   6.364  -0.629  0.00  0.00    +0.010 A 
ATOM     12  C   UNL     1       2.655   7.668  -0.706  0.00  0.00    +0.001 A 
ENDBRANCH   1  10
BRANCH   5  13
ATOM     13  C   UNL     1      -0.545   0.447   0.504  0.00  0.00    +0.108 C 
ATOM     14  C   UNL     1      -1.985  -0.069   0.524  0.00  0.00    +0.029 C 
ATOM     15  C   UNL     1      -1.128  -0.143   1.790  0.00  0.00    +0.029 C 
ENDBRANCH   5  13
BRANCH   6  16
ATOM     16  N   UNL     1       0.323   4.749   0.314  0.00  0.00    -0.170 NA
ATOM     17  C   UNL     1      -0.789   4.550   0.955  0.00  0.00    +0.161 C 
BRANCH  17  18
ATOM     18  C   UNL     1      -1.821   5.602   0.983  0.00  0.00    +0.084 A 
ATOM     19  C   UNL     1      -3.016   5.383   1.673  0.00  0.00    +0.029 A 
ATOM     20  C   UNL     1      -3.974   6.380   1.691  0.00  0.00    +0.004 A 
ATOM     21  C   UNL     1      -3.710   7.566   1.018  0.00  0.00    +0.020 A 
ATOM     22  C   UNL     1      -2.506   7.716   0.354  0.00  0.00    +0.111 A 
ATOM     23  N   UNL     1      -1.607   6.754   0.356  0.00  0.00    -0.254 NA
ENDBRANCH  17  18
ENDBRANCH   6  16
TORSDOF 4
