REMARK  Name = ZINC27570531
REMARK  9 active torsions:
REMARK  status: ('A' for Active; 'I' for Inactive)
REMARK    1  A    between atoms: C_1  and  C_2
REMARK    2  A    between atoms: C_5  and  C_30
REMARK    3  A    between atoms: C_6  and  O_8
REMARK    4  A    between atoms: O_8  and  C_9
REMARK    5  A    between atoms: C_9  and  C_10
REMARK    6  A    between atoms: C_10  and  N_11
REMARK    7  A    between atoms: C_13  and  C_20
REMARK    8  A    between atoms: C_30  and  C_31
REMARK    9  A    between atoms: C_30  and  C_32
REMARK                            x       y       z     vdW  Elec       q    Type
REMARK                         _______ _______ _______ _____ _____    ______ ____
ROOT
ATOM      1  N   UNL     1      -2.932   1.381   0.871  0.00  0.00    -0.343 N 
ATOM      2  C   UNL     1      -3.632   2.525   0.764  0.00  0.00    +0.095 A 
ATOM      3  C   UNL     1      -2.803   3.533   0.302  0.00  0.00    +0.001 A 
ATOM      4  C   UNL     1      -1.473   2.918   0.117  0.00  0.00    +0.007 A 
ATOM      5  C   UNL     1      -1.620   1.571   0.484  0.00  0.00    +0.050 A 
ATOM      6  C   UNL     1      -0.518   0.725   0.420  0.00  0.00    +0.026 A 
ATOM      7  C   UNL     1       0.699   1.209  -0.010  0.00  0.00    +0.002 A 
ATOM      8  C   UNL     1       0.839   2.539  -0.377  0.00  0.00    +0.001 A 
ATOM      9  C   UNL     1      -0.240   3.394  -0.316  0.00  0.00    +0.010 A 
ENDROOT
BRANCH   3  10
ATOM     10  C   UNL     1      -3.158   4.875   0.057  0.00  0.00    +0.028 C 
ATOM     11  C   UNL     1      -4.333   5.170  -0.621  0.00  0.00    +0.101 C 
ATOM     12  C   UNL     1      -5.128   4.117  -1.275  0.00  0.00    +0.276 C 
ATOM     13  O   UNL     1      -4.774   2.953  -1.239  0.00  0.00    -0.268 OA
ATOM     14  N   UNL     1      -6.263   4.476  -1.911  0.00  0.00    -0.123 NA
ATOM     15  C   UNL     1      -6.662   5.755  -1.963  0.00  0.00    +0.333 C 
ATOM     16  O   UNL     1      -7.691   6.013  -2.555  0.00  0.00    -0.250 OA
ATOM     17  N   UNL     1      -5.985   6.764  -1.396  0.00  0.00    -0.234 N 
ATOM     18  C   UNL     1      -4.836   6.551  -0.722  0.00  0.00    +0.257 C 
ATOM     19  O   UNL     1      -4.231   7.476  -0.212  0.00  0.00    -0.270 OA
ATOM     20  H   UNL     1      -6.365   7.793  -1.474  0.00  0.00    +0.159 HD
ENDBRANCH   3  10
BRANCH   1  21
ATOM     21  C   UNL     1      -3.487   0.105   1.331  0.00  0.00    +0.163 C 
BRANCH  21  22
ATOM     22  C   UNL     1      -3.224  -0.055   2.830  0.00  0.00    +0.250 C 
BRANCH  22  23
ATOM     23  O   UNL     1      -3.766  -1.299   3.278  0.00  0.00    -0.490 OA
BRANCH  23  29
ATOM     24  C   UNL     1      -2.101  -0.057   7.694  0.00  0.00    +0.044 C 
ATOM     25  C   UNL     1      -2.812  -1.019   6.777  0.00  0.00    -0.047 A 
ATOM     26  C   UNL     1      -3.313  -2.207   7.277  0.00  0.00    +0.004 A 
ATOM     27  C   UNL     1      -3.966  -3.091   6.438  0.00  0.00    +0.008 A 
ATOM     28  C   UNL     1      -4.119  -2.789   5.098  0.00  0.00    -0.003 A 
ATOM     29  C   UNL     1      -3.617  -1.598   4.595  0.00  0.00    +0.124 A 
ATOM     30  C   UNL     1      -2.957  -0.715   5.438  0.00  0.00    +0.049 A 
BRANCH  28  31
ATOM     31  C   UNL     1      -4.830  -3.753   4.184  0.00  0.00    +0.016 C 
ATOM     32  C   UNL     1      -4.089  -5.092   4.179  0.00  0.00    +0.012 C 
ATOM     33  C   UNL     1      -6.262  -3.965   4.681  0.00  0.00    +0.012 C 
ENDBRANCH  28  31
ENDBRANCH  23  29
ENDBRANCH  22  23
ENDBRANCH  21  22
ENDBRANCH   1  21
TORSDOF 6
