REMARK  Name = ZINC28909650
REMARK  8 active torsions:
REMARK  status: ('A' for Active; 'I' for Inactive)
REMARK    1  A    between atoms: C_1  and  C_2
REMARK    2  A    between atoms: C_2  and  C_4
REMARK    3  A    between atoms: C_9  and  N_10
REMARK    4  A    between atoms: C_11  and  C_13
REMARK    5  A    between atoms: C_13  and  S_14
REMARK    6  A    between atoms: S_14  and  C_15
REMARK    7  A    between atoms: C_18  and  C_24
REMARK    8  A    between atoms: C_20  and  N_21
REMARK                            x       y       z     vdW  Elec       q    Type
REMARK                         _______ _______ _______ _____ _____    ______ ____
ROOT
ATOM      1  N   UNL     1      -6.741   4.127   5.487  0.00  0.00    -0.284 N 
ATOM      2  C   UNL     1      -5.411   3.957   5.627  0.00  0.00    +0.227 C 
ATOM      3  O   UNL     1      -4.880   4.179   6.694  0.00  0.00    -0.275 OA
ATOM      4  H   UNL     1      -7.212   3.997   4.501  0.00  0.00    +0.155 HD
ENDROOT
BRANCH   1  10
ATOM      5  C   UNL     1      -8.829   3.968   6.712  0.00  0.00    +0.042 A 
ATOM      6  C   UNL     1      -9.602   4.311   7.831  0.00  0.00    +0.062 A 
ATOM      7  C   UNL     1      -9.082   5.144   8.797  0.00  0.00    +0.167 A 
ATOM      8  C   UNL     1      -7.781   5.643   8.670  0.00  0.00    +0.168 A 
ATOM      9  C   UNL     1      -7.008   5.303   7.571  0.00  0.00    +0.073 A 
ATOM     10  C   UNL     1      -7.519   4.467   6.591  0.00  0.00    +0.048 A 
ATOM     11  O   UNL     1      -7.512   6.433   9.748  0.00  0.00    -0.453 OA
ATOM     12  C   UNL     1      -8.500   6.087  10.736  0.00  0.00    +0.466 C 
ATOM     13  O   UNL     1      -9.620   5.625   9.957  0.00  0.00    -0.453 OA
BRANCH   5  15
ATOM     14  C   UNL     1     -10.820   2.652   5.750  0.00  0.00    +0.091 C 
ATOM     15  C   UNL     1      -9.380   3.089   5.678  0.00  0.00    +0.162 C 
ATOM     16  O   UNL     1      -8.677   2.713   4.764  0.00  0.00    -0.292 OA
ENDBRANCH   5  15
ENDBRANCH   1  10
BRANCH   2  17
ATOM     17  C   UNL     1      -4.584   3.490   4.457  0.00  0.00    +0.170 C 
BRANCH  17  18
ATOM     18  S   UNL     1      -2.846   3.359   4.959  0.00  0.00    -0.114 S 
BRANCH  18  19
ATOM     19  C   UNL     1      -2.022   2.810   3.501  0.00  0.00    +0.039 A 
ATOM     20  C   UNL     1      -2.744   2.588   2.334  0.00  0.00    +0.017 A 
ATOM     21  C   UNL     1      -2.093   2.163   1.193  0.00  0.00    +0.013 A 
ATOM     22  C   UNL     1      -0.727   1.947   1.213  0.00  0.00    +0.057 A 
ATOM     23  C   UNL     1      -0.006   2.166   2.372  0.00  0.00    +0.046 A 
ATOM     24  C   UNL     1      -0.649   2.597   3.516  0.00  0.00    +0.140 A 
BRANCH  22  25
ATOM     25  C   UNL     1      -0.022   1.477  -0.034  0.00  0.00    +0.417 C 
ATOM     26  F   UNL     1      -0.003   0.078  -0.059  0.00  0.00    -0.166 F 
ATOM     27  F   UNL     1       1.290   1.962  -0.038  0.00  0.00    -0.166 F 
ATOM     28  F   UNL     1      -0.700   1.954  -1.161  0.00  0.00    -0.166 F 
ENDBRANCH  22  25
BRANCH  24  29
ATOM     29  N   UNL     1       0.124   2.831   4.756  0.00  0.00    +0.058 N 
ATOM     30  O   UNL     1       1.327   2.643   4.769  0.00  0.00    -0.126 OA
ATOM     31  O   UNL     1      -0.444   3.211   5.765  0.00  0.00    -0.126 OA
ENDBRANCH  24  29
ENDBRANCH  18  19
ENDBRANCH  17  18
ENDBRANCH   2  17
TORSDOF 7
