REMARK  Name = ZINC07692710
REMARK  8 active torsions:
REMARK  status: ('A' for Active; 'I' for Inactive)
REMARK    1  A    between atoms: C_1  and  C_2
REMARK    2  A    between atoms: C_7  and  N_12
REMARK    3  A    between atoms: C_9  and  C_11
REMARK    4  A    between atoms: C_13  and  C_15
REMARK    5  A    between atoms: C_15  and  C_17
REMARK    6  A    between atoms: C_15  and  S_18
REMARK    7  A    between atoms: S_18  and  C_19
REMARK    8  A    between atoms: C_23  and  N_25
REMARK                            x       y       z     vdW  Elec       q    Type
REMARK                         _______ _______ _______ _____ _____    ______ ____
ROOT
ATOM      1  C   UNL     1       2.805   4.171  -0.003  0.00  0.00    +0.137 C 
ATOM      2  C   UNL     1       3.447   3.679   1.296  0.00  0.00    +0.029 C 
ENDROOT
BRANCH   1   4
ATOM      3  N   UNL     1       4.127   6.161  -0.645  0.00  0.00    -0.311 N 
ATOM      4  C   UNL     1       2.990   5.662  -0.121  0.00  0.00    +0.226 C 
ATOM      5  O   UNL     1       2.116   6.413   0.256  0.00  0.00    -0.275 OA
ATOM      6  H   UNL     1       4.827   5.560  -0.946  0.00  0.00    +0.149 HD
BRANCH   3  12
ATOM      7  C   UNL     1       5.323  10.145   0.300  0.00  0.00    +0.008 C 
ATOM      8  C   UNL     1       5.988   9.453  -0.892  0.00  0.00    -0.009 C 
ATOM      9  C   UNL     1       5.347   9.945  -2.191  0.00  0.00    +0.003 C 
ATOM     10  C   UNL     1       3.853   9.616  -2.179  0.00  0.00    +0.002 C 
ATOM     11  C   UNL     1       3.665   8.102  -2.059  0.00  0.00    +0.022 C 
ATOM     12  C   UNL     1       4.307   7.610  -0.760  0.00  0.00    +0.076 C 
ATOM     13  C   UNL     1       5.801   7.939  -0.772  0.00  0.00    +0.009 C 
ATOM     14  C   UNL     1       6.442   7.447   0.527  0.00  0.00    +0.009 C 
ENDBRANCH   3  12
ENDBRANCH   1   4
BRANCH   1  15
ATOM     15  S   UNL     1       1.038   3.781   0.012  0.00  0.00    -0.073 S 
BRANCH  15  16
ATOM     16  C   UNL     1       1.113   2.021   0.002  0.00  0.00    +0.192 A 
ATOM     17  N   UNL     1      -0.016   1.327   0.009  0.00  0.00    -0.207 NA
ATOM     18  C   UNL     1       0.002  -0.004   0.002  0.00  0.00    +0.122 A 
ATOM     19  C   UNL     1       1.227  -0.665  -0.013  0.00  0.00    +0.086 A 
ATOM     20  C   UNL     1       2.391   0.098  -0.020  0.00  0.00    +0.122 A 
ATOM     21  N   UNL     1       2.296   1.425  -0.012  0.00  0.00    -0.207 NA
ATOM     22  N   UNL     1      -1.183  -0.723   0.009  0.00  0.00    -0.343 N 
ATOM     23  H   UNL     1      -2.034  -0.255   0.019  0.00  0.00    +0.144 HD
ATOM     24  H   UNL     1      -1.163  -1.692   0.004  0.00  0.00    +0.144 HD
BRANCH  20  25
ATOM     25  N   UNL     1       3.634  -0.518  -0.035  0.00  0.00    -0.343 N 
ATOM     26  H   UNL     1       3.695  -1.486  -0.040  0.00  0.00    +0.144 HD
ATOM     27  H   UNL     1       4.441   0.020  -0.040  0.00  0.00    +0.144 HD
ENDBRANCH  20  25
ENDBRANCH  15  16
ENDBRANCH   1  15
TORSDOF 5
