REMARK  Name = ZINC52342877
REMARK  6 active torsions:
REMARK  status: ('A' for Active; 'I' for Inactive)
REMARK    1  A    between atoms: C_1  and  C_2
REMARK    2  A    between atoms: C_2  and  C_3
REMARK    3  A    between atoms: C_3  and  C_5
REMARK    4  A    between atoms: C_3  and  N_11
REMARK    5  A    between atoms: C_12  and  C_14
REMARK    6  A    between atoms: C_17  and  O_21
REMARK                            x       y       z     vdW  Elec       q    Type
REMARK                         _______ _______ _______ _____ _____    ______ ____
ROOT
ATOM      1  N   UNL     1      -2.082  -0.162   1.273  0.00  0.00    -0.314 N 
ATOM      2  C   UNL     1      -2.664   1.047   1.400  0.00  0.00    +0.199 C 
ATOM      3  O   UNL     1      -2.651   1.827   0.471  0.00  0.00    -0.278 OA
ATOM      4  H   UNL     1      -2.092  -0.785   2.016  0.00  0.00    +0.149 HD
ENDROOT
BRANCH   2   5
ATOM      5  C   UNL     1      -3.330   1.430   2.696  0.00  0.00    +0.018 C 
ATOM      6  C   UNL     1      -4.738   0.801   2.768  0.00  0.00    +0.023 C 
ATOM      7  C   UNL     1      -5.584   1.915   3.439  0.00  0.00    +0.097 C 
ATOM      8  C   UNL     1      -4.946   3.195   2.843  0.00  0.00    -0.050 C 
ATOM      9  N   UNL     1      -3.498   2.893   2.762  0.00  0.00    +0.388 N 
ATOM     10  H   UNL     1      -3.028   3.252   3.579  0.00  0.00    -0.085 HD
ATOM     11  H   UNL     1      -3.108   3.317   1.933  0.00  0.00    -0.085 HD
BRANCH   7  12
ATOM     12  O   UNL     1      -6.960   1.807   3.067  0.00  0.00    -0.394 OA
ATOM     13  H   UNL     1      -7.528   2.483   3.462  0.00  0.00    +0.210 HD
ENDBRANCH   7  12
ENDBRANCH   2   5
BRANCH   1  14
ATOM     14  C   UNL     1      -1.433  -0.534   0.013  0.00  0.00    +0.076 C 
BRANCH  14  15
ATOM     15  C   UNL     1      -1.416  -2.058  -0.121  0.00  0.00    +0.009 C 
ATOM     16  C   UNL     1      -0.749  -2.670   1.112  0.00  0.00    +0.005 C 
ATOM     17  C   UNL     1      -0.731  -4.194   0.978  0.00  0.00    +0.000 C 
ATOM     18  C   UNL     1      -2.166  -4.713   0.863  0.00  0.00    +0.000 C 
ATOM     19  C   UNL     1      -2.833  -4.100  -0.370  0.00  0.00    +0.000 C 
ATOM     20  C   UNL     1      -2.850  -2.576  -0.236  0.00  0.00    +0.005 C 
ENDBRANCH  14  15
BRANCH  14  22
ATOM     21  C   UNL     1      -0.019   1.526   0.010  0.00  0.00    +0.006 C 
ATOM     22  C   UNL     1       0.002  -0.004   0.002  0.00  0.00    +0.019 C 
ENDBRANCH  14  22
ENDBRANCH   1  14
TORSDOF 5
