REMARK  Name = ZINC39638241
REMARK  10 active torsions:
REMARK  status: ('A' for Active; 'I' for Inactive)
REMARK    1  A    between atoms: C_1  and  C_2
REMARK    2  A    between atoms: C_2  and  C_3
REMARK    3  A    between atoms: C_3  and  C_5
REMARK    4  A    between atoms: C_3  and  N_8
REMARK    5  A    between atoms: C_5  and  O_6
REMARK    6  A    between atoms: O_6  and  C_7
REMARK    7  A    between atoms: C_9  and  C_11
REMARK    8  A    between atoms: C_22  and  C_24
REMARK    9  A    between atoms: C_25  and  C_35
REMARK   10  A    between atoms: C_28  and  C_29
REMARK                            x       y       z     vdW  Elec       q    Type
REMARK                         _______ _______ _______ _____ _____    ______ ____
ROOT
ATOM      1  C   UNL     1      -3.267   1.434   2.848  0.00  0.00    +0.100 C 
ATOM      2  C   UNL     1      -2.153   1.756   3.869  0.00  0.00    +0.121 C 
ATOM      3  N   UNL     1      -1.957   3.221   3.760  0.00  0.00    -0.296 N 
ATOM      4  C   UNL     1      -3.327   3.764   3.596  0.00  0.00    +0.115 C 
ATOM      5  C   UNL     1      -4.037   2.753   2.674  0.00  0.00    -0.004 C 
ATOM      6  C   UNL     1      -3.963   3.221   1.224  0.00  0.00    -0.010 C 
ATOM      7  C   UNL     1      -4.784   4.505   1.064  0.00  0.00    -0.082 C 
ATOM      8  N   UNL     1      -6.177   4.247   1.446  0.00  0.00    +0.379 N 
ATOM      9  C   UNL     1      -6.249   3.887   2.867  0.00  0.00    -0.082 C 
ATOM     10  C   UNL     1      -5.490   2.578   3.103  0.00  0.00    -0.010 C 
ATOM     11  C   UNL     1      -0.797   3.905   3.801  0.00  0.00    +0.252 C 
ATOM     12  O   UNL     1      -0.806   5.121   3.785  0.00  0.00    -0.270 OA
ATOM     13  H   UNL     1      -6.728   5.076   1.282  0.00  0.00    -0.086 HD
ATOM     14  H   UNL     1      -6.542   3.489   0.889  0.00  0.00    -0.086 HD
ENDROOT
BRANCH  11  15
ATOM     15  C   UNL     1       0.484   3.179   3.864  0.00  0.00    +0.106 A 
ATOM     16  C   UNL     1       1.299   2.875   2.814  0.00  0.00    +0.147 A 
ATOM     17  O   UNL     1       2.360   2.214   3.285  0.00  0.00    -0.359 OA
ATOM     18  N   UNL     1       2.244   2.076   4.687  0.00  0.00    -0.077 NA
ATOM     19  C   UNL     1       1.133   2.649   5.073  0.00  0.00    +0.126 A 
ATOM     20  C   UNL     1       1.046   3.224   1.370  0.00  0.00    +0.090 C 
BRANCH  19  21
ATOM     21  C   UNL     1       0.623   2.742   6.463  0.00  0.00    +0.004 A 
ATOM     22  C   UNL     1      -0.082   3.872   6.875  0.00  0.00    +0.010 A 
ATOM     23  C   UNL     1      -0.554   3.954   8.169  0.00  0.00    +0.001 A 
ATOM     24  C   UNL     1      -0.330   2.917   9.056  0.00  0.00    +0.000 A 
ATOM     25  C   UNL     1       0.369   1.793   8.653  0.00  0.00    +0.001 A 
ATOM     26  C   UNL     1       0.841   1.698   7.359  0.00  0.00    +0.010 A 
ENDBRANCH  19  21
ENDBRANCH  11  15
BRANCH   1  28
ATOM     27  N   UNL     1      -3.382   0.238   0.685  0.00  0.00    -0.310 N 
ATOM     28  C   UNL     1      -2.666   1.000   1.535  0.00  0.00    +0.218 C 
ATOM     29  O   UNL     1      -1.538   1.337   1.244  0.00  0.00    -0.275 OA
ATOM     30  H   UNL     1      -4.254  -0.096   0.950  0.00  0.00    +0.149 HD
BRANCH  27  31
ATOM     31  C   UNL     1      -2.845  -0.085  -0.639  0.00  0.00    +0.098 C 
BRANCH  31  33
ATOM     32  C   UNL     1      -1.128  -1.625   0.321  0.00  0.00    +0.006 C 
ATOM     33  C   UNL     1      -2.316  -1.520  -0.638  0.00  0.00    +0.021 C 
ENDBRANCH  31  33
BRANCH  31  34
ATOM     34  C   UNL     1      -3.954   0.049  -1.685  0.00  0.00    +0.181 C 
BRANCH  34  35
ATOM     35  O   UNL     1      -4.964  -0.931  -1.438  0.00  0.00    -0.381 OA
ATOM     36  C   UNL     1      -6.051  -0.892  -2.364  0.00  0.00    +0.194 C 
ENDBRANCH  34  35
ENDBRANCH  31  34
ENDBRANCH  27  31
ENDBRANCH   1  28
TORSDOF 7
