REMARK  Name = ZINC15401521
REMARK  3 active torsions:
REMARK  status: ('A' for Active; 'I' for Inactive)
REMARK    1  A    between atoms: C_1  and  C_2
REMARK    2  A    between atoms: C_5  and  C_23
REMARK    3  A    between atoms: N_12  and  C_13
REMARK                            x       y       z     vdW  Elec       q    Type
REMARK                         _______ _______ _______ _____ _____    ______ ____
ROOT
ATOM      1  C   UNL     1      -1.058  12.276  -0.835  0.00  0.00    +0.009 C 
ATOM      2  C   UNL     1      -1.426  10.793  -0.914  0.00  0.00    +0.004 C 
ATOM      3  C   UNL     1      -2.930  10.626  -0.685  0.00  0.00    +0.009 C 
ATOM      4  C   UNL     1      -3.304   9.146  -0.797  0.00  0.00    +0.004 C 
ATOM      5  C   UNL     1      -2.560   8.353   0.276  0.00  0.00    +0.112 C 
ATOM      6  N   UNL     1      -1.121   8.623   0.159  0.00  0.00    -0.285 N 
ATOM      7  C   UNL     1      -0.661  10.018   0.163  0.00  0.00    +0.112 C 
ATOM      8  C   UNL     1      -0.239   7.609   0.044  0.00  0.00    +0.307 C 
ATOM      9  O   UNL     1      -0.638   6.465  -0.054  0.00  0.00    -0.252 OA
ATOM     10  N   UNL     1       1.084   7.865   0.037  0.00  0.00    -0.267 N 
ATOM     11  C   UNL     1      -4.813   8.984  -0.600  0.00  0.00    +0.009 C 
ATOM     12  H   UNL     1       1.444   8.905   0.040  0.00  0.00    +0.156 HD
ENDROOT
BRANCH  10  13
ATOM     13  C   UNL     1       2.006   6.801   0.026  0.00  0.00    +0.060 A 
ATOM     14  C   UNL     1       1.713   5.487   0.022  0.00  0.00    +0.107 A 
ATOM     15  N   UNL     1       2.874   4.753   0.011  0.00  0.00    -0.359 N 
ATOM     16  H   UNL     1       2.830   3.653   0.006  0.00  0.00    +0.165 HD
ATOM     17  C   UNL     1       3.962   5.596   0.009  0.00  0.00    +0.048 A 
ATOM     18  C   UNL     1       3.469   6.914   0.018  0.00  0.00    +0.021 A 
ATOM     19  C   UNL     1       4.358   7.990   0.019  0.00  0.00    +0.012 A 
ATOM     20  C   UNL     1       5.705   7.758   0.016  0.00  0.00    +0.001 A 
ATOM     21  C   UNL     1       6.197   6.460   0.001  0.00  0.00    +0.002 A 
ATOM     22  C   UNL     1       5.337   5.383   0.000  0.00  0.00    +0.026 A 
ENDBRANCH  10  13
TORSDOF 1
