REMARK  Name = ZINC09491272
REMARK  8 active torsions:
REMARK  status: ('A' for Active; 'I' for Inactive)
REMARK    1  A    between atoms: C_1  and  C_2
REMARK    2  A    between atoms: C_4  and  C_31
REMARK    3  A    between atoms: C_10  and  S_11
REMARK    4  A    between atoms: S_11  and  C_12
REMARK    5  A    between atoms: C_12  and  C_13
REMARK    6  A    between atoms: N_15  and  C_16
REMARK    7  A    between atoms: C_18  and  S_23
REMARK    8  A    between atoms: S_23  and  N_26
REMARK                            x       y       z     vdW  Elec       q    Type
REMARK                         _______ _______ _______ _____ _____    ______ ____
ROOT
ATOM      1  C   UNL     1      -3.769  -0.636   3.092  0.00  0.00    +0.228 C 
ATOM      2  O   UNL     1      -3.145  -0.974   2.107  0.00  0.00    -0.275 OA
ATOM      3  N   UNL     1      -3.493   0.538   3.694  0.00  0.00    -0.284 N 
ATOM      4  H   UNL     1      -3.934   0.771   4.525  0.00  0.00    +0.155 HD
ENDROOT
BRANCH   3   5
ATOM      5  C   UNL     1      -2.570   1.419   3.119  0.00  0.00    +0.054 A 
ATOM      6  C   UNL     1      -2.325   1.378   1.753  0.00  0.00    +0.053 A 
ATOM      7  C   UNL     1      -1.414   2.249   1.189  0.00  0.00    +0.107 A 
ATOM      8  C   UNL     1      -0.741   3.159   1.984  0.00  0.00    +0.030 A 
ATOM      9  C   UNL     1      -0.985   3.207   3.344  0.00  0.00    +0.024 A 
ATOM     10  C   UNL     1      -1.896   2.338   3.915  0.00  0.00    +0.062 A 
ATOM     11 CL   UNL     1      -2.198   2.394   5.623  0.00  0.00    -0.082 Cl
BRANCH   7  12
ATOM     12  S   UNL     1      -1.104   2.197  -0.545  0.00  0.00    +0.061 S 
ATOM     13  O   UNL     1      -1.452   0.890  -0.980  0.00  0.00    -0.153 OA
ATOM     14  O   UNL     1       0.192   2.746  -0.742  0.00  0.00    -0.153 OA
BRANCH  12  15
ATOM     15  N   UNL     1      -2.173   3.236  -1.265  0.00  0.00    -0.177 NA
ATOM     16  C   UNL     1      -3.512   2.882  -1.758  0.00  0.00    +0.109 C 
ATOM     17  C   UNL     1      -4.128   4.159  -2.368  0.00  0.00    +0.018 C 
ATOM     18  C   UNL     1      -2.881   5.019  -2.702  0.00  0.00    +0.018 C 
ATOM     19  C   UNL     1      -1.937   4.668  -1.524  0.00  0.00    +0.109 C 
ENDBRANCH  12  15
ENDBRANCH   7  12
ENDBRANCH   3   5
BRANCH   1  20
ATOM     20  C   UNL     1      -4.851  -1.529   3.641  0.00  0.00    +0.173 C 
BRANCH  20  21
ATOM     21  S   UNL     1      -4.981  -3.022   2.619  0.00  0.00    -0.076 S 
BRANCH  21  31
ATOM     22  C   UNL     1      -8.886  -8.773   2.618  0.00  0.00    +0.066 C 
ATOM     23  C   UNL     1      -8.123  -7.480   2.750  0.00  0.00    +0.044 A 
ATOM     24  C   UNL     1      -7.112  -7.171   1.825  0.00  0.00    +0.044 A 
ATOM     25  C   UNL     1      -6.429  -6.008   1.948  0.00  0.00    +0.028 A 
ATOM     26  N   UNL     1      -6.743  -5.163   2.975  0.00  0.00    -0.259 N 
ATOM     27  C   UNL     1      -7.742  -5.498   3.865  0.00  0.00    +0.257 A 
ATOM     28  N   UNL     1      -8.407  -6.654   3.727  0.00  0.00    -0.216 NA
ATOM     29  N   UNL     1      -7.822  -4.508   4.735  0.00  0.00    -0.108 NA
ATOM     30  N   UNL     1      -6.953  -3.604   4.448  0.00  0.00    -0.120 NA
ATOM     31  C   UNL     1      -6.271  -3.950   3.381  0.00  0.00    +0.198 A 
ATOM     32  C   UNL     1      -5.341  -5.651   0.969  0.00  0.00    +0.064 C 
ENDBRANCH  21  31
ENDBRANCH  20  21
ENDBRANCH   1  20
TORSDOF 6
