REMARK  Name = ZINC36591552
REMARK  14 active torsions:
REMARK  status: ('A' for Active; 'I' for Inactive)
REMARK    1  A    between atoms: C_1  and  C_2
REMARK    2  A    between atoms: C_5  and  S_8
REMARK    3  A    between atoms: S_8  and  C_11
REMARK    4  A    between atoms: C_11  and  N_12
REMARK    5  A    between atoms: C_13  and  C_15
REMARK    6  A    between atoms: C_15  and  C_17
REMARK    7  A    between atoms: C_15  and  N_25
REMARK    8  A    between atoms: C_20  and  O_23
REMARK    9  A    between atoms: O_23  and  C_24
REMARK   10  A    between atoms: N_25  and  C_35
REMARK   11  A    between atoms: C_26  and  C_28
REMARK   12  A    between atoms: C_35  and  C_36
REMARK   13  A    between atoms: C_35  and  C_37
REMARK   14  A    between atoms: C_35  and  C_38
REMARK                            x       y       z     vdW  Elec       q    Type
REMARK                         _______ _______ _______ _____ _____    ______ ____
ROOT
ATOM      1  C   UNL     1       1.625  -7.897   1.913  0.00  0.00    +0.193 C 
ENDROOT
BRANCH   1   2
ATOM      2  C   UNL     1       0.198  -8.152   2.324  0.00  0.00    -0.018 A 
ATOM      3  C   UNL     1      -0.130  -8.237   3.664  0.00  0.00    +0.009 A 
ATOM      4  C   UNL     1      -1.437  -8.471   4.044  0.00  0.00    +0.046 A 
ATOM      5  C   UNL     1      -2.422  -8.619   3.079  0.00  0.00    +0.120 A 
ATOM      6  C   UNL     1      -2.091  -8.533   1.734  0.00  0.00    +0.046 A 
ATOM      7  C   UNL     1      -0.783  -8.294   1.360  0.00  0.00    +0.009 A 
BRANCH   5   8
ATOM      8  O   UNL     1      -3.709  -8.850   3.450  0.00  0.00    -0.495 OA
ATOM      9  C   UNL     1      -4.671  -8.993   2.402  0.00  0.00    +0.277 C 
ENDBRANCH   5   8
ENDBRANCH   1   2
BRANCH   1  11
ATOM     10  N   UNL     1       2.854  -9.486   0.468  0.00  0.00    -0.294 N 
ATOM     11  C   UNL     1       2.321  -9.213   1.676  0.00  0.00    +0.239 C 
ATOM     12  O   UNL     1       2.403 -10.026   2.572  0.00  0.00    -0.273 OA
ATOM     13  H   UNL     1       2.788  -8.835  -0.249  0.00  0.00    +0.150 HD
BRANCH  10  14
ATOM     14  C   UNL     1       3.531 -10.764   0.237  0.00  0.00    +0.278 C 
BRANCH  14  15
ATOM     15  S   UNL     1       2.362 -11.944  -0.492  0.00  0.00    +0.013 S 
ATOM     16  O   UNL     1       1.139 -11.931   0.230  0.00  0.00    -0.168 OA
ATOM     17  O   UNL     1       3.021 -13.170  -0.780  0.00  0.00    -0.168 OA
BRANCH  15  22
ATOM     18  C   UNL     1       0.986  -9.632  -5.893  0.00  0.00    +0.044 C 
ATOM     19  C   UNL     1       1.330 -10.210  -4.544  0.00  0.00    -0.050 A 
ATOM     20  C   UNL     1       2.401 -11.074  -4.415  0.00  0.00    +0.005 A 
ATOM     21  C   UNL     1       2.716 -11.604  -3.177  0.00  0.00    +0.027 A 
ATOM     22  C   UNL     1       1.961 -11.268  -2.069  0.00  0.00    +0.090 A 
ATOM     23  C   UNL     1       0.891 -10.403  -2.198  0.00  0.00    +0.027 A 
ATOM     24  C   UNL     1       0.578  -9.870  -3.434  0.00  0.00    +0.005 A 
ENDBRANCH  15  22
ENDBRANCH  14  15
ENDBRANCH  10  14
ENDBRANCH   1  11
BRANCH   1  25
ATOM     25  N   UNL     1       2.316  -7.163   2.975  0.00  0.00    -0.279 N 
ATOM     26  C   UNL     1       1.959  -5.895   3.260  0.00  0.00    +0.237 C 
ATOM     27  O   UNL     1       2.464  -5.320   4.201  0.00  0.00    -0.274 OA
BRANCH  26  28
ATOM     28  C   UNL     1       0.932  -5.192   2.410  0.00  0.00    +0.159 C 
ATOM     29  C   UNL     1       1.590  -4.638   1.127  0.00  0.00    +0.041 C 
ATOM     30  C   UNL     1       1.938  -3.192   1.550  0.00  0.00    +0.098 C 
ATOM     31  C   UNL     1       0.956  -2.883   2.659  0.00  0.00    +0.214 C 
ATOM     32  O   UNL     1       0.703  -1.772   3.073  0.00  0.00    -0.276 OA
ATOM     33  N   UNL     1       0.403  -4.021   3.119  0.00  0.00    -0.304 N 
ATOM     34  H   UNL     1      -0.260  -4.062   3.825  0.00  0.00    +0.149 HD
ENDBRANCH  26  28
BRANCH  25  35
ATOM     35  C   UNL     1       3.395  -7.808   3.728  0.00  0.00    +0.030 C 
ATOM     36  C   UNL     1       4.351  -8.502   2.757  0.00  0.00    +0.031 C 
ATOM     37  C   UNL     1       4.160  -6.751   4.529  0.00  0.00    +0.031 C 
ATOM     38  C   UNL     1       2.801  -8.842   4.687  0.00  0.00    +0.031 C 
ENDBRANCH  25  35
ENDBRANCH   1  25
TORSDOF 9
