REMARK  Name = ZINC58990497
REMARK  8 active torsions:
REMARK  status: ('A' for Active; 'I' for Inactive)
REMARK    1  A    between atoms: C_1  and  C_2
REMARK    2  A    between atoms: C_5  and  C_8
REMARK    3  A    between atoms: N_9  and  N_10
REMARK    4  A    between atoms: C_11  and  C_13
REMARK    5  A    between atoms: C_13  and  S_14
REMARK    6  A    between atoms: S_14  and  C_15
REMARK    7  A    between atoms: C_18  and  C_21
REMARK    8  A    between atoms: N_19  and  N_20
REMARK                            x       y       z     vdW  Elec       q    Type
REMARK                         _______ _______ _______ _____ _____    ______ ____
ROOT
ATOM      1  S   UNL     1       0.141  -9.105   3.953  0.00  0.00    -0.075 S 
ENDROOT
BRANCH   1   2
ATOM      2  C   UNL     1       0.163 -10.857   3.776  0.00  0.00    +0.209 A 
ATOM      3  N   UNL     1       0.172 -11.527   2.644  0.00  0.00    -0.121 NA
ATOM      4  N   UNL     1       0.187 -12.790   2.879  0.00  0.00    -0.127 NA
ATOM      5  C   UNL     1       0.190 -13.005   4.173  0.00  0.00    +0.182 A 
ATOM      6  N   UNL     1       0.180 -11.774   4.788  0.00  0.00    -0.224 N 
BRANCH   5   7
ATOM      7  C   UNL     1       0.206 -14.322   4.845  0.00  0.00    +0.021 A 
ATOM      8  C   UNL     1      -0.112 -14.421   6.201  0.00  0.00    +0.013 A 
ATOM      9  C   UNL     1      -0.095 -15.653   6.822  0.00  0.00    +0.016 A 
ATOM     10  C   UNL     1       0.236 -16.789   6.103  0.00  0.00    +0.018 A 
ATOM     11  C   UNL     1       0.553 -16.697   4.759  0.00  0.00    +0.016 A 
ATOM     12  C   UNL     1       0.533 -15.472   4.125  0.00  0.00    +0.013 A 
ATOM     13 BR   UNL     1       0.258 -18.474   6.963  0.00  0.00    -0.050 Br
ENDBRANCH   5   7
BRANCH   6  14
ATOM     14  N   UNL     1       0.184 -11.522   6.130  0.00  0.00    -0.295 N 
ATOM     15  H   UNL     1      -0.757 -11.467   6.491  0.00  0.00    +0.163 HD
ATOM     16  H   UNL     1       0.722 -12.216   6.627  0.00  0.00    +0.163 HD
ENDBRANCH   6  14
ENDBRANCH   1   2
BRANCH   1  17
ATOM     17  C   UNL     1       0.125  -8.491   2.246  0.00  0.00    +0.174 C 
BRANCH  17  19
ATOM     18  N   UNL     1       0.090  -6.304   1.091  0.00  0.00    -0.206 N 
ATOM     19  C   UNL     1       0.105  -6.984   2.255  0.00  0.00    +0.242 C 
ATOM     20  O   UNL     1       0.103  -6.383   3.308  0.00  0.00    -0.273 OA
ATOM     21  H   UNL     1       0.092  -6.784   0.248  0.00  0.00    +0.177 HD
BRANCH  18  23
ATOM     22  C   UNL     1       0.058  -4.248  -0.021  0.00  0.00    +0.138 C 
ATOM     23  N   UNL     1       0.072  -4.903   1.099  0.00  0.00    -0.188 NA
BRANCH  22  28
ATOM     24  C   UNL     1      -0.018   1.503   0.010  0.00  0.00    +0.044 C 
ATOM     25  C   UNL     1       0.002  -0.004   0.002  0.00  0.00    -0.050 A 
ATOM     26  C   UNL     1       0.006  -0.686  -1.202  0.00  0.00    +0.004 A 
ATOM     27  C   UNL     1       0.024  -2.065  -1.217  0.00  0.00    +0.010 A 
ATOM     28  C   UNL     1       0.039  -2.773  -0.013  0.00  0.00    -0.005 A 
ATOM     29  C   UNL     1       0.036  -2.078   1.198  0.00  0.00    +0.010 A 
ATOM     30  C   UNL     1       0.023  -0.699   1.198  0.00  0.00    +0.004 A 
ENDBRANCH  22  28
ENDBRANCH  18  23
ENDBRANCH  17  19
ENDBRANCH   1  17
TORSDOF 7
