REMARK  Name = ZINC54646759
REMARK  13 active torsions:
REMARK  status: ('A' for Active; 'I' for Inactive)
REMARK    1  A    between atoms: C_1  and  C_2
REMARK    2  A    between atoms: C_2  and  O_3
REMARK    3  A    between atoms: O_3  and  C_4
REMARK    4  A    between atoms: C_4  and  C_6
REMARK    5  A    between atoms: C_10  and  N_11
REMARK    6  A    between atoms: C_12  and  C_14
REMARK    7  A    between atoms: C_14  and  C_15
REMARK    8  A    between atoms: C_15  and  C_16
REMARK    9  A    between atoms: C_16  and  N_17
REMARK   10  A    between atoms: C_24  and  C_30
REMARK   11  A    between atoms: C_27  and  C_28
REMARK   12  A    between atoms: C_27  and  C_29
REMARK   13  A    between atoms: C_32  and  C_36
REMARK                            x       y       z     vdW  Elec       q    Type
REMARK                         _______ _______ _______ _____ _____    ______ ____
ROOT
ATOM      1  N   UNL     1      -0.604  -2.455  -3.925  0.00  0.00    -0.279 N 
ATOM      2  C   UNL     1      -1.119  -2.783  -5.126  0.00  0.00    +0.218 C 
ATOM      3  O   UNL     1      -0.397  -3.225  -5.995  0.00  0.00    -0.275 OA
ATOM      4  H   UNL     1      -1.181  -2.102  -3.230  0.00  0.00    +0.155 HD
ENDROOT
BRANCH   1   9
ATOM      5  C   UNL     1       1.449  -2.344  -2.516  0.00  0.00    +0.091 A 
ATOM      6  C   UNL     1       2.876  -2.619  -2.515  0.00  0.00    -0.021 A 
ATOM      7  C   UNL     1       3.343  -3.117  -3.680  0.00  0.00    -0.004 A 
ATOM      8  S   UNL     1       1.922  -3.212  -4.730  0.00  0.00    -0.077 S 
ATOM      9  C   UNL     1       0.750  -2.624  -3.681  0.00  0.00    +0.086 A 
ATOM     10  C   UNL     1       4.757  -3.498  -3.993  0.00  0.00    +0.046 C 
ATOM     11  C   UNL     1       5.669  -2.887  -2.920  0.00  0.00    -0.009 C 
ATOM     12  C   UNL     1       5.082  -3.191  -1.538  0.00  0.00    +0.008 C 
ATOM     13  C   UNL     1       3.799  -2.383  -1.329  0.00  0.00    +0.037 C 
ATOM     14  C   UNL     1       7.069  -3.497  -3.029  0.00  0.00    +0.008 C 
BRANCH   5  15
ATOM     15  C   UNL     1       0.776  -1.800  -1.335  0.00  0.00    +0.342 C 
ATOM     16  O   UNL     1       0.312  -2.552  -0.499  0.00  0.00    -0.245 OA
BRANCH  15  17
ATOM     17  O   UNL     1       0.671  -0.465  -1.174  0.00  0.00    -0.461 OA
BRANCH  17  19
ATOM     18  C   UNL     1      -0.019   1.526   0.010  0.00  0.00    +0.048 C 
ATOM     19  C   UNL     1       0.002  -0.004   0.002  0.00  0.00    +0.229 C 
ENDBRANCH  17  19
ENDBRANCH  15  17
ENDBRANCH   5  15
ENDBRANCH   1   9
BRANCH   2  20
ATOM     20  C   UNL     1      -2.591  -2.599  -5.391  0.00  0.00    +0.097 C 
BRANCH  20  21
ATOM     21  C   UNL     1      -2.912  -3.043  -6.819  0.00  0.00    +0.029 C 
BRANCH  21  22
ATOM     22  C   UNL     1      -4.406  -2.857  -7.088  0.00  0.00    +0.117 C 
BRANCH  22  23
ATOM     23  N   UNL     1      -4.713  -3.282  -8.456  0.00  0.00    -0.241 N 
ATOM     24  C   UNL     1      -4.639  -2.378  -9.450  0.00  0.00    +0.225 C 
ATOM     25  O   UNL     1      -4.364  -1.223  -9.205  0.00  0.00    -0.275 OA
ATOM     26  C   UNL     1      -4.901  -2.814 -10.880  0.00  0.00    +0.082 C 
ATOM     27  C   UNL     1      -6.431  -3.004 -11.020  0.00  0.00    +0.014 C 
ATOM     28  C   UNL     1      -6.730  -4.426 -10.511  0.00  0.00    +0.017 C 
ATOM     29  C   UNL     1      -5.366  -5.025 -10.091  0.00  0.00    +0.051 C 
ATOM     30  C   UNL     1      -5.055  -4.565  -8.677  0.00  0.00    +0.228 C 
ATOM     31  O   UNL     1      -5.148  -5.340  -7.750  0.00  0.00    -0.275 OA
ATOM     32  C   UNL     1      -4.332  -4.256 -10.998  0.00  0.00    -0.010 C 
ATOM     33  C   UNL     1      -4.389  -4.756 -12.443  0.00  0.00    +0.012 C 
ATOM     34  C   UNL     1      -2.907  -4.335 -10.446  0.00  0.00    +0.012 C 
ATOM     35  C   UNL     1      -5.306  -6.546 -10.238  0.00  0.00    +0.021 C 
ENDBRANCH  22  23
ENDBRANCH  21  22
ENDBRANCH  20  21
ENDBRANCH   2  20
TORSDOF 8
