REMARK  Name = ZINC09634614
REMARK  11 active torsions:
REMARK  status: ('A' for Active; 'I' for Inactive)
REMARK    1  A    between atoms: C_1  and  C_2
REMARK    2  A    between atoms: C_3  and  C_32
REMARK    3  A    between atoms: N_9  and  C_28
REMARK    4  A    between atoms: C_10  and  S_12
REMARK    5  A    between atoms: S_12  and  C_13
REMARK    6  A    between atoms: C_13  and  C_14
REMARK    7  A    between atoms: C_14  and  C_16
REMARK    8  A    between atoms: C_16  and  C_26
REMARK    9  A    between atoms: C_28  and  C_29
REMARK   10  A    between atoms: C_29  and  C_30
REMARK   11  A    between atoms: C_29  and  C_31
REMARK                            x       y       z     vdW  Elec       q    Type
REMARK                         _______ _______ _______ _____ _____    ______ ____
ROOT
ATOM      1  S   UNL     1      -1.657  -1.521  -2.704  0.00  0.00    -0.080 S 
ENDROOT
BRANCH   1  11
ATOM      2  C   UNL     1       3.654  -4.720   0.463  0.00  0.00    +0.045 C 
ATOM      3  C   UNL     1       2.415  -5.133  -0.289  0.00  0.00    -0.026 A 
ATOM      4  C   UNL     1       2.135  -6.431  -0.474  0.00  0.00    -0.008 A 
ATOM      5  S   UNL     1       0.609  -6.399  -1.395  0.00  0.00    -0.073 S 
ATOM      6  C   UNL     1       0.391  -4.641  -1.505  0.00  0.00    +0.117 A 
ATOM      7  C   UNL     1       1.511  -4.129  -0.823  0.00  0.00    +0.075 A 
ATOM      8  C   UNL     1       1.601  -2.703  -0.758  0.00  0.00    +0.263 A 
ATOM      9  O   UNL     1       2.539  -2.169  -0.191  0.00  0.00    -0.267 OA
ATOM     10  N   UNL     1       0.634  -1.958  -1.325  0.00  0.00    -0.287 N 
ATOM     11  C   UNL     1      -0.420  -2.539  -1.969  0.00  0.00    +0.173 A 
ATOM     12  N   UNL     1      -0.526  -3.850  -2.049  0.00  0.00    -0.216 NA
ATOM     13  C   UNL     1       2.922  -7.631  -0.014  0.00  0.00    +0.052 C 
BRANCH  10  14
ATOM     14  C   UNL     1       0.718  -0.497  -1.257  0.00  0.00    +0.130 C 
BRANCH  14  15
ATOM     15  C   UNL     1       0.002  -0.004   0.002  0.00  0.00    +0.003 C 
ATOM     16  C   UNL     1      -0.019   1.526   0.010  0.00  0.00    +0.009 C 
ATOM     17  C   UNL     1       0.742  -0.511   1.242  0.00  0.00    +0.009 C 
ENDBRANCH  14  15
ENDBRANCH  10  14
ENDBRANCH   1  11
BRANCH   1  18
ATOM     18  C   UNL     1      -2.751  -2.795  -3.380  0.00  0.00    +0.157 C 
BRANCH  18  19
ATOM     19  C   UNL     1      -3.916  -2.139  -4.075  0.00  0.00    +0.187 C 
ATOM     20  O   UNL     1      -3.998  -0.926  -4.111  0.00  0.00    -0.290 OA
BRANCH  19  21
ATOM     21  C   UNL     1      -4.907  -2.928  -4.683  0.00  0.00    +0.131 C 
ATOM     22  C   UNL     1      -5.994  -2.316  -5.332  0.00  0.00    +0.114 C 
ATOM     23  N   UNL     1      -6.197  -0.977  -5.432  0.00  0.00    -0.300 N 
ATOM     24  C   UNL     1      -7.372  -0.767  -6.145  0.00  0.00    +0.054 A 
ATOM     25  C   UNL     1      -8.050   0.379  -6.539  0.00  0.00    +0.025 A 
ATOM     26  C   UNL     1      -9.227   0.271  -7.251  0.00  0.00    +0.002 A 
ATOM     27  C   UNL     1      -9.736  -0.976  -7.574  0.00  0.00    +0.002 A 
ATOM     28  C   UNL     1      -9.071  -2.122  -7.186  0.00  0.00    +0.025 A 
ATOM     29  C   UNL     1      -7.886  -2.024  -6.470  0.00  0.00    +0.054 A 
ATOM     30  N   UNL     1      -7.009  -2.971  -5.953  0.00  0.00    -0.300 N 
ATOM     31  H   UNL     1      -5.621  -0.286  -5.070  0.00  0.00    +0.153 HD
ATOM     32  H   UNL     1      -7.106  -3.933  -6.024  0.00  0.00    +0.153 HD
BRANCH  21  33
ATOM     33  C   UNL     1      -4.810  -4.356  -4.641  0.00  0.00    +0.106 C 
ATOM     34  N   UNL     1      -4.732  -5.489  -4.608  0.00  0.00    -0.191 NA
ENDBRANCH  21  33
ENDBRANCH  19  21
ENDBRANCH  18  19
ENDBRANCH   1  18
TORSDOF 7
