REMARK  Name = ZINC17144222
REMARK  6 active torsions:
REMARK  status: ('A' for Active; 'I' for Inactive)
REMARK    1  A    between atoms: C_1  and  C_2
REMARK    2  A    between atoms: C_8  and  C_10
REMARK    3  A    between atoms: C_10  and  C_12
REMARK    4  A    between atoms: C_10  and  N_18
REMARK    5  A    between atoms: C_20  and  C_27
REMARK    6  A    between atoms: C_23  and  C_26
REMARK                            x       y       z     vdW  Elec       q    Type
REMARK                         _______ _______ _______ _____ _____    ______ ____
ROOT
ATOM      1  C   UNL     1      -0.801   1.488  -3.652  0.00  0.00    +0.006 C 
ENDROOT
BRANCH   1   9
ATOM      2  C   UNL     1      -0.889   8.837  -4.920  0.00  0.00    +0.090 C 
ATOM      3  C   UNL     1      -0.897   7.388  -4.507  0.00  0.00    +0.150 A 
ATOM      4  N   UNL     1      -1.078   6.941  -3.266  0.00  0.00    -0.205 NA
ATOM      5  C   UNL     1      -1.027   5.637  -3.266  0.00  0.00    +0.199 A 
ATOM      6  N   UNL     1      -0.807   5.188  -4.532  0.00  0.00    -0.170 N 
ATOM      7  N   UNL     1      -0.729   6.372  -5.311  0.00  0.00    -0.147 NA
ATOM      8  C   UNL     1      -0.724   3.828  -4.713  0.00  0.00    +0.282 A 
ATOM      9  C   UNL     1      -0.857   2.993  -3.675  0.00  0.00    +0.050 A 
ATOM     10  S   UNL     1      -1.125   4.133  -2.325  0.00  0.00    -0.050 S 
ATOM     11  O   UNL     1      -0.505   3.325  -5.958  0.00  0.00    -0.265 OA
ENDBRANCH   1   9
BRANCH   1  12
ATOM     12  N   UNL     1       0.036   1.046  -2.529  0.00  0.00    +0.388 N 
ATOM     13  C   UNL     1       0.159  -0.418  -2.508  0.00  0.00    -0.074 C 
ATOM     14  C   UNL     1       0.912  -0.850  -1.248  0.00  0.00    -0.031 C 
ATOM     15  C   UNL     1       2.300  -0.202  -1.242  0.00  0.00    +0.003 C 
ATOM     16  C   UNL     1       2.145   1.320  -1.312  0.00  0.00    -0.031 C 
ATOM     17  C   UNL     1       1.355   1.689  -2.571  0.00  0.00    -0.074 C 
ATOM     18  C   UNL     1       3.527   1.972  -1.366  0.00  0.00    +0.005 C 
ATOM     19  C   UNL     1       1.059  -2.373  -1.238  0.00  0.00    +0.005 C 
ATOM     20  H   UNL     1      -0.458   1.354  -1.595  0.00  0.00    -0.080 HD
ENDBRANCH   1  12
BRANCH   1  21
ATOM     21  C   UNL     1      -2.194   0.936  -3.488  0.00  0.00    -0.056 A 
ATOM     22  C   UNL     1      -2.829   1.016  -2.263  0.00  0.00    +0.002 A 
ATOM     23  C   UNL     1      -4.108   0.513  -2.114  0.00  0.00    +0.000 A 
ATOM     24  C   UNL     1      -4.749  -0.077  -3.187  0.00  0.00    +0.000 A 
ATOM     25  C   UNL     1      -4.111  -0.161  -4.411  0.00  0.00    +0.000 A 
ATOM     26  C   UNL     1      -2.834   0.345  -4.561  0.00  0.00    +0.002 A 
ENDBRANCH   1  21
TORSDOF 3
