REMARK  Name = ZINC30955826
REMARK  9 active torsions:
REMARK  status: ('A' for Active; 'I' for Inactive)
REMARK    1  A    between atoms: C_1  and  C_2
REMARK    2  A    between atoms: N_7  and  C_9
REMARK    3  A    between atoms: C_12  and  C_15
REMARK    4  A    between atoms: C_15  and  C_17
REMARK    5  A    between atoms: C_15  and  N_18
REMARK    6  A    between atoms: C_19  and  C_21
REMARK    7  A    between atoms: N_24  and  C_27
REMARK    8  A    between atoms: C_27  and  C_28
REMARK    9  A    between atoms: C_30  and  C_33
REMARK                            x       y       z     vdW  Elec       q    Type
REMARK                         _______ _______ _______ _____ _____    ______ ____
ROOT
ATOM      1  N   UNL     1       1.230   0.412  -7.072  0.00  0.00    -0.309 N 
ATOM      2  C   UNL     1       1.748   0.654  -8.292  0.00  0.00    +0.216 C 
ATOM      3  O   UNL     1       2.949   0.753  -8.432  0.00  0.00    -0.276 OA
ATOM      4  H   UNL     1       0.141   0.323  -6.945  0.00  0.00    +0.149 HD
ENDROOT
BRANCH   2   5
ATOM      5  C   UNL     1       0.836   0.803  -9.482  0.00  0.00    +0.071 C 
ATOM      6  C   UNL     1       0.036  -0.488  -9.678  0.00  0.00    -0.006 C 
ATOM      7  C   UNL     1      -0.843  -0.353 -10.923  0.00  0.00    -0.077 C 
ATOM      8  N   UNL     1       0.003  -0.099 -12.096  0.00  0.00    +0.386 N 
ATOM      9  C   UNL     1       0.746   1.160 -11.952  0.00  0.00    -0.077 C 
ATOM     10  C   UNL     1       1.672   1.071 -10.737  0.00  0.00    -0.006 C 
ATOM     11  H   UNL     1       0.737  -0.915 -12.163  0.00  0.00    -0.081 HD
BRANCH   8  12
ATOM     12  C   UNL     1      -0.793  -0.101 -13.330  0.00  0.00    +0.022 C 
BRANCH  12  13
ATOM     13  C   UNL     1      -1.342  -1.484 -13.571  0.00  0.00    +0.211 A 
ATOM     14  N   UNL     1      -2.487  -1.953 -13.140  0.00  0.00    -0.193 NA
ATOM     15  C   UNL     1      -2.554  -3.224 -13.596  0.00  0.00    +0.202 A 
ATOM     16  N   UNL     1      -1.457  -3.450 -14.271  0.00  0.00    -0.056 NA
ATOM     17  O   UNL     1      -0.755  -2.461 -14.269  0.00  0.00    -0.340 OA
BRANCH  15  18
ATOM     18  C   UNL     1      -3.665  -4.183 -13.373  0.00  0.00    +0.022 A 
ATOM     19  C   UNL     1      -4.777  -3.803 -12.624  0.00  0.00    +0.012 A 
ATOM     20  C   UNL     1      -5.809  -4.697 -12.424  0.00  0.00    +0.001 A 
ATOM     21  C   UNL     1      -5.736  -5.971 -12.956  0.00  0.00    +0.000 A 
ATOM     22  C   UNL     1      -4.633  -6.356 -13.695  0.00  0.00    +0.001 A 
ATOM     23  C   UNL     1      -3.597  -5.468 -13.906  0.00  0.00    +0.012 A 
ENDBRANCH  15  18
ENDBRANCH  12  13
ENDBRANCH   8  12
ENDBRANCH   2   5
BRANCH   1  24
ATOM     24  C   UNL     1       2.116   0.268  -5.914  0.00  0.00    +0.100 C 
ATOM     25  C   UNL     1       2.613  -1.177  -5.829  0.00  0.00    +0.033 C 
BRANCH  24  29
ATOM     26  C   UNL     1      -0.023   1.251  -2.348  0.00  0.00    +0.030 A 
ATOM     27  C   UNL     1      -0.644   0.519  -3.353  0.00  0.00    +0.023 A 
ATOM     28  C   UNL     1       0.049   0.208  -4.506  0.00  0.00    +0.007 A 
ATOM     29  C   UNL     1       1.362   0.615  -4.657  0.00  0.00    -0.027 A 
ATOM     30  C   UNL     1       1.984   1.339  -3.656  0.00  0.00    +0.007 A 
ATOM     31  C   UNL     1       1.296   1.658  -2.503  0.00  0.00    +0.023 A 
BRANCH  26  37
ATOM     32  C   UNL     1      -4.296   0.984  -0.049  0.00  0.00    +0.009 C 
ATOM     33  C   UNL     1      -2.873   1.544  -0.009  0.00  0.00    +0.003 C 
ATOM     34  C   UNL     1      -2.170   1.064   1.264  0.00  0.00    +0.006 C 
ATOM     35  C   UNL     1      -0.729   1.579   1.267  0.00  0.00    +0.019 C 
ATOM     36  C   UNL     1      -0.013   1.086   0.008  0.00  0.00    +0.105 C 
ATOM     37  N   UNL     1      -0.723   1.572  -1.182  0.00  0.00    -0.330 N 
ATOM     38  C   UNL     1      -2.095   1.052  -1.231  0.00  0.00    +0.108 C 
ENDBRANCH  26  37
ENDBRANCH  24  29
ENDBRANCH   1  24
TORSDOF 7
