REMARK  Name = ZINC02483973
REMARK  5 active torsions:
REMARK  status: ('A' for Active; 'I' for Inactive)
REMARK    1  A    between atoms: C_3  and  C_10
REMARK    2  A    between atoms: C_5  and  N_7
REMARK    3  A    between atoms: C_16  and  C_24
REMARK    4  A    between atoms: C_18  and  C_22
REMARK    5  A    between atoms: C_19  and  N_21
REMARK                            x       y       z     vdW  Elec       q    Type
REMARK                         _______ _______ _______ _____ _____    ______ ____
ROOT
ATOM      1  C   UNL     1       3.653   2.156  -0.022  0.00  0.00    +0.084 C 
ATOM      2  N   UNL     1       4.860   1.657  -0.042  0.00  0.00    -0.150 NA
ATOM      3  N   UNL     1       5.840   2.649  -0.079  0.00  0.00    -0.115 NA
ATOM      4  C   UNL     1       5.332   3.828  -0.143  0.00  0.00    +0.227 C 
ATOM      5  C   UNL     1       3.820   3.658  -0.016  0.00  0.00    +0.140 C 
ATOM      6  C   UNL     1       3.219   4.280  -1.282  0.00  0.00    +0.085 C 
ATOM      7  C   UNL     1       3.942   5.564  -1.589  0.00  0.00    +0.095 C 
ATOM      8  C   UNL     1       5.173   5.872  -1.131  0.00  0.00    +0.200 C 
ATOM      9  O   UNL     1       5.884   5.048  -0.313  0.00  0.00    -0.425 OA
ENDROOT
BRANCH   6  10
ATOM     10  C   UNL     1       3.374   3.324  -2.436  0.00  0.00    -0.002 A 
ATOM     11  C   UNL     1       4.634   2.912  -2.828  0.00  0.00    +0.022 A 
ATOM     12  C   UNL     1       4.776   2.034  -3.888  0.00  0.00    +0.018 A 
ATOM     13  C   UNL     1       3.658   1.568  -4.556  0.00  0.00    +0.018 A 
ATOM     14  C   UNL     1       2.398   1.979  -4.165  0.00  0.00    +0.040 A 
ATOM     15  C   UNL     1       2.254   2.854  -3.100  0.00  0.00    +0.127 A 
ATOM     16  F   UNL     1       1.022   3.252  -2.714  0.00  0.00    -0.205 F 
ATOM     17 BR   UNL     1       6.500   1.472  -4.424  0.00  0.00    -0.050 Br
ENDBRANCH   6  10
BRANCH   1  20
ATOM     18  C   UNL     1      -0.017   1.379   0.010  0.00  0.00    +0.003 A 
ATOM     19  C   UNL     1       1.166   2.089   0.002  0.00  0.00    +0.010 A 
ATOM     20  C   UNL     1       2.386   1.406  -0.013  0.00  0.00    +0.001 A 
ATOM     21  C   UNL     1       2.397   0.008  -0.021  0.00  0.00    +0.042 A 
ATOM     22  C   UNL     1       1.206  -0.687  -0.013  0.00  0.00    +0.127 A 
ATOM     23  C   UNL     1       0.002  -0.004   0.002  0.00  0.00    +0.033 A 
BRANCH  22  24
ATOM     24  N   UNL     1       1.215  -2.167  -0.021  0.00  0.00    +0.056 N 
ATOM     25  O   UNL     1       2.265  -2.765  -0.035  0.00  0.00    -0.126 OA
ATOM     26  O   UNL     1       0.172  -2.778  -0.015  0.00  0.00    -0.126 OA
ENDBRANCH  22  24
ENDBRANCH   1  20
BRANCH   8  27
ATOM     27  N   UNL     1       5.731   7.072  -1.500  0.00  0.00    -0.328 N 
ATOM     28  H   UNL     1       5.240   7.677  -2.078  0.00  0.00    +0.145 HD
ATOM     29  H   UNL     1       6.614   7.314  -1.182  0.00  0.00    +0.145 HD
ENDBRANCH   8  27
BRANCH   7  30
ATOM     30  C   UNL     1       3.280   6.522  -2.422  0.00  0.00    +0.100 C 
ATOM     31  N   UNL     1       2.755   7.281  -3.083  0.00  0.00    -0.191 NA
ENDBRANCH   7  30
TORSDOF 5
