REMARK  Name = ZINC57933460
REMARK  2 active torsions:
REMARK  status: ('A' for Active; 'I' for Inactive)
REMARK    1  A    between atoms: C_10  and  C_11
REMARK    2  A    between atoms: C_11  and  N_12
REMARK                            x       y       z     vdW  Elec       q    Type
REMARK                         _______ _______ _______ _____ _____    ______ ____
ROOT
ATOM      1  N   UNL     1       5.208   0.712   1.288  0.00  0.00    -0.264 N 
ATOM      2  C   UNL     1       4.625   1.933   1.653  0.00  0.00    +0.060 A 
ATOM      3  C   UNL     1       3.598   2.479   0.901  0.00  0.00    +0.066 A 
ATOM      4  C   UNL     1       3.038   3.689   1.274  0.00  0.00    +0.160 A 
ATOM      5  C   UNL     1       3.500   4.356   2.399  0.00  0.00    +0.160 A 
ATOM      6  C   UNL     1       4.526   3.814   3.156  0.00  0.00    +0.066 A 
ATOM      7  C   UNL     1       5.086   2.604   2.787  0.00  0.00    +0.052 A 
ATOM      8  N   UNL     1       6.117   2.024   3.541  0.00  0.00    -0.334 N 
ATOM      9  C   UNL     1       6.223   0.557   3.549  0.00  0.00    +0.198 C 
ATOM     10  C   UNL     1       5.990   0.038   2.153  0.00  0.00    +0.237 C 
ATOM     11  O   UNL     1       6.516  -0.998   1.803  0.00  0.00    -0.274 OA
ATOM     12  F   UNL     1       2.950   5.537   2.756  0.00  0.00    -0.202 F 
ATOM     13  F   UNL     1       2.037   4.222   0.540  0.00  0.00    -0.202 F 
ATOM     14  H   UNL     1       6.741   2.573   4.041  0.00  0.00    +0.147 HD
ENDROOT
BRANCH   1  15
ATOM     15  C   UNL     1       4.960   0.161  -0.046  0.00  0.00    +0.149 C 
BRANCH  15  25
ATOM     16  C   UNL     1       2.180  -2.380  -3.513  0.00  0.00    +0.001 A 
ATOM     17  C   UNL     1       3.322  -1.582  -3.565  0.00  0.00    +0.001 A 
ATOM     18  C   UNL     1       3.841  -1.027  -2.436  0.00  0.00    +0.009 A 
ATOM     19  C   UNL     1       3.220  -1.260  -1.197  0.00  0.00    -0.013 A 
ATOM     20  C   UNL     1       2.059  -2.071  -1.144  0.00  0.00    -0.018 A 
ATOM     21  C   UNL     1       1.552  -2.627  -2.331  0.00  0.00    +0.008 A 
ATOM     22  C   UNL     1       1.437  -2.304   0.094  0.00  0.00    +0.008 A 
ATOM     23  C   UNL     1       1.956  -1.749   1.224  0.00  0.00    +0.001 A 
ATOM     24  C   UNL     1       3.098  -0.951   1.171  0.00  0.00    +0.006 A 
ATOM     25  C   UNL     1       3.727  -0.704  -0.011  0.00  0.00    -0.022 A 
ENDBRANCH  15  25
ENDBRANCH   1  15
TORSDOF 2
