REMARK  Name = ZINC20877195
REMARK  11 active torsions:
REMARK  status: ('A' for Active; 'I' for Inactive)
REMARK    1  A    between atoms: C_1  and  O_2
REMARK    2  A    between atoms: O_2  and  C_3
REMARK    3  A    between atoms: C_5  and  C_25
REMARK    4  A    between atoms: C_8  and  O_9
REMARK    5  A    between atoms: O_9  and  C_10
REMARK    6  A    between atoms: C_10  and  C_11
REMARK    7  A    between atoms: C_11  and  C_13
REMARK    8  A    between atoms: C_11  and  O_23
REMARK    9  A    between atoms: C_25  and  N_26
REMARK   10  A    between atoms: N_26  and  C_27
REMARK   11  A    between atoms: C_27  and  C_28
REMARK                            x       y       z     vdW  Elec       q    Type
REMARK                         _______ _______ _______ _____ _____    ______ ____
ROOT
ATOM      1  C   UNL     1       0.002  -0.004   0.002  0.00  0.00    +0.163 A 
ATOM      2  C   UNL     1       1.211  -0.682  -0.013  0.00  0.00    +0.051 A 
ATOM      3  C   UNL     1       1.228  -2.064  -0.020  0.00  0.00    -0.060 A 
ATOM      4  C   UNL     1       0.042  -2.774  -0.013  0.00  0.00    +0.021 A 
ATOM      5  C   UNL     1      -1.168  -2.104   0.001  0.00  0.00    +0.063 A 
ATOM      6  C   UNL     1      -1.192  -0.717   0.015  0.00  0.00    +0.176 A 
ATOM      7 BR   UNL     1      -2.789  -3.078   0.011  0.00  0.00    -0.046 Br
ENDROOT
BRANCH   1   9
ATOM      8  C   UNL     1       1.248   2.022   0.001  0.00  0.00    +0.277 C 
ATOM      9  O   UNL     1      -0.016   1.356   0.009  0.00  0.00    -0.491 OA
ENDBRANCH   1   9
BRANCH   6  10
ATOM     10  O   UNL     1      -2.381  -0.057   0.036  0.00  0.00    -0.484 OA
BRANCH  10  11
ATOM     11  C   UNL     1      -2.966   0.266  -1.227  0.00  0.00    +0.265 C 
BRANCH  11  12
ATOM     12  C   UNL     1      -4.288   1.002  -1.004  0.00  0.00    +0.182 C 
BRANCH  12  13
ATOM     13  C   UNL     1      -4.965   1.233  -2.331  0.00  0.00    -0.012 A 
ATOM     14  C   UNL     1      -4.563   2.281  -3.137  0.00  0.00    +0.010 A 
ATOM     15  C   UNL     1      -5.179   2.494  -4.356  0.00  0.00    +0.050 A 
ATOM     16  C   UNL     1      -6.209   1.662  -4.769  0.00  0.00    +0.162 A 
ATOM     17  C   UNL     1      -6.615   0.610  -3.957  0.00  0.00    +0.162 A 
ATOM     18  C   UNL     1      -5.990   0.399  -2.737  0.00  0.00    +0.055 A 
ATOM     19  O   UNL     1      -7.618  -0.224  -4.347  0.00  0.00    -0.485 OA
ATOM     20  C   UNL     1      -8.467   0.240  -5.402  0.00  0.00    +0.270 C 
ATOM     21  C   UNL     1      -7.580   0.813  -6.516  0.00  0.00    +0.270 C 
ATOM     22  O   UNL     1      -6.811   1.889  -5.968  0.00  0.00    -0.485 OA
ENDBRANCH  12  13
BRANCH  12  23
ATOM     23  O   UNL     1      -4.034   2.259  -0.374  0.00  0.00    -0.384 OA
ATOM     24  H   UNL     1      -4.869   2.932  -0.133  0.00  0.00    +0.210 HD
ENDBRANCH  12  23
ENDBRANCH  11  12
ENDBRANCH  10  11
ENDBRANCH   6  10
BRANCH   3  25
ATOM     25  C   UNL     1       2.544  -2.799  -0.037  0.00  0.00    -0.046 C 
BRANCH  25  26
ATOM     26  N   UNL     1       2.985  -3.045   1.343  0.00  0.00    +0.386 N 
ATOM     27  H   UNL     1       3.108  -2.085   1.865  0.00  0.00    -0.085 HD
ATOM     28  H   UNL     1       2.231  -3.653   1.866  0.00  0.00    -0.085 HD
BRANCH  26  29
ATOM     29  C   UNL     1       4.267  -3.762   1.366  0.00  0.00    -0.006 C 
BRANCH  29  30
ATOM     30  C   UNL     1       4.686  -3.995   2.794  0.00  0.00    +0.088 A 
ATOM     31  C   UNL     1       4.372  -5.070   3.540  0.00  0.00    +0.042 A 
ATOM     32  C   UNL     1       4.968  -4.877   4.808  0.00  0.00    +0.041 A 
ATOM     33  C   UNL     1       5.610  -3.696   4.761  0.00  0.00    +0.195 A 
ATOM     34  O   UNL     1       5.441  -3.169   3.537  0.00  0.00    -0.470 OA
ENDBRANCH  29  30
ENDBRANCH  26  29
ENDBRANCH  25  26
ENDBRANCH   3  25
TORSDOF 10
