REMARK  Name = ZINC29390270
REMARK  9 active torsions:
REMARK  status: ('A' for Active; 'I' for Inactive)
REMARK    1  A    between atoms: C_1  and  C_2
REMARK    2  A    between atoms: C_2  and  C_3
REMARK    3  A    between atoms: C_3  and  N_4
REMARK    4  A    between atoms: C_12  and  S_13
REMARK    5  A    between atoms: S_13  and  C_14
REMARK    6  A    between atoms: C_14  and  C_15
REMARK    7  A    between atoms: C_17  and  C_20
REMARK    8  A    between atoms: C_20  and  N_21
REMARK    9  A    between atoms: C_22  and  C_24
REMARK                            x       y       z     vdW  Elec       q    Type
REMARK                         _______ _______ _______ _____ _____    ______ ____
ROOT
ATOM      1  C   UNL     1       5.132   8.012  -0.003  0.00  0.00    +0.238 A 
ATOM      2  N   UNL     1       5.639   8.609   1.049  0.00  0.00    -0.194 NA
ATOM      3  C   UNL     1       6.443   9.573   0.566  0.00  0.00    +0.189 A 
ATOM      4  N   UNL     1       6.380   9.519  -0.731  0.00  0.00    -0.060 NA
ATOM      5  O   UNL     1       5.632   8.630  -1.078  0.00  0.00    -0.337 OA
ENDROOT
BRANCH   1   6
ATOM      6  C   UNL     1       4.166   6.856  -0.001  0.00  0.00    +0.176 C 
BRANCH   6   7
ATOM      7  S   UNL     1       2.470   7.487   0.019  0.00  0.00    -0.078 S 
BRANCH   7  16
ATOM      8  N   UNL     1       0.216   5.857   0.031  0.00  0.00    -0.319 N 
ATOM      9  C   UNL     1      -0.085   4.504   0.027  0.00  0.00    +0.070 A 
ATOM     10  C   UNL     1      -1.270   3.784   0.035  0.00  0.00    +0.029 A 
ATOM     11  C   UNL     1      -1.236   2.404   0.021  0.00  0.00    +0.022 A 
ATOM     12  C   UNL     1      -0.021   1.732   0.012  0.00  0.00    +0.043 A 
ATOM     13  C   UNL     1       1.165   2.432   0.004  0.00  0.00    +0.050 A 
ATOM     14  C   UNL     1       1.146   3.829   0.012  0.00  0.00    +0.092 A 
ATOM     15  N   UNL     1       2.121   4.775   0.007  0.00  0.00    -0.222 NA
ATOM     16  C   UNL     1       1.578   5.968   0.019  0.00  0.00    +0.170 A 
ATOM     17 CL   UNL     1       0.002  -0.004   0.002  0.00  0.00    -0.083 Cl
BRANCH   8  18
ATOM     18  C   UNL     1      -0.746   6.961   0.046  0.00  0.00    +0.124 C 
BRANCH  18  20
ATOM     19  C   UNL     1      -2.099   8.507  -1.377  0.00  0.00    +0.005 C 
ATOM     20  C   UNL     1      -1.094   7.353  -1.392  0.00  0.00    +0.018 C 
ENDBRANCH  18  20
ENDBRANCH   8  18
ENDBRANCH   7  16
ENDBRANCH   6   7
ENDBRANCH   1   6
BRANCH   3  21
ATOM     21  C   UNL     1       7.263  10.541   1.379  0.00  0.00    +0.184 C 
BRANCH  21  22
ATOM     22  N   UNL     1       6.468  11.739   1.659  0.00  0.00    -0.304 N 
ATOM     23  C   UNL     1       7.000  12.748   2.377  0.00  0.00    +0.244 C 
ATOM     24  O   UNL     1       8.139  12.664   2.793  0.00  0.00    -0.270 OA
ATOM     25  H   UNL     1       5.438  11.816   1.283  0.00  0.00    +0.149 HD
BRANCH  23  26
ATOM     26  C   UNL     1       6.198  13.958   2.659  0.00  0.00    +0.037 A 
ATOM     27  C   UNL     1       4.892  14.060   2.178  0.00  0.00    +0.013 A 
ATOM     28  C   UNL     1       4.147  15.190   2.449  0.00  0.00    +0.001 A 
ATOM     29  C   UNL     1       4.696  16.224   3.187  0.00  0.00    +0.000 A 
ATOM     30  C   UNL     1       5.992  16.131   3.662  0.00  0.00    +0.001 A 
ATOM     31  C   UNL     1       6.746  15.005   3.403  0.00  0.00    +0.013 A 
ENDBRANCH  23  26
ENDBRANCH  21  22
ENDBRANCH   3  21
TORSDOF 8
