REMARK  Name = ZINC06193475
REMARK  19 active torsions:
REMARK  status: ('A' for Active; 'I' for Inactive)
REMARK    1  A    between atoms: C_1  and  C_2
REMARK    2  A    between atoms: C_2  and  N_74
REMARK    3  A    between atoms: C_3  and  C_4
REMARK    4  A    between atoms: C_3  and  N_74
REMARK    5  A    between atoms: C_5  and  C_6
REMARK    6  A    between atoms: C_5  and  N_74
REMARK    7  A    between atoms: C_6  and  N_7
REMARK    8  A    between atoms: N_7  and  C_8
REMARK    9  A    between atoms: N_7  and  C_22
REMARK   10  A    between atoms: C_8  and  C_9
REMARK   11  A    between atoms: C_15  and  C_21
REMARK   12  A    between atoms: C_22  and  N_24
REMARK   13  A    between atoms: N_24  and  C_25
REMARK   14  A    between atoms: C_25  and  C_26
REMARK   15  A    between atoms: C_26  and  C_27
REMARK   16  A    between atoms: C_30  and  O_35
REMARK   17  A    between atoms: C_31  and  O_33
REMARK   18  A    between atoms: O_33  and  C_34
REMARK   19  A    between atoms: O_35  and  C_36
REMARK                            x       y       z     vdW  Elec       q    Type
REMARK                         _______ _______ _______ _____ _____    ______ ____
ROOT
ATOM      1  N   UNL     1      -0.717   1.572  -1.179  0.00  0.00    -0.310 N 
ENDROOT
BRANCH   1   2
ATOM      2  C   UNL     1      -1.688   0.818  -1.728  0.00  0.00    +0.133 C 
ATOM      3  S   UNL     1      -2.103  -0.688  -1.027  0.00  0.00    -0.019 S 
BRANCH   2   4
ATOM      4  N   UNL     1      -2.334   1.248  -2.831  0.00  0.00    -0.326 N 
ATOM      5  H   UNL     1      -2.099   2.101  -3.228  0.00  0.00    +0.148 HD
BRANCH   4   6
ATOM      6  C   UNL     1      -3.390   0.428  -3.428  0.00  0.00    +0.108 C 
BRANCH   6   7
ATOM      7  C   UNL     1      -3.955   1.141  -4.659  0.00  0.00    +0.054 C 
BRANCH   7   8
ATOM      8  C   UNL     1      -5.041   0.297  -5.274  0.00  0.00    -0.042 A 
ATOM      9  C   UNL     1      -4.726  -0.631  -6.249  0.00  0.00    +0.007 A 
ATOM     10  C   UNL     1      -5.718  -1.412  -6.812  0.00  0.00    +0.049 A 
ATOM     11  C   UNL     1      -7.034  -1.257  -6.407  0.00  0.00    +0.161 A 
ATOM     12  C   UNL     1      -7.353  -0.319  -5.430  0.00  0.00    +0.162 A 
ATOM     13  C   UNL     1      -6.353   0.456  -4.866  0.00  0.00    +0.053 A 
BRANCH  12  14
ATOM     14  O   UNL     1      -8.643  -0.163  -5.029  0.00  0.00    -0.491 OA
ATOM     15  C   UNL     1      -8.896   0.818  -4.022  0.00  0.00    +0.277 C 
ENDBRANCH  12  14
BRANCH  11  16
ATOM     16  O   UNL     1      -8.013  -2.020  -6.964  0.00  0.00    -0.491 OA
ATOM     17  C   UNL     1      -7.612  -2.962  -7.961  0.00  0.00    +0.277 C 
ENDBRANCH  11  16
ENDBRANCH   7   8
ENDBRANCH   6   7
ENDBRANCH   4   6
ENDBRANCH   2   4
ENDBRANCH   1   2
BRANCH   1  18
ATOM     18  C   UNL     1      -0.361   2.861  -1.779  0.00  0.00    +0.088 C 
BRANCH  18  19
ATOM     19  C   UNL     1       0.742   2.652  -2.818  0.00  0.00    -0.060 C 
BRANCH  19  20
ATOM     20  N   UNL     1       0.987   3.933  -3.513  0.00  0.00    +0.380 N 
ATOM     21  H   UNL     1       0.085   4.383  -3.712  0.00  0.00    -0.082 HD
BRANCH  20  23
ATOM     22  C   UNL     1       1.838   6.217  -3.295  0.00  0.00    -0.017 C 
ATOM     23  C   UNL     1       1.790   4.829  -2.653  0.00  0.00    -0.082 C 
ENDBRANCH  20  23
BRANCH  20  24
ATOM     24  C   UNL     1       1.693   3.690  -4.788  0.00  0.00    -0.082 C 
ATOM     25  C   UNL     1       0.686   3.171  -5.816  0.00  0.00    -0.017 C 
ENDBRANCH  20  24
ENDBRANCH  19  20
ENDBRANCH  18  19
ENDBRANCH   1  18
BRANCH   1  26
ATOM     26  C   UNL     1      -0.015   1.104   0.019  0.00  0.00    +0.147 C 
BRANCH  26  27
ATOM     27  C   UNL     1      -0.740   1.591   1.248  0.00  0.00    +0.035 A 
ATOM     28  C   UNL     1      -1.651   0.791   1.856  0.00  0.00    +0.020 A 
ATOM     29  C   UNL     1      -2.334   1.292   3.050  0.00  0.00    -0.001 A 
ATOM     30  C   UNL     1      -3.280   0.512   3.723  0.00  0.00    +0.010 A 
ATOM     31  C   UNL     1      -3.903   1.010   4.832  0.00  0.00    +0.001 A 
ATOM     32  C   UNL     1      -3.607   2.284   5.296  0.00  0.00    +0.005 A 
ATOM     33  C   UNL     1      -2.679   3.071   4.649  0.00  0.00    -0.026 A 
ATOM     34  C   UNL     1      -2.031   2.585   3.518  0.00  0.00    +0.052 A 
ATOM     35  N   UNL     1      -1.098   3.350   2.851  0.00  0.00    -0.322 N 
ATOM     36  H   UNL     1      -0.884   4.268   3.185  0.00  0.00    +0.169 HD
ATOM     37  C   UNL     1      -0.472   2.879   1.758  0.00  0.00    +0.254 A 
ATOM     38  O   UNL     1       0.347   3.583   1.194  0.00  0.00    -0.268 OA
ATOM     39  C   UNL     1      -2.368   4.452   5.164  0.00  0.00    +0.046 C 
ENDBRANCH  26  27
ENDBRANCH   1  26
TORSDOF 14
