REMARK  Name = ZINC63373360
REMARK  12 active torsions:
REMARK  status: ('A' for Active; 'I' for Inactive)
REMARK    1  A    between atoms: C_1  and  C_2
REMARK    2  A    between atoms: C_2  and  C_3
REMARK    3  A    between atoms: C_3  and  C_4
REMARK    4  A    between atoms: C_4  and  C_5
REMARK    5  A    between atoms: C_5  and  N_6
REMARK    6  A    between atoms: C_12  and  C_28
REMARK    7  A    between atoms: C_24  and  C_27
REMARK    8  A    between atoms: C_32  and  O_37
REMARK    9  A    between atoms: C_33  and  O_34
REMARK   10  A    between atoms: O_34  and  C_35
REMARK   11  A    between atoms: C_35  and  C_36
REMARK   12  A    between atoms: O_37  and  C_38
REMARK                            x       y       z     vdW  Elec       q    Type
REMARK                         _______ _______ _______ _____ _____    ______ ____
ROOT
ATOM      1  N   UNL     1       1.747  -4.550  -2.097  0.00  0.00    -0.291 N 
ATOM      2  C   UNL     1       2.670  -5.567  -1.560  0.00  0.00    +0.203 C 
ATOM      3  C   UNL     1       1.855  -6.666  -0.911  0.00  0.00    +0.234 C 
ATOM      4  O   UNL     1       2.174  -7.148   0.155  0.00  0.00    -0.274 OA
ATOM      5  N   UNL     1       0.737  -7.090  -1.588  0.00  0.00    -0.283 N 
ATOM      6  C   UNL     1      -0.162  -7.987  -0.883  0.00  0.00    +0.121 C 
ATOM      7  C   UNL     1      -1.155  -8.702  -1.803  0.00  0.00    +0.069 C 
ATOM      8  C   UNL     1      -1.601  -7.677  -2.815  0.00  0.00    -0.027 C 
ATOM      9  C   UNL     1      -2.786  -7.172  -3.122  0.00  0.00    -0.000 A 
ATOM     10  C   UNL     1      -4.147  -7.513  -2.676  0.00  0.00    +0.010 A 
ATOM     11  C   UNL     1      -5.153  -6.756  -3.188  0.00  0.00    +0.001 A 
ATOM     12  C   UNL     1      -4.946  -5.706  -4.088  0.00  0.00    +0.002 A 
ATOM     13  C   UNL     1      -3.731  -5.331  -4.561  0.00  0.00    +0.026 A 
ATOM     14  C   UNL     1      -2.595  -6.060  -4.103  0.00  0.00    +0.043 A 
ATOM     15  N   UNL     1      -1.336  -5.937  -4.412  0.00  0.00    -0.375 N 
ATOM     16  C   UNL     1      -0.593  -6.990  -3.723  0.00  0.00    +0.139 C 
ATOM     17  C   UNL     1       0.567  -6.512  -2.909  0.00  0.00    +0.135 C 
ATOM     18  C   UNL     1       0.676  -5.012  -2.811  0.00  0.00    +0.242 C 
ATOM     19  O   UNL     1      -0.127  -4.268  -3.332  0.00  0.00    -0.273 OA
ATOM     20  C   UNL     1       1.813  -6.931  -3.692  0.00  0.00    +0.044 C 
ATOM     21  H   UNL     1      -0.957  -5.263  -4.999  0.00  0.00    +0.160 HD
ENDROOT
BRANCH   7  22
ATOM     22  C   UNL     1      -0.480  -9.858  -2.495  0.00  0.00    +0.007 A 
ATOM     23  C   UNL     1       0.533  -9.622  -3.406  0.00  0.00    +0.008 A 
ATOM     24  C   UNL     1       1.154 -10.680  -4.043  0.00  0.00    +0.004 A 
ATOM     25  C   UNL     1       0.765 -11.979  -3.772  0.00  0.00    +0.049 A 
ATOM     26  C   UNL     1      -0.249 -12.222  -2.860  0.00  0.00    +0.162 A 
ATOM     27  C   UNL     1      -0.871 -11.157  -2.215  0.00  0.00    +0.166 A 
BRANCH  26  28
ATOM     28  O   UNL     1      -0.633 -13.499  -2.593  0.00  0.00    -0.491 OA
ATOM     29  C   UNL     1       0.053 -14.542  -3.288  0.00  0.00    +0.277 C 
ENDBRANCH  26  28
BRANCH  27  30
ATOM     30  O   UNL     1      -1.863 -11.391  -1.315  0.00  0.00    -0.488 OA
BRANCH  30  31
ATOM     31  C   UNL     1      -3.198 -11.445  -1.821  0.00  0.00    +0.226 C 
ATOM     32  C   UNL     1      -4.169 -11.715  -0.670  0.00  0.00    +0.048 C 
ENDBRANCH  30  31
ENDBRANCH  27  30
ENDBRANCH   7  22
BRANCH   1  33
ATOM     33  C   UNL     1       1.962  -3.119  -1.873  0.00  0.00    +0.108 C 
BRANCH  33  34
ATOM     34  C   UNL     1       1.260  -2.693  -0.582  0.00  0.00    +0.019 C 
BRANCH  34  35
ATOM     35  C   UNL     1       1.485  -1.198  -0.347  0.00  0.00    +0.001 C 
BRANCH  35  37
ATOM     36  C   UNL     1       1.008   0.722   1.179  0.00  0.00    +0.004 C 
ATOM     37  C   UNL     1       0.783  -0.773   0.944  0.00  0.00    -0.003 C 
ENDBRANCH  35  37
ENDBRANCH  34  35
ENDBRANCH  33  34
ENDBRANCH   1  33
TORSDOF 8
