REMARK  Name = ZINC09727403
REMARK  9 active torsions:
REMARK  status: ('A' for Active; 'I' for Inactive)
REMARK    1  A    between atoms: C_1  and  C_2
REMARK    2  A    between atoms: C_2  and  C_3
REMARK    3  A    between atoms: C_4  and  C_12
REMARK    4  A    between atoms: C_12  and  N_60
REMARK    5  A    between atoms: C_13  and  N_60
REMARK    6  A    between atoms: C_14  and  N_15
REMARK    7  A    between atoms: C_14  and  N_60
REMARK    8  A    between atoms: C_18  and  C_22
REMARK    9  A    between atoms: C_18  and  C_23
REMARK                            x       y       z     vdW  Elec       q    Type
REMARK                         _______ _______ _______ _____ _____    ______ ____
ROOT
ATOM      1  N   UNL     1       1.809   8.691   1.786  0.00  0.00    -0.241 N 
ATOM      2  C   UNL     1       2.272   7.994   0.729  0.00  0.00    +0.249 C 
ATOM      3  O   UNL     1       3.430   7.837   0.406  0.00  0.00    -0.272 OA
ATOM      4  C   UNL     1       1.044   7.447   0.029  0.00  0.00    +0.135 C 
ATOM      5  N   UNL     1      -0.074   7.946   0.849  0.00  0.00    -0.281 N 
ATOM      6  C   UNL     1       0.473   8.660   1.850  0.00  0.00    +0.308 C 
ATOM      7  O   UNL     1      -0.175   9.216   2.715  0.00  0.00    -0.252 OA
ATOM      8  C   UNL     1       0.952   7.989  -1.399  0.00  0.00    +0.047 C 
ATOM      9  H   UNL     1      -1.019   7.790   0.697  0.00  0.00    +0.152 HD
ENDROOT
BRANCH   4  10
ATOM     10  C   UNL     1       1.064   5.940   0.022  0.00  0.00    -0.015 A 
ATOM     11  C   UNL     1       2.286   5.270   0.007  0.00  0.00    +0.007 A 
ATOM     12  C   UNL     1       2.340   3.910  -0.000  0.00  0.00    +0.009 A 
ATOM     13  C   UNL     1       1.147   3.167   0.008  0.00  0.00    -0.018 A 
ATOM     14  C   UNL     1       1.163   1.762   0.000  0.00  0.00    +0.008 A 
ATOM     15  C   UNL     1      -0.013   1.076   0.008  0.00  0.00    +0.001 A 
ATOM     16  C   UNL     1      -1.235   1.746   0.017  0.00  0.00    +0.001 A 
ATOM     17  C   UNL     1      -1.288   3.106   0.031  0.00  0.00    +0.008 A 
ATOM     18  C   UNL     1      -0.096   3.849   0.023  0.00  0.00    -0.018 A 
ATOM     19  C   UNL     1      -0.111   5.254   0.030  0.00  0.00    +0.014 A 
ENDBRANCH   4  10
BRANCH   1  20
ATOM     20  C   UNL     1       2.663   9.393   2.746  0.00  0.00    +0.043 C 
BRANCH  20  22
ATOM     21  C   UNL     1       1.747  11.632   2.631  0.00  0.00    -0.093 C 
ATOM     22  N   UNL     1       2.889  10.770   2.258  0.00  0.00    +0.391 N 
ATOM     23  H   UNL     1       2.973  10.752   1.235  0.00  0.00    -0.079 HD
BRANCH  22  24
ATOM     24  C   UNL     1       4.138  11.311   2.832  0.00  0.00    -0.037 C 
BRANCH  24  26
ATOM     25  C   UNL     1       5.189  12.791   1.044  0.00  0.00    +0.107 A 
ATOM     26  C   UNL     1       4.459  12.618   2.154  0.00  0.00    -0.015 A 
ATOM     27  C   UNL     1       4.040  13.959   2.580  0.00  0.00    +0.022 A 
ATOM     28  C   UNL     1       3.282  14.452   3.642  0.00  0.00    +0.012 A 
ATOM     29  C   UNL     1       3.072  15.798   3.757  0.00  0.00    +0.001 A 
ATOM     30  C   UNL     1       3.606  16.675   2.823  0.00  0.00    +0.004 A 
ATOM     31  C   UNL     1       4.356  16.206   1.767  0.00  0.00    +0.047 A 
ATOM     32  C   UNL     1       4.583  14.841   1.632  0.00  0.00    +0.135 A 
ATOM     33  O   UNL     1       5.258  14.097   0.733  0.00  0.00    -0.459 OA
BRANCH  25  35
ATOM     34  C   UNL     1       4.863  11.181  -0.814  0.00  0.00    +0.012 C 
ATOM     35  C   UNL     1       5.836  11.681   0.256  0.00  0.00    +0.071 C 
ENDBRANCH  25  35
ENDBRANCH  24  26
ENDBRANCH  22  24
ENDBRANCH  20  22
ENDBRANCH   1  20
TORSDOF 6
