REMARK  Name = ZINC00906506
REMARK  11 active torsions:
REMARK  status: ('A' for Active; 'I' for Inactive)
REMARK    1  A    between atoms: C_1  and  C_2
REMARK    2  A    between atoms: C_5  and  S_13
REMARK    3  A    between atoms: N_6  and  C_7
REMARK    4  A    between atoms: C_7  and  C_8
REMARK    5  A    between atoms: S_13  and  C_14
REMARK    6  A    between atoms: C_14  and  C_15
REMARK    7  A    between atoms: N_17  and  C_18
REMARK    8  A    between atoms: N_17  and  C_24
REMARK    9  A    between atoms: C_24  and  C_26
REMARK   10  A    between atoms: C_24  and  C_33
REMARK   11  A    between atoms: N_35  and  C_36
REMARK                            x       y       z     vdW  Elec       q    Type
REMARK                         _______ _______ _______ _____ _____    ______ ____
ROOT
ATOM      1  C   UNL     1       1.032  -6.662   1.194  0.00  0.00    +0.231 C 
ATOM      2  O   UNL     1       0.867  -6.797   2.388  0.00  0.00    -0.274 OA
ATOM      3  N   UNL     1       0.471  -7.534   0.334  0.00  0.00    -0.255 N 
ENDROOT
BRANCH   3   4
ATOM      4  C   UNL     1       0.776  -7.465  -1.030  0.00  0.00    +0.037 A 
ATOM      5  C   UNL     1       0.278  -6.424  -1.803  0.00  0.00    +0.023 A 
ATOM      6  C   UNL     1       0.581  -6.358  -3.149  0.00  0.00    +0.002 A 
ATOM      7  C   UNL     1       1.378  -7.329  -3.727  0.00  0.00    +0.000 A 
ATOM      8  C   UNL     1       1.875  -8.367  -2.961  0.00  0.00    +0.002 A 
ATOM      9  C   UNL     1       1.581  -8.435  -1.613  0.00  0.00    +0.023 A 
ENDBRANCH   3   4
BRANCH   1  10
ATOM     10  C   UNL     1       1.866  -5.520   0.674  0.00  0.00    +0.173 C 
BRANCH  10  11
ATOM     11  S   UNL     1       2.421  -4.494   2.063  0.00  0.00    -0.077 S 
BRANCH  11  16
ATOM     12  C   UNL     1       5.436  -0.218   1.130  0.00  0.00    +0.088 C 
ATOM     13  C   UNL     1       4.605  -1.462   0.944  0.00  0.00    +0.131 A 
ATOM     14  N   UNL     1       4.327  -2.042  -0.189  0.00  0.00    -0.134 NA
ATOM     15  N   UNL     1       3.598  -3.080   0.014  0.00  0.00    -0.122 NA
ATOM     16  C   UNL     1       3.369  -3.220   1.300  0.00  0.00    +0.192 A 
ATOM     17  N   UNL     1       4.010  -2.194   1.933  0.00  0.00    -0.299 N 
BRANCH  17  18
ATOM     18  C   UNL     1       4.048  -1.931   3.374  0.00  0.00    +0.199 C 
BRANCH  18  19
ATOM     19  C   UNL     1       2.891  -1.043   3.753  0.00  0.00    +0.125 A 
ATOM     20  C   UNL     1       1.671  -1.462   4.134  0.00  0.00    +0.046 A 
ATOM     21  C   UNL     1       0.903  -0.303   4.394  0.00  0.00    +0.041 A 
ATOM     22  C   UNL     1       1.700   0.754   4.157  0.00  0.00    +0.195 A 
ATOM     23  O   UNL     1       2.905   0.300   3.774  0.00  0.00    -0.466 OA
ENDBRANCH  18  19
ENDBRANCH  17  18
ENDBRANCH  11  16
ENDBRANCH  10  11
ENDBRANCH   1  10
BRANCH   3  24
ATOM     24  C   UNL     1      -0.458  -8.555   0.826  0.00  0.00    +0.197 C 
BRANCH  24  25
ATOM     25  C   UNL     1      -0.823  -9.487  -0.300  0.00  0.00    -0.018 A 
ATOM     26  C   UNL     1      -1.362  -8.981  -1.469  0.00  0.00    +0.007 A 
ATOM     27  C   UNL     1      -1.698  -9.835  -2.502  0.00  0.00    +0.020 A 
ATOM     28  C   UNL     1      -1.494 -11.197  -2.367  0.00  0.00    +0.041 A 
ATOM     29  C   UNL     1      -0.954 -11.703  -1.198  0.00  0.00    +0.020 A 
ATOM     30  C   UNL     1      -0.614 -10.847  -0.167  0.00  0.00    +0.007 A 
ATOM     31 CL   UNL     1      -1.915 -12.271  -3.664  0.00  0.00    -0.084 Cl
ENDBRANCH  24  25
BRANCH  24  32
ATOM     32  C   UNL     1      -1.704  -7.888   1.350  0.00  0.00    +0.239 C 
ATOM     33  O   UNL     1      -1.805  -6.680   1.317  0.00  0.00    -0.273 OA
ATOM     34  N   UNL     1      -2.705  -8.635   1.857  0.00  0.00    -0.311 N 
ATOM     35  H   UNL     1      -2.623  -9.601   1.885  0.00  0.00    +0.149 HD
BRANCH  34  36
ATOM     36  C   UNL     1      -3.916  -7.987   2.367  0.00  0.00    +0.073 C 
ATOM     37  C   UNL     1      -3.694  -7.562   3.820  0.00  0.00    +0.022 C 
ATOM     38  C   UNL     1      -4.958  -6.886   4.353  0.00  0.00    +0.002 C 
ATOM     39  C   UNL     1      -6.130  -7.867   4.282  0.00  0.00    +0.000 C 
ATOM     40  C   UNL     1      -6.352  -8.292   2.829  0.00  0.00    +0.002 C 
ATOM     41  C   UNL     1      -5.088  -8.968   2.296  0.00  0.00    +0.022 C 
ENDBRANCH  34  36
ENDBRANCH  24  32
ENDBRANCH   3  24
TORSDOF 10
