REMARK  Name = ZINC13144269
REMARK  5 active torsions:
REMARK  status: ('A' for Active; 'I' for Inactive)
REMARK    1  A    between atoms: C_3  and  N_8
REMARK    2  A    between atoms: N_11  and  C_12
REMARK    3  A    between atoms: C_12  and  C_13
REMARK    4  A    between atoms: C_18  and  C_21
REMARK    5  A    between atoms: C_21  and  N_22
REMARK                            x       y       z     vdW  Elec       q    Type
REMARK                         _______ _______ _______ _____ _____    ______ ____
ROOT
ATOM      1  C   UNL     1       6.299   5.917  -0.429  0.00  0.00    +0.006 C 
ATOM      2  C   UNL     1       7.045   5.587   0.865  0.00  0.00    +0.005 C 
ATOM      3  C   UNL     1       8.497   6.056   0.750  0.00  0.00    +0.001 C 
ATOM      4  C   UNL     1       8.528   7.567   0.515  0.00  0.00    +0.005 C 
ATOM      5  C   UNL     1       7.781   7.898  -0.778  0.00  0.00    +0.006 C 
ATOM      6  C   UNL     1       6.329   7.429  -0.663  0.00  0.00    +0.010 C 
ENDROOT
BRANCH   1   7
ATOM      7  C   UNL     1       4.847   5.448  -0.314  0.00  0.00    +0.109 C 
BRANCH   7  11
ATOM      8  N   UNL     1       3.600   2.003  -0.001  0.00  0.00    -0.254 N 
ATOM      9  C   UNL     1       3.632   3.348  -0.098  0.00  0.00    +0.305 C 
ATOM     10  O   UNL     1       2.595   3.982  -0.084  0.00  0.00    -0.252 OA
ATOM     11  N   UNL     1       4.812   3.987  -0.209  0.00  0.00    -0.299 N 
ATOM     12  H   UNL     1       4.428   1.502   0.062  0.00  0.00    +0.158 HD
ATOM     13  H   UNL     1       5.640   3.481  -0.220  0.00  0.00    +0.150 HD
BRANCH   8  16
ATOM     14  C   UNL     1       1.133  -0.709   0.008  0.00  0.00    +0.025 A 
ATOM     15  C   UNL     1       2.353  -0.056  -0.001  0.00  0.00    +0.045 A 
ATOM     16  C   UNL     1       2.377   1.334   0.007  0.00  0.00    +0.126 A 
ATOM     17  N   UNL     1       1.250   2.027   0.022  0.00  0.00    -0.239 NA
ATOM     18  C   UNL     1       0.072   1.434   0.031  0.00  0.00    +0.132 A 
ATOM     19  C   UNL     1      -0.027   0.055   0.024  0.00  0.00    +0.059 A 
ATOM     20 CL   UNL     1      -1.583  -0.713   0.034  0.00  0.00    -0.082 Cl
ENDBRANCH   8  16
ENDBRANCH   7  11
ENDBRANCH   1   7
BRANCH   5  21
ATOM     21  C   UNL     1       7.811   9.410  -1.013  0.00  0.00    +0.109 C 
BRANCH  21  22
ATOM     22  N   UNL     1       9.193   9.841  -1.242  0.00  0.00    -0.299 N 
ATOM     23  C   UNL     1       9.464  11.141  -1.472  0.00  0.00    +0.305 C 
ATOM     24  O   UNL     1       8.562  11.956  -1.490  0.00  0.00    -0.252 OA
ATOM     25  N   UNL     1      10.735  11.537  -1.682  0.00  0.00    -0.254 N 
ATOM     26  C   UNL     1      11.029  12.894  -1.815  0.00  0.00    +0.126 A 
ATOM     27  C   UNL     1      12.353  13.303  -1.925  0.00  0.00    +0.045 A 
ATOM     28  C   UNL     1      12.632  14.652  -2.056  0.00  0.00    +0.025 A 
ATOM     29  C   UNL     1      11.571  15.549  -2.073  0.00  0.00    +0.059 A 
ATOM     30  C   UNL     1      10.279  15.071  -1.959  0.00  0.00    +0.132 A 
ATOM     31  N   UNL     1      10.045  13.778  -1.840  0.00  0.00    -0.239 NA
ATOM     32 CL   UNL     1      11.865  17.253  -2.235  0.00  0.00    -0.082 Cl
ATOM     33  H   UNL     1       9.912   9.190  -1.227  0.00  0.00    +0.150 HD
ATOM     34  H   UNL     1      11.445  10.879  -1.742  0.00  0.00    +0.158 HD
ENDBRANCH  21  22
ENDBRANCH   5  21
TORSDOF 5
