REMARK  Name = ZINC12544110
REMARK  12 active torsions:
REMARK  status: ('A' for Active; 'I' for Inactive)
REMARK    1  A    between atoms: C_1  and  C_2
REMARK    2  A    between atoms: C_2  and  C_3
REMARK    3  A    between atoms: C_2  and  C_4
REMARK    4  A    between atoms: C_2  and  C_5
REMARK    5  A    between atoms: C_10  and  C_13
REMARK    6  A    between atoms: N_15  and  C_16
REMARK    7  A    between atoms: C_16  and  C_17
REMARK    8  A    between atoms: C_17  and  C_19
REMARK    9  A    between atoms: C_17  and  C_28
REMARK   10  A    between atoms: C_22  and  N_25
REMARK   11  A    between atoms: N_25  and  C_26
REMARK   12  A    between atoms: N_25  and  C_27
REMARK                            x       y       z     vdW  Elec       q    Type
REMARK                         _______ _______ _______ _____ _____    ______ ____
ROOT
ATOM      1  C   UNL     1      -2.019   0.744  -1.074  0.00  0.00    +0.068 C 
ENDROOT
BRANCH   1   2
ATOM      2  C   UNL     1      -2.051   1.356   0.303  0.00  0.00    -0.013 A 
ATOM      3  C   UNL     1      -1.140   2.190   0.828  0.00  0.00    +0.088 A 
ATOM      4  N   UNL     1      -1.504   2.538   2.100  0.00  0.00    -0.360 N 
ATOM      5  H   UNL     1      -1.002   3.132   2.681  0.00  0.00    +0.165 HD
ATOM      6  C   UNL     1      -2.688   1.920   2.434  0.00  0.00    +0.047 A 
ATOM      7  C   UNL     1      -3.086   1.157   1.321  0.00  0.00    +0.003 A 
ATOM      8  C   UNL     1      -4.269   0.418   1.370  0.00  0.00    +0.010 A 
ATOM      9  C   UNL     1      -5.038   0.442   2.500  0.00  0.00    +0.001 A 
ATOM     10  C   UNL     1      -4.652   1.196   3.600  0.00  0.00    +0.002 A 
ATOM     11  C   UNL     1      -3.484   1.927   3.575  0.00  0.00    +0.026 A 
ENDBRANCH   1   2
BRANCH   1  12
ATOM     12  C   UNL     1      -0.771  -0.086  -1.226  0.00  0.00    -0.038 A 
ATOM     13  C   UNL     1       0.472   0.507  -1.098  0.00  0.00    +0.006 A 
ATOM     14  C   UNL     1       1.618  -0.250  -1.243  0.00  0.00    +0.023 A 
ATOM     15  C   UNL     1       1.522  -1.608  -1.516  0.00  0.00    +0.029 A 
ATOM     16  C   UNL     1       0.272  -2.201  -1.643  0.00  0.00    +0.023 A 
ATOM     17  C   UNL     1      -0.871  -1.438  -1.498  0.00  0.00    +0.006 A 
BRANCH  15  18
ATOM     18  N   UNL     1       2.679  -2.377  -1.663  0.00  0.00    -0.336 N 
ATOM     19  C   UNL     1       2.579  -3.831  -1.810  0.00  0.00    +0.129 C 
ATOM     20  C   UNL     1       3.992  -1.728  -1.671  0.00  0.00    +0.129 C 
ENDBRANCH  15  18
ENDBRANCH   1  12
BRANCH   1  21
ATOM     21  C   UNL     1      -2.024   1.856  -2.125  0.00  0.00    +0.117 C 
BRANCH  21  24
ATOM     22  C   UNL     1      -3.520   3.618  -2.894  0.00  0.00    +0.216 C 
ATOM     23  O   UNL     1      -2.678   3.938  -3.707  0.00  0.00    -0.276 OA
ATOM     24  N   UNL     1      -3.291   2.588  -2.056  0.00  0.00    -0.314 N 
ATOM     25  H   UNL     1      -3.964   2.332  -1.407  0.00  0.00    +0.149 HD
BRANCH  22  31
ATOM     26  C   UNL     1      -8.233   5.524  -4.802  0.00  0.00    +0.221 C 
ATOM     27  O   UNL     1      -8.139   6.431  -5.602  0.00  0.00    -0.275 OA
ATOM     28  N   UNL     1      -7.263   5.329  -3.887  0.00  0.00    -0.301 N 
ATOM     29  C   UNL     1      -6.139   6.269  -3.777  0.00  0.00    +0.108 C 
ATOM     30  C   UNL     1      -4.827   5.484  -3.875  0.00  0.00    +0.032 C 
ATOM     31  C   UNL     1      -4.823   4.372  -2.823  0.00  0.00    +0.078 C 
ATOM     32  C   UNL     1      -5.984   3.410  -3.090  0.00  0.00    +0.032 C 
ATOM     33  C   UNL     1      -7.308   4.173  -2.982  0.00  0.00    +0.108 C 
BRANCH  26  35
ATOM     34  C   UNL     1     -10.461   5.159  -5.827  0.00  0.00    +0.020 C 
ATOM     35  C   UNL     1      -9.435   4.616  -4.830  0.00  0.00    +0.039 C 
ATOM     36  C   UNL     1      -9.004   3.211  -5.255  0.00  0.00    +0.020 C 
ATOM     37  C   UNL     1     -10.062   4.556  -3.435  0.00  0.00    +0.020 C 
ENDBRANCH  26  35
ENDBRANCH  22  31
ENDBRANCH  21  24
ENDBRANCH   1  21
TORSDOF 7
