REMARK  Name = ZINC10042439
REMARK  14 active torsions:
REMARK  status: ('A' for Active; 'I' for Inactive)
REMARK    1  A    between atoms: C_1  and  C_2
REMARK    2  A    between atoms: C_2  and  C_3
REMARK    3  A    between atoms: C_3  and  O_4
REMARK    4  A    between atoms: O_4  and  C_5
REMARK    5  A    between atoms: C_5  and  C_7
REMARK    6  A    between atoms: C_10  and  C_13
REMARK    7  A    between atoms: C_16  and  C_18
REMARK    8  A    between atoms: N_19  and  N_20
REMARK    9  A    between atoms: C_21  and  C_23
REMARK   10  A    between atoms: C_23  and  C_25
REMARK   11  A    between atoms: C_23  and  N_28
REMARK   12  A    between atoms: C_25  and  C_26
REMARK   13  A    between atoms: C_25  and  C_27
REMARK   14  A    between atoms: C_29  and  C_31
REMARK                            x       y       z     vdW  Elec       q    Type
REMARK                         _______ _______ _______ _____ _____    ______ ____
ROOT
ATOM      1  C   UNL     1      -2.227   6.069  -0.862  0.00  0.00    +0.176 C 
ATOM      2  N   UNL     1      -1.638   5.499   0.149  0.00  0.00    -0.185 NA
ENDROOT
BRANCH   1   6
ATOM      3  C   UNL     1      -3.574   3.502  -3.024  0.00  0.00    +0.136 A 
ATOM      4  C   UNL     1      -3.847   4.599  -3.790  0.00  0.00    +0.050 A 
ATOM      5  C   UNL     1      -3.387   5.717  -3.086  0.00  0.00    +0.051 A 
ATOM      6  C   UNL     1      -2.837   5.250  -1.911  0.00  0.00    +0.148 A 
ATOM      7  O   UNL     1      -2.964   3.908  -1.893  0.00  0.00    -0.454 OA
BRANCH   3  11
ATOM      8  C   UNL     1      -4.490  -0.510  -4.035  0.00  0.00    +0.059 A 
ATOM      9  C   UNL     1      -3.852  -0.222  -2.824  0.00  0.00    +0.015 A 
ATOM     10  C   UNL     1      -3.556   1.070  -2.498  0.00  0.00    +0.012 A 
ATOM     11  C   UNL     1      -3.892   2.107  -3.376  0.00  0.00    +0.017 A 
ATOM     12  C   UNL     1      -4.536   1.820  -4.585  0.00  0.00    +0.012 A 
ATOM     13  C   UNL     1      -4.827   0.527  -4.912  0.00  0.00    +0.015 A 
BRANCH   8  14
ATOM     14  C   UNL     1      -4.809  -1.906  -4.387  0.00  0.00    +0.339 C 
ATOM     15  O   UNL     1      -4.518  -2.806  -3.625  0.00  0.00    -0.245 OA
BRANCH  14  16
ATOM     16  O   UNL     1      -5.425  -2.183  -5.553  0.00  0.00    -0.461 OA
BRANCH  16  17
ATOM     17  C   UNL     1      -5.708  -3.579  -5.834  0.00  0.00    +0.232 C 
BRANCH  17  19
ATOM     18  C   UNL     1      -6.702  -5.167  -7.487  0.00  0.00    +0.007 C 
ATOM     19  C   UNL     1      -6.403  -3.696  -7.191  0.00  0.00    +0.038 C 
ENDBRANCH  17  19
ENDBRANCH  16  17
ENDBRANCH  14  16
ENDBRANCH   8  14
ENDBRANCH   3  11
ENDBRANCH   1   6
BRANCH   2  20
ATOM     20  N   UNL     1      -1.417   4.115   0.142  0.00  0.00    -0.205 N 
ATOM     21  C   UNL     1      -0.911   3.508   1.234  0.00  0.00    +0.253 C 
ATOM     22  O   UNL     1      -0.647   4.160   2.222  0.00  0.00    -0.272 OA
ATOM     23  H   UNL     1      -1.629   3.595  -0.648  0.00  0.00    +0.177 HD
BRANCH  21  24
ATOM     24  C   UNL     1      -0.674   2.020   1.226  0.00  0.00    +0.163 C 
BRANCH  24  25
ATOM     25  N   UNL     1      -0.124   1.607   2.520  0.00  0.00    -0.300 N 
ATOM     26  C   UNL     1      -0.292   0.341   2.950  0.00  0.00    +0.245 C 
ATOM     27  O   UNL     1      -0.899  -0.459   2.264  0.00  0.00    -0.270 OA
ATOM     28  H   UNL     1       0.361   2.244   3.067  0.00  0.00    +0.150 HD
BRANCH  26  29
ATOM     29  C   UNL     1       0.263  -0.076   4.254  0.00  0.00    +0.037 A 
ATOM     30  C   UNL     1       0.967   0.838   5.041  0.00  0.00    +0.014 A 
ATOM     31  C   UNL     1       1.477   0.445   6.261  0.00  0.00    +0.021 A 
ATOM     32  C   UNL     1       1.303  -0.858   6.700  0.00  0.00    +0.041 A 
ATOM     33  C   UNL     1       0.612  -1.770   5.921  0.00  0.00    +0.021 A 
ATOM     34  C   UNL     1       0.091  -1.387   4.702  0.00  0.00    +0.014 A 
ATOM     35 CL   UNL     1       1.954  -1.347   8.233  0.00  0.00    -0.084 Cl
ENDBRANCH  26  29
ENDBRANCH  24  25
BRANCH  24  36
ATOM     36  C   UNL     1       0.316   1.667   0.115  0.00  0.00    +0.012 C 
ATOM     37  C   UNL     1       0.462   0.146   0.025  0.00  0.00    +0.009 C 
ATOM     38  C   UNL     1       1.677   2.292   0.426  0.00  0.00    +0.009 C 
ENDBRANCH  24  36
ENDBRANCH  21  24
ENDBRANCH   2  20
TORSDOF 11
