REMARK  Name = ZINC28308468
REMARK  7 active torsions:
REMARK  status: ('A' for Active; 'I' for Inactive)
REMARK    1  A    between atoms: C_1  and  C_2
REMARK    2  A    between atoms: C_5  and  N_9
REMARK    3  A    between atoms: C_6  and  C_8
REMARK    4  A    between atoms: C_10  and  C_12
REMARK    5  A    between atoms: C_12  and  N_19
REMARK    6  A    between atoms: C_13  and  C_14
REMARK    7  A    between atoms: C_20  and  C_22
REMARK                            x       y       z     vdW  Elec       q    Type
REMARK                         _______ _______ _______ _____ _____    ______ ____
ROOT
ATOM      1  C   UNL     1      -3.635   2.186   0.248  0.00  0.00    +0.100 C 
ATOM      2  C   UNL     1      -3.585   3.535   0.411  0.00  0.00    +0.074 C 
ENDROOT
BRANCH   2   3
ATOM      3  C   UNL     1      -2.334   4.199   0.446  0.00  0.00    +0.130 A 
ATOM      4  C   UNL     1      -2.131   5.535   0.721  0.00  0.00    +0.049 A 
ATOM      5  C   UNL     1      -0.745   5.752   0.647  0.00  0.00    +0.042 A 
ATOM      6  C   UNL     1      -0.172   4.568   0.337  0.00  0.00    +0.195 A 
ATOM      7  O   UNL     1      -1.129   3.635   0.223  0.00  0.00    -0.463 OA
ENDBRANCH   2   3
BRANCH   1   9
ATOM      8  N   UNL     1      -1.857   0.998   1.416  0.00  0.00    -0.280 N 
ATOM      9  C   UNL     1      -2.397   1.402   0.249  0.00  0.00    +0.263 C 
ATOM     10  O   UNL     1      -1.857   1.116  -0.803  0.00  0.00    -0.268 OA
ATOM     11  H   UNL     1      -2.365   1.225   2.365  0.00  0.00    +0.155 HD
BRANCH   8  16
ATOM     12  C   UNL     1       3.045  -1.856   1.427  0.00  0.00    +0.044 C 
ATOM     13  C   UNL     1       1.742  -1.099   1.425  0.00  0.00    -0.050 A 
ATOM     14  C   UNL     1       0.937  -1.113   0.300  0.00  0.00    +0.005 A 
ATOM     15  C   UNL     1      -0.257  -0.421   0.294  0.00  0.00    +0.024 A 
ATOM     16  C   UNL     1      -0.651   0.291   1.420  0.00  0.00    +0.037 A 
ATOM     17  C   UNL     1       0.159   0.303   2.549  0.00  0.00    -0.029 A 
ATOM     18  C   UNL     1       1.353  -0.391   2.547  0.00  0.00    +0.008 A 
ATOM     19  C   UNL     1      -0.264   1.074   3.772  0.00  0.00    +0.045 C 
ENDBRANCH   8  16
ENDBRANCH   1   9
BRANCH   1  20
ATOM     20  N   UNL     1      -4.868   1.547   0.078  0.00  0.00    -0.277 N 
ATOM     21  C   UNL     1      -4.929   0.201   0.033  0.00  0.00    +0.249 C 
ATOM     22  O   UNL     1      -3.923  -0.459   0.211  0.00  0.00    -0.270 OA
ATOM     23  H   UNL     1      -5.787   2.143  -0.020  0.00  0.00    +0.155 HD
BRANCH  21  24
ATOM     24  C   UNL     1      -6.217  -0.472  -0.231  0.00  0.00    +0.051 A 
ATOM     25  C   UNL     1      -7.375   0.283  -0.430  0.00  0.00    +0.014 A 
ATOM     26  C   UNL     1      -8.574  -0.351  -0.681  0.00  0.00    +0.001 A 
ATOM     27  C   UNL     1      -8.633  -1.733  -0.727  0.00  0.00    +0.001 A 
ATOM     28  C   UNL     1      -7.492  -2.488  -0.525  0.00  0.00    +0.016 A 
ATOM     29  C   UNL     1      -6.284  -1.866  -0.278  0.00  0.00    +0.030 A 
ATOM     30 BR   UNL     1      -4.725  -2.900  -0.003  0.00  0.00    -0.050 Br
ENDBRANCH  21  24
ENDBRANCH   1  20
TORSDOF 5
