REMARK  Name = ZINC12765975
REMARK  8 active torsions:
REMARK  status: ('A' for Active; 'I' for Inactive)
REMARK    1  A    between atoms: C_1  and  C_2
REMARK    2  A    between atoms: C_2  and  C_3
REMARK    3  A    between atoms: C_3  and  C_4
REMARK    4  A    between atoms: C_7  and  N_10
REMARK    5  A    between atoms: N_10  and  C_11
REMARK    6  A    between atoms: C_11  and  C_13
REMARK    7  A    between atoms: C_11  and  C_14
REMARK    8  A    between atoms: N_16  and  C_17
REMARK                            x       y       z     vdW  Elec       q    Type
REMARK                         _______ _______ _______ _____ _____    ______ ____
ROOT
ATOM      1  C   UNL     1       1.364   1.745   0.086  0.00  0.00    +0.237 C 
ATOM      2  O   UNL     1       1.711   2.574  -0.729  0.00  0.00    -0.273 OA
ATOM      3  N   UNL     1       2.245   1.288   0.998  0.00  0.00    -0.284 N 
ATOM      4  H   UNL     1       1.949   0.684   1.698  0.00  0.00    +0.155 HD
ENDROOT
BRANCH   3   5
ATOM      5  C   UNL     1       3.587   1.685   0.937  0.00  0.00    +0.036 A 
ATOM      6  C   UNL     1       4.319   1.838   2.109  0.00  0.00    +0.025 A 
ATOM      7  C   UNL     1       5.642   2.229   2.055  0.00  0.00    +0.029 A 
ATOM      8  C   UNL     1       6.244   2.469   0.828  0.00  0.00    +0.067 A 
ATOM      9  C   UNL     1       5.511   2.315  -0.350  0.00  0.00    +0.069 A 
ATOM     10  C   UNL     1       4.184   1.918  -0.293  0.00  0.00    +0.051 A 
ATOM     11  N   UNL     1       6.371   2.622  -1.402  0.00  0.00    -0.306 N 
ATOM     12  H   UNL     1       6.143   2.604  -2.345  0.00  0.00    +0.170 HD
ATOM     13  C   UNL     1       7.572   2.947  -0.888  0.00  0.00    +0.325 A 
ATOM     14  O   UNL     1       8.549   3.268  -1.539  0.00  0.00    -0.247 OA
ATOM     15  N   UNL     1       7.528   2.865   0.455  0.00  0.00    -0.306 N 
ATOM     16  H   UNL     1       8.263   3.050   1.059  0.00  0.00    +0.170 HD
ENDBRANCH   3   5
BRANCH   1  17
ATOM     17  C   UNL     1      -0.051   1.228   0.080  0.00  0.00    +0.154 C 
ATOM     18  C   UNL     1      -0.714   1.539   1.423  0.00  0.00    +0.038 C 
BRANCH  17  19
ATOM     19  N   UNL     1      -0.802   1.875  -0.998  0.00  0.00    -0.333 N 
ATOM     20  H   UNL     1      -0.527   2.745  -1.327  0.00  0.00    +0.147 HD
BRANCH  19  24
ATOM     21  C   UNL     1      -4.121  -0.019  -2.652  0.00  0.00    -0.047 A 
ATOM     22  C   UNL     1      -3.730   1.221  -3.122  0.00  0.00    +0.005 A 
ATOM     23  C   UNL     1      -2.630   1.852  -2.575  0.00  0.00    +0.023 A 
ATOM     24  C   UNL     1      -1.916   1.240  -1.553  0.00  0.00    +0.028 A 
ATOM     25  C   UNL     1      -2.308  -0.009  -1.087  0.00  0.00    +0.023 A 
ATOM     26  C   UNL     1      -3.413  -0.632  -1.635  0.00  0.00    +0.005 A 
BRANCH  21  27
ATOM     27  C   UNL     1      -5.322  -0.705  -3.251  0.00  0.00    +0.035 C 
BRANCH  27  29
ATOM     28  C   UNL     1      -6.098  -2.270  -5.037  0.00  0.00    +0.004 C 
ATOM     29  C   UNL     1      -4.879  -1.574  -4.429  0.00  0.00    +0.001 C 
ENDBRANCH  27  29
ENDBRANCH  21  27
ENDBRANCH  19  24
ENDBRANCH  17  19
ENDBRANCH   1  17
TORSDOF 6
