REMARK  Name = ZINC40145704
REMARK  10 active torsions:
REMARK  status: ('A' for Active; 'I' for Inactive)
REMARK    1  A    between atoms: C_1  and  C_2
REMARK    2  A    between atoms: C_2  and  C_3
REMARK    3  A    between atoms: C_2  and  C_4
REMARK    4  A    between atoms: C_2  and  C_5
REMARK    5  A    between atoms: C_5  and  C_7
REMARK    6  A    between atoms: C_5  and  N_13
REMARK    7  A    between atoms: C_7  and  N_8
REMARK    8  A    between atoms: N_16  and  C_17
REMARK    9  A    between atoms: C_20  and  S_23
REMARK   10  A    between atoms: S_23  and  N_26
REMARK                            x       y       z     vdW  Elec       q    Type
REMARK                         _______ _______ _______ _____ _____    ______ ____
ROOT
ATOM      1  N   UNL     1      -0.099   0.060  -2.346  0.00  0.00    -0.294 N 
ATOM      2  C   UNL     1      -1.156  -0.615  -2.839  0.00  0.00    +0.304 C 
ATOM      3  O   UNL     1      -1.625  -1.550  -2.218  0.00  0.00    -0.252 OA
ATOM      4  N   UNL     1      -1.694  -0.254  -4.021  0.00  0.00    -0.269 N 
ATOM      5  H   UNL     1       0.275   0.805  -2.841  0.00  0.00    +0.151 HD
ATOM      6  H   UNL     1      -1.371   0.537  -4.479  0.00  0.00    +0.156 HD
ENDROOT
BRANCH   4   7
ATOM      7  C   UNL     1      -2.719  -1.021  -4.586  0.00  0.00    +0.035 A 
ATOM      8  C   UNL     1      -3.712  -0.409  -5.339  0.00  0.00    +0.025 A 
ATOM      9  C   UNL     1      -4.722  -1.169  -5.897  0.00  0.00    +0.030 A 
ATOM     10  C   UNL     1      -4.744  -2.538  -5.706  0.00  0.00    +0.106 A 
ATOM     11  C   UNL     1      -3.757  -3.151  -4.956  0.00  0.00    +0.030 A 
ATOM     12  C   UNL     1      -2.742  -2.397  -4.401  0.00  0.00    +0.025 A 
BRANCH  10  13
ATOM     13  S   UNL     1      -6.034  -3.504  -6.418  0.00  0.00    +0.061 S 
ATOM     14  O   UNL     1      -6.133  -4.688  -5.639  0.00  0.00    -0.153 OA
ATOM     15  O   UNL     1      -7.135  -2.628  -6.616  0.00  0.00    -0.153 OA
BRANCH  13  16
ATOM     16  N   UNL     1      -5.523  -3.970  -7.923  0.00  0.00    -0.177 NA
ATOM     17  C   UNL     1      -5.795  -3.131  -9.099  0.00  0.00    +0.109 C 
ATOM     18  C   UNL     1      -4.475  -2.858  -9.826  0.00  0.00    +0.017 C 
ATOM     19  C   UNL     1      -3.790  -4.188 -10.148  0.00  0.00    +0.003 C 
ATOM     20  C   UNL     1      -3.479  -4.931  -8.847  0.00  0.00    +0.017 C 
ATOM     21  C   UNL     1      -4.783  -5.225  -8.107  0.00  0.00    +0.109 C 
ENDBRANCH  13  16
ENDBRANCH  10  13
ENDBRANCH   4   7
BRANCH   1  22
ATOM     22  C   UNL     1       0.486  -0.332  -1.061  0.00  0.00    +0.099 C 
BRANCH  22  24
ATOM     23  C   UNL     1      -0.205   1.858  -0.078  0.00  0.00    +0.012 C 
ATOM     24  C   UNL     1      -0.286   0.338   0.077  0.00  0.00    -0.018 C 
ATOM     25  C   UNL     1       0.324  -0.072   1.419  0.00  0.00    +0.012 C 
ATOM     26  C   UNL     1      -1.751  -0.102   0.028  0.00  0.00    +0.012 C 
ENDBRANCH  22  24
BRANCH  22  27
ATOM     27  C   UNL     1       1.950   0.108  -1.012  0.00  0.00    +0.145 C 
BRANCH  27  28
ATOM     28  N   UNL     1       2.715  -0.624  -2.025  0.00  0.00    -0.337 N 
ATOM     29  C   UNL     1       3.347  -1.826  -1.855  0.00  0.00    +0.104 A 
ATOM     30  C   UNL     1       3.922  -2.134  -3.033  0.00  0.00    +0.101 A 
ATOM     31  N   UNL     1       3.649  -1.147  -3.899  0.00  0.00    -0.352 N 
ATOM     32  C   UNL     1       2.922  -0.242  -3.304  0.00  0.00    +0.173 A 
ATOM     33  H   UNL     1       3.942  -1.113  -4.823  0.00  0.00    +0.166 HD
ENDBRANCH  27  28
ENDBRANCH  22  27
ENDBRANCH   1  22
TORSDOF 7
