REMARK  Name = ZINC63230455
REMARK  10 active torsions:
REMARK  status: ('A' for Active; 'I' for Inactive)
REMARK    1  A    between atoms: C_1  and  O_2
REMARK    2  A    between atoms: O_2  and  C_3
REMARK    3  A    between atoms: C_6  and  C_21
REMARK    4  A    between atoms: C_8  and  S_9
REMARK    5  A    between atoms: S_9  and  N_12
REMARK    6  A    between atoms: N_12  and  C_13
REMARK    7  A    between atoms: C_13  and  C_14
REMARK    8  A    between atoms: N_23  and  C_24
REMARK    9  A    between atoms: C_24  and  C_25
REMARK   10  A    between atoms: C_25  and  C_26
REMARK                            x       y       z     vdW  Elec       q    Type
REMARK                         _______ _______ _______ _____ _____    ______ ____
ROOT
ATOM      1  C   UNL     1       0.625  -0.618   1.040  0.00  0.00    +0.146 A 
ATOM      2  C   UNL     1       1.202   0.144   2.050  0.00  0.00    +0.048 A 
ATOM      3  C   UNL     1       1.834  -0.475   3.105  0.00  0.00    +0.017 A 
ATOM      4  C   UNL     1       1.896  -1.870   3.160  0.00  0.00    +0.039 A 
ATOM      5  C   UNL     1       1.315  -2.631   2.142  0.00  0.00    +0.045 A 
ATOM      6  C   UNL     1       0.680  -2.005   1.093  0.00  0.00    +0.147 A 
ENDROOT
BRANCH   4   7
ATOM      7  C   UNL     1       2.573  -2.537   4.289  0.00  0.00    +0.244 C 
ATOM      8  O   UNL     1       2.626  -3.751   4.334  0.00  0.00    -0.270 OA
ATOM      9  N   UNL     1       3.133  -1.801   5.269  0.00  0.00    -0.311 N 
ATOM     10  H   UNL     1       3.091  -0.832   5.232  0.00  0.00    +0.149 HD
BRANCH   9  11
ATOM     11  C   UNL     1       3.806  -2.463   6.389  0.00  0.00    +0.109 C 
BRANCH  11  12
ATOM     12  C   UNL     1       4.350  -1.407   7.354  0.00  0.00    +0.052 C 
BRANCH  12  13
ATOM     13  C   UNL     1       5.041  -2.088   8.506  0.00  0.00    -0.040 C 
ATOM     14  C   UNL     1       6.364  -2.347   8.623  0.00  0.00    -0.001 A 
ATOM     15  C   UNL     1       7.510  -2.083   7.745  0.00  0.00    +0.010 A 
ATOM     16  C   UNL     1       8.743  -2.470   8.142  0.00  0.00    +0.001 A 
ATOM     17  C   UNL     1       8.954  -3.115   9.369  0.00  0.00    +0.002 A 
ATOM     18  C   UNL     1       7.952  -3.391  10.229  0.00  0.00    +0.026 A 
ATOM     19  C   UNL     1       6.613  -3.029   9.913  0.00  0.00    +0.043 A 
ATOM     20  N   UNL     1       5.488  -3.186  10.568  0.00  0.00    -0.380 N 
ATOM     21  C   UNL     1       4.398  -2.615   9.770  0.00  0.00    +0.144 C 
ATOM     22  H   UNL     1       5.394  -3.606  11.438  0.00  0.00    +0.160 HD
ENDBRANCH  12  13
ENDBRANCH  11  12
ENDBRANCH   9  11
ENDBRANCH   4   7
BRANCH   6  23
ATOM     23  S   UNL     1      -0.059  -2.965  -0.187  0.00  0.00    +0.062 S 
ATOM     24  O   UNL     1       0.397  -2.419  -1.417  0.00  0.00    -0.153 OA
ATOM     25  O   UNL     1       0.138  -4.328   0.162  0.00  0.00    -0.153 OA
BRANCH  23  26
ATOM     26  N   UNL     1      -1.691  -2.691  -0.124  0.00  0.00    -0.186 NA
ATOM     27  H   UNL     1      -2.296  -3.415   0.103  0.00  0.00    +0.148 HD
BRANCH  26  28
ATOM     28  C   UNL     1      -2.222  -1.356  -0.411  0.00  0.00    +0.141 C 
BRANCH  28  29
ATOM     29  C   UNL     1      -3.707  -1.447  -0.650  0.00  0.00    -0.032 A 
ATOM     30  C   UNL     1      -4.189  -1.666  -1.927  0.00  0.00    +0.006 A 
ATOM     31  C   UNL     1      -5.551  -1.750  -2.147  0.00  0.00    +0.020 A 
ATOM     32  C   UNL     1      -6.432  -1.613  -1.088  0.00  0.00    +0.041 A 
ATOM     33  C   UNL     1      -5.949  -1.393   0.189  0.00  0.00    +0.020 A 
ATOM     34  C   UNL     1      -4.586  -1.316   0.408  0.00  0.00    +0.006 A 
ATOM     35 CL   UNL     1      -8.143  -1.717  -1.364  0.00  0.00    -0.084 Cl
ENDBRANCH  28  29
ENDBRANCH  26  28
ENDBRANCH  23  26
ENDBRANCH   6  23
BRANCH   1  37
ATOM     36  C   UNL     1      -0.017   1.425   0.010  0.00  0.00    +0.277 C 
ATOM     37  O   UNL     1       0.002  -0.004   0.002  0.00  0.00    -0.493 OA
ENDBRANCH   1  37
TORSDOF 9
