REMARK  Name = ZINC38549825
REMARK  10 active torsions:
REMARK  status: ('A' for Active; 'I' for Inactive)
REMARK    1  A    between atoms: C_1  and  C_2
REMARK    2  A    between atoms: C_5  and  C_37
REMARK    3  A    between atoms: C_5  and  C_38
REMARK    4  A    between atoms: C_15  and  C_36
REMARK    5  A    between atoms: C_16  and  C_19
REMARK    6  A    between atoms: C_24  and  C_35
REMARK    7  A    between atoms: C_32  and  C_33
REMARK    8  A    between atoms: C_32  and  C_34
REMARK    9  A    between atoms: C_38  and  O_40
REMARK   10  A    between atoms: O_40  and  C_41
REMARK                            x       y       z     vdW  Elec       q    Type
REMARK                         _______ _______ _______ _____ _____    ______ ____
ROOT
ATOM      1  C   UNL     1       0.530   1.580  -1.765  0.00  0.00    +0.012 C 
ATOM      2  C   UNL     1       0.581   0.056  -1.858  0.00  0.00    -0.025 C 
ATOM      3  C   UNL     1      -0.745  -0.465  -2.412  0.00  0.00    +0.008 C 
ATOM      4  C   UNL     1      -1.887  -0.150  -1.450  0.00  0.00    +0.018 C 
ATOM      5  C   UNL     1      -1.627  -0.735  -0.064  0.00  0.00    +0.066 C 
ATOM      6  C   UNL     1      -0.286  -0.247   0.485  0.00  0.00    +0.026 C 
ATOM      7  C   UNL     1       0.841  -0.558  -0.485  0.00  0.00    +0.023 C 
ATOM      8  C   UNL     1       2.172  -0.055   0.039  0.00  0.00    -0.056 C 
ATOM      9  C   UNL     1       2.223   0.416   1.283  0.00  0.00    +0.046 C 
ATOM     10  C   UNL     1       3.497   0.859   1.875  0.00  0.00    +0.160 C 
ATOM     11  O   UNL     1       3.497   1.483   2.915  0.00  0.00    -0.292 OA
ATOM     12  C   UNL     1       4.751   0.435   1.143  0.00  0.00    +0.073 C 
ATOM     13  C   UNL     1       4.546   0.701  -0.338  0.00  0.00    -0.013 C 
ATOM     14  C   UNL     1       3.372  -0.129  -0.864  0.00  0.00    -0.004 C 
ATOM     15  C   UNL     1       3.038   0.257  -2.298  0.00  0.00    +0.012 C 
ATOM     16  C   UNL     1       1.729  -0.364  -2.782  0.00  0.00    +0.008 C 
ATOM     17  C   UNL     1       3.802  -1.605  -0.882  0.00  0.00    +0.016 C 
ATOM     18  C   UNL     1       5.808   0.419  -1.142  0.00  0.00    +0.008 C 
ATOM     19  C   UNL     1       7.003   1.166  -0.533  0.00  0.00    +0.005 C 
ATOM     20  C   UNL     1       7.209   0.677   0.899  0.00  0.00    +0.007 C 
ATOM     21  C   UNL     1       6.013   1.029   1.770  0.00  0.00    -0.017 C 
ATOM     22  C   UNL     1       6.105   0.426   3.179  0.00  0.00    +0.022 C 
ATOM     23  C   UNL     1       7.510   0.402   3.747  0.00  0.00    +0.079 C 
ATOM     24  C   UNL     1       7.571   1.010   5.131  0.00  0.00    +0.117 C 
ATOM     25  N   UNL     1       8.353   2.038   5.035  0.00  0.00    -0.161 NA
ATOM     26  N   UNL     1       8.831   2.226   3.737  0.00  0.00    -0.158 NA
ATOM     27  C   UNL     1       8.381   1.346   2.933  0.00  0.00    +0.055 C 
ATOM     28  C   UNL     1       8.552   1.159   1.447  0.00  0.00    +0.009 C 
ATOM     29  C   UNL     1       9.021   2.465   0.809  0.00  0.00    +0.017 C 
ATOM     30  C   UNL     1       9.621   0.077   1.211  0.00  0.00    +0.017 C 
ATOM     31  C   UNL     1       5.899   2.542   1.934  0.00  0.00    +0.012 C 
ATOM     32  C   UNL     1       4.160   2.177  -0.537  0.00  0.00    +0.013 C 
ATOM     33  C   UNL     1      -1.650  -2.263  -0.125  0.00  0.00    +0.023 C 
ENDROOT
BRANCH   5  34
ATOM     34  C   UNL     1      -2.727  -0.275   0.869  0.00  0.00    +0.313 C 
ATOM     35  O   UNL     1      -2.454   0.374   1.850  0.00  0.00    -0.250 OA
BRANCH  34  36
ATOM     36  O   UNL     1      -4.005  -0.589   0.605  0.00  0.00    -0.468 OA
ATOM     37  C   UNL     1      -4.991  -0.122   1.528  0.00  0.00    +0.280 C 
ENDBRANCH  34  36
ENDBRANCH   5  34
TORSDOF 2
