REMARK  Name = ZINC33752987
REMARK  11 active torsions:
REMARK  status: ('A' for Active; 'I' for Inactive)
REMARK    1  A    between atoms: C_1  and  C_2
REMARK    2  A    between atoms: C_2  and  O_3
REMARK    3  A    between atoms: O_3  and  C_4
REMARK    4  A    between atoms: C_7  and  C_12
REMARK    5  A    between atoms: C_9  and  O_10
REMARK    6  A    between atoms: O_10  and  C_11
REMARK    7  A    between atoms: C_14  and  C_15
REMARK    8  A    between atoms: C_15  and  C_16
REMARK    9  A    between atoms: C_30  and  C_36
REMARK   10  A    between atoms: C_31  and  C_33
REMARK   11  A    between atoms: C_33  and  C_35
REMARK                            x       y       z     vdW  Elec       q    Type
REMARK                         _______ _______ _______ _____ _____    ______ ____
ROOT
ATOM      1  C   UNL     1       3.781   1.105   0.758  0.00  0.00    +0.152 C 
ATOM      2  C   UNL     1       2.404   0.818   0.206  0.00  0.00    +0.077 C 
ATOM      3  C   UNL     1       2.317  -0.582   0.080  0.00  0.00    +0.250 C 
ATOM      4  O   UNL     1       1.356  -1.204  -0.332  0.00  0.00    -0.282 OA
ATOM      5  C   UNL     1       3.606  -1.167   0.540  0.00  0.00    +0.293 C 
ATOM      6  O   UNL     1       3.862  -2.354   0.560  0.00  0.00    -0.266 OA
ATOM      7  N   UNL     1       4.440  -0.192   0.938  0.00  0.00    -0.232 N 
ATOM      8  C   UNL     1       5.717  -0.381   1.427  0.00  0.00    +0.169 A 
ATOM      9  N   UNL     1       6.595   0.529   1.825  0.00  0.00    -0.229 NA
ATOM     10  C   UNL     1       7.774   0.194   2.272  0.00  0.00    +0.058 A 
ATOM     11  C   UNL     1       8.091  -1.163   2.308  0.00  0.00    +0.078 A 
ATOM     12  S   UNL     1       6.579  -1.869   1.668  0.00  0.00    -0.049 S 
ATOM     13  C   UNL     1       8.761   1.237   2.728  0.00  0.00    +0.067 C 
ENDROOT
BRANCH   1  17
ATOM     14  C   UNL     1       3.464   3.116   4.518  0.00  0.00    +0.162 A 
ATOM     15  C   UNL     1       3.894   3.804   3.395  0.00  0.00    +0.050 A 
ATOM     16  C   UNL     1       3.996   3.151   2.181  0.00  0.00    +0.009 A 
ATOM     17  C   UNL     1       3.669   1.811   2.084  0.00  0.00    -0.018 A 
ATOM     18  C   UNL     1       3.233   1.120   3.199  0.00  0.00    +0.055 A 
ATOM     19  C   UNL     1       3.134   1.768   4.420  0.00  0.00    +0.162 A 
BRANCH  19  20
ATOM     20  O   UNL     1       2.711   1.088   5.519  0.00  0.00    -0.491 OA
ATOM     21  C   UNL     1       2.275  -0.258   5.322  0.00  0.00    +0.277 C 
ENDBRANCH  19  20
BRANCH  14  22
ATOM     22  O   UNL     1       3.363   3.757   5.713  0.00  0.00    -0.489 OA
BRANCH  22  24
ATOM     23  C   UNL     1       3.542   5.686   7.158  0.00  0.00    +0.048 C 
ATOM     24  C   UNL     1       3.718   5.141   5.739  0.00  0.00    +0.226 C 
ENDBRANCH  22  24
ENDBRANCH  14  22
ENDBRANCH   1  17
BRANCH  11  25
ATOM     25  C   UNL     1       9.274  -1.801   2.731  0.00  0.00    +0.168 C 
ATOM     26  O   UNL     1      10.207  -1.140   3.141  0.00  0.00    -0.292 OA
ATOM     27  C   UNL     1       9.382  -3.303   2.675  0.00  0.00    +0.092 C 
ENDBRANCH  11  25
BRANCH   2  28
ATOM     28  C   UNL     1       1.430   1.738  -0.110  0.00  0.00    +0.195 C 
ATOM     29  O   UNL     1       0.203   1.321  -0.487  0.00  0.00    -0.287 OA
BRANCH  28  30
ATOM     30  C   UNL     1       1.728   3.183  -0.036  0.00  0.00    +0.025 A 
ATOM     31  C   UNL     1       0.861   4.065   0.621  0.00  0.00    +0.031 A 
ATOM     32  C   UNL     1       1.182   5.406   0.670  0.00  0.00    +0.111 A 
ATOM     33  N   UNL     1       2.281   5.861   0.101  0.00  0.00    -0.263 NA
ATOM     34  C   UNL     1       3.123   5.067  -0.532  0.00  0.00    +0.111 A 
ATOM     35  C   UNL     1       2.884   3.711  -0.626  0.00  0.00    +0.031 A 
ENDBRANCH  28  30
ENDBRANCH   2  28
TORSDOF 7
