REMARK  Name = ZINC39024603
REMARK  7 active torsions:
REMARK  status: ('A' for Active; 'I' for Inactive)
REMARK    1  A    between atoms: C_3  and  N_8
REMARK    2  A    between atoms: C_9  and  S_14
REMARK    3  A    between atoms: S_14  and  C_15
REMARK    4  A    between atoms: C_15  and  C_16
REMARK    5  A    between atoms: N_18  and  C_19
REMARK    6  A    between atoms: C_19  and  C_20
REMARK    7  A    between atoms: C_20  and  C_21
REMARK                            x       y       z     vdW  Elec       q    Type
REMARK                         _______ _______ _______ _____ _____    ______ ____
ROOT
ATOM      1  C   UNL     1       4.952   1.813  -2.889  0.00  0.00    +0.167 C 
ENDROOT
BRANCH   1   2
ATOM      2  C   UNL     1       5.134   1.144  -4.228  0.00  0.00    +0.223 C 
ATOM      3  O   UNL     1       5.395  -0.039  -4.284  0.00  0.00    -0.275 OA
ATOM      4  N   UNL     1       5.006   1.861  -5.362  0.00  0.00    -0.314 N 
ATOM      5  H   UNL     1       4.798   2.807  -5.317  0.00  0.00    +0.149 HD
BRANCH   4   6
ATOM      6  C   UNL     1       5.183   1.210  -6.663  0.00  0.00    +0.109 C 
BRANCH   6   7
ATOM      7  C   UNL     1       4.987   2.239  -7.778  0.00  0.00    +0.056 C 
BRANCH   7   8
ATOM      8  C   UNL     1       5.169   1.571  -9.116  0.00  0.00    -0.021 A 
ATOM      9  C   UNL     1       4.147   0.843  -9.873  0.00  0.00    +0.004 A 
ATOM     10  C   UNL     1       2.801   0.547  -9.649  0.00  0.00    +0.030 A 
ATOM     11  C   UNL     1       2.098  -0.178 -10.585  0.00  0.00    +0.042 A 
ATOM     12  C   UNL     1       2.721  -0.615 -11.747  0.00  0.00    +0.022 A 
ATOM     13  C   UNL     1       4.048  -0.331 -11.982  0.00  0.00    +0.027 A 
ATOM     14  C   UNL     1       4.777   0.401 -11.051  0.00  0.00    +0.047 A 
ATOM     15  N   UNL     1       6.083   0.834 -11.000  0.00  0.00    -0.360 N 
ATOM     16  C   UNL     1       6.297   1.534  -9.843  0.00  0.00    +0.087 A 
ATOM     17 CL   UNL     1       0.424  -0.548 -10.310  0.00  0.00    -0.084 Cl
ATOM     18  H   UNL     1       6.752   0.670 -11.683  0.00  0.00    +0.165 HD
ENDBRANCH   7   8
ENDBRANCH   6   7
ENDBRANCH   4   6
ENDBRANCH   1   2
BRANCH   1  19
ATOM     19  S   UNL     1       5.185   0.593  -1.567  0.00  0.00    -0.114 S 
BRANCH  19  21
ATOM     20  N   UNL     1       3.582   2.124  -0.021  0.00  0.00    -0.254 N 
ATOM     21  C   UNL     1       4.936   1.544  -0.043  0.00  0.00    +0.203 C 
ATOM     22  N   UNL     1       5.868   2.698   0.001  0.00  0.00    -0.320 NA
ATOM     23  N   UNL     1       5.031   3.768   0.570  0.00  0.00    +0.411 N 
ATOM     24  N   UNL     1       3.710   3.493  -0.016  0.00  0.00    -0.265 NA
ATOM     25  H   UNL     1       6.658   2.501   0.596  0.00  0.00    +0.106 HD
ATOM     26  H   UNL     1       5.000   3.701   1.576  0.00  0.00    -0.031 HD
ATOM     27  H   UNL     1       3.641   3.866  -0.951  0.00  0.00    +0.125 HD
ATOM     28  H   UNL     1       5.366   4.675   0.281  0.00  0.00    -0.031 HD
BRANCH  20  31
ATOM     29  C   UNL     1      -0.017   1.378   0.010  0.00  0.00    +0.003 A 
ATOM     30  C   UNL     1       1.169   2.087   0.002  0.00  0.00    +0.024 A 
ATOM     31  C   UNL     1       2.382   1.410  -0.013  0.00  0.00    +0.047 A 
ATOM     32  C   UNL     1       2.398   0.021  -0.021  0.00  0.00    +0.044 A 
ATOM     33  C   UNL     1       1.208  -0.683  -0.013  0.00  0.00    +0.043 A 
ATOM     34  C   UNL     1       0.002  -0.004   0.002  0.00  0.00    +0.020 A 
ATOM     35 CL   UNL     1       1.227  -2.419  -0.023  0.00  0.00    -0.083 Cl
ENDBRANCH  20  31
ENDBRANCH  19  21
ENDBRANCH   1  19
TORSDOF 7
