REMARK  Name = ZINC36642907
REMARK  11 active torsions:
REMARK  status: ('A' for Active; 'I' for Inactive)
REMARK    1  A    between atoms: C_1  and  C_2
REMARK    2  A    between atoms: C_2  and  N_3
REMARK    3  A    between atoms: N_3  and  C_4
REMARK    4  A    between atoms: N_3  and  C_6
REMARK    5  A    between atoms: C_4  and  C_5
REMARK    6  A    between atoms: C_6  and  C_7
REMARK    7  A    between atoms: C_7  and  N_8
REMARK    8  A    between atoms: C_12  and  O_19
REMARK    9  A    between atoms: C_15  and  C_18
REMARK   10  A    between atoms: O_19  and  C_20
REMARK   11  A    between atoms: C_21  and  C_23
REMARK                            x       y       z     vdW  Elec       q    Type
REMARK                         _______ _______ _______ _____ _____    ______ ____
ROOT
ATOM      1  N   UNL     1       2.336  -3.538  -0.352  0.00  0.00    -0.252 N 
ATOM      2  C   UNL     1       1.495  -4.393  -1.047  0.00  0.00    +0.168 A 
ATOM      3  N   UNL     1       0.374  -4.118  -1.671  0.00  0.00    -0.221 NA
ATOM      4  C   UNL     1      -0.349  -5.061  -2.314  0.00  0.00    +0.122 A 
ATOM      5  C   UNL     1      -1.568  -4.898  -3.021  0.00  0.00    +0.147 A 
ATOM      6  C   UNL     1      -2.178  -5.974  -3.622  0.00  0.00    +0.048 A 
ATOM      7  C   UNL     1      -1.627  -7.246  -3.560  0.00  0.00    +0.008 A 
ATOM      8  C   UNL     1      -0.440  -7.438  -2.879  0.00  0.00    -0.034 A 
ATOM      9  C   UNL     1       0.178  -6.370  -2.274  0.00  0.00    +0.047 A 
ATOM     10  S   UNL     1       1.667  -6.149  -1.330  0.00  0.00    -0.051 S 
ATOM     11  C   UNL     1       0.174  -8.812  -2.801  0.00  0.00    +0.045 C 
ATOM     12  C   UNL     1       3.458  -4.015   0.221  0.00  0.00    +0.224 C 
ATOM     13  O   UNL     1       3.733  -5.193   0.128  0.00  0.00    -0.275 OA
ENDROOT
BRANCH  12  14
ATOM     14  C   UNL     1       4.372  -3.086   0.977  0.00  0.00    +0.076 C 
ATOM     15  C   UNL     1       5.343  -2.307   0.074  0.00  0.00    +0.013 C 
ATOM     16  C   UNL     1       6.412  -2.540   1.155  0.00  0.00    +0.001 C 
ATOM     17  C   UNL     1       5.608  -3.784   1.570  0.00  0.00    +0.013 C 
ENDBRANCH  12  14
BRANCH   5  18
ATOM     18  O   UNL     1      -2.139  -3.668  -3.104  0.00  0.00    -0.493 OA
ATOM     19  C   UNL     1      -3.367  -3.569  -3.829  0.00  0.00    +0.277 C 
ENDBRANCH   5  18
BRANCH   1  20
ATOM     20  C   UNL     1       2.004  -2.115  -0.240  0.00  0.00    +0.097 C 
BRANCH  20  21
ATOM     21  C   UNL     1       1.156  -1.887   1.013  0.00  0.00    -0.059 C 
BRANCH  21  22
ATOM     22  N   UNL     1       0.823  -0.461   1.126  0.00  0.00    +0.380 N 
ATOM     23  H   UNL     1       1.671   0.085   1.109  0.00  0.00    -0.082 HD
BRANCH  22  25
ATOM     24  C   UNL     1      -0.264   1.445   0.037  0.00  0.00    -0.017 C 
ATOM     25  C   UNL     1      -0.034  -0.067  -0.001  0.00  0.00    -0.082 C 
ENDBRANCH  22  25
BRANCH  22  26
ATOM     26  C   UNL     1       0.111  -0.222   2.389  0.00  0.00    -0.082 C 
ATOM     27  C   UNL     1       1.053  -0.495   3.563  0.00  0.00    -0.017 C 
ENDBRANCH  22  26
ENDBRANCH  21  22
ENDBRANCH  20  21
ENDBRANCH   1  20
TORSDOF 7
