REMARK  Name = ZINC27696625
REMARK  7 active torsions:
REMARK  status: ('A' for Active; 'I' for Inactive)
REMARK    1  A    between atoms: C_10  and  C_11
REMARK    2  A    between atoms: C_11  and  C_12
REMARK    3  A    between atoms: N_20  and  C_21
REMARK    4  A    between atoms: C_21  and  C_22
REMARK    5  A    between atoms: C_22  and  C_24
REMARK    6  A    between atoms: C_22  and  O_32
REMARK    7  A    between atoms: C_24  and  N_25
REMARK                            x       y       z     vdW  Elec       q    Type
REMARK                         _______ _______ _______ _____ _____    ______ ____
ROOT
ATOM      1  C   UNL     1       1.660   2.822   3.049  0.00  0.00    +0.115 A 
ATOM      2  N   UNL     1       0.893   2.964   4.090  0.00  0.00    -0.232 NA
ATOM      3  C   UNL     1       0.100   1.870   4.225  0.00  0.00    +0.089 A 
ATOM      4  C   UNL     1      -0.883   1.501   5.148  0.00  0.00    +0.030 A 
ATOM      5  C   UNL     1      -1.524   0.302   5.016  0.00  0.00    +0.002 A 
ATOM      6  C   UNL     1      -1.210  -0.558   3.972  0.00  0.00    +0.002 A 
ATOM      7  C   UNL     1      -0.244  -0.214   3.050  0.00  0.00    +0.028 A 
ATOM      8  C   UNL     1       0.418   1.001   3.169  0.00  0.00    +0.069 A 
ATOM      9  N   UNL     1       1.406   1.632   2.440  0.00  0.00    -0.325 N 
ENDROOT
BRANCH   1  10
ATOM     10  C   UNL     1       2.679   3.830   2.583  0.00  0.00    +0.110 C 
BRANCH  10  20
ATOM     11  C   UNL     1      -0.035   8.150   3.000  0.00  0.00    +0.001 A 
ATOM     12  C   UNL     1       0.557   7.272   3.906  0.00  0.00    +0.001 A 
ATOM     13  C   UNL     1       1.234   6.173   3.477  0.00  0.00    +0.009 A 
ATOM     14  C   UNL     1       1.340   5.915   2.100  0.00  0.00    -0.014 A 
ATOM     15  C   UNL     1       0.737   6.806   1.178  0.00  0.00    -0.018 A 
ATOM     16  C   UNL     1       0.046   7.932   1.659  0.00  0.00    +0.008 A 
ATOM     17  C   UNL     1       0.843   6.549  -0.199  0.00  0.00    +0.008 A 
ATOM     18  C   UNL     1       1.520   5.449  -0.629  0.00  0.00    +0.001 A 
ATOM     19  C   UNL     1       2.118   4.576   0.277  0.00  0.00    +0.004 A 
ATOM     20  C   UNL     1       2.031   4.790   1.619  0.00  0.00    -0.032 A 
ENDBRANCH  10  20
ENDBRANCH   1  10
BRANCH   9  21
ATOM     21  C   UNL     1       2.064   1.114   1.238  0.00  0.00    +0.153 C 
BRANCH  21  22
ATOM     22  C   UNL     1       1.286   1.562  -0.002  0.00  0.00    +0.118 C 
BRANCH  22  23
ATOM     23  O   UNL     1      -0.011   0.963   0.007  0.00  0.00    -0.392 OA
ATOM     24  H   UNL     1      -0.718   1.169  -0.810  0.00  0.00    +0.210 HD
ENDBRANCH  22  23
BRANCH  22  25
ATOM     25  C   UNL     1       2.040   1.127  -1.261  0.00  0.00    -0.045 C 
BRANCH  25  26
ATOM     26  N   UNL     1       1.357   1.660  -2.448  0.00  0.00    +0.381 N 
ATOM     27  C   UNL     1      -0.023   1.135  -2.546  0.00  0.00    -0.079 C 
ATOM     28  C   UNL     1      -0.666   1.429  -3.874  0.00  0.00    -0.019 C 
ATOM     29  C   UNL     1      -0.437   0.222  -4.808  0.00  0.00    -0.002 C 
ATOM     30  C   UNL     1       0.908   0.208  -5.372  0.00  0.00    -0.002 C 
ATOM     31  C   UNL     1       1.996   0.107  -4.282  0.00  0.00    -0.019 C 
ATOM     32  C   UNL     1       2.179   1.466  -3.663  0.00  0.00    -0.079 C 
ATOM     33  H   UNL     1       1.249   2.749  -2.337  0.00  0.00    -0.082 HD
ENDBRANCH  25  26
ENDBRANCH  22  25
ENDBRANCH  21  22
ENDBRANCH   9  21
TORSDOF 7
