REMARK  Name = ZINC08758860
REMARK  5 active torsions:
REMARK  status: ('A' for Active; 'I' for Inactive)
REMARK    1  A    between atoms: C_4  and  C_7
REMARK    2  A    between atoms: C_8  and  C_9
REMARK    3  A    between atoms: C_23  and  C_24
REMARK    4  A    between atoms: C_23  and  C_30
REMARK    5  A    between atoms: C_23  and  N_70
REMARK                            x       y       z     vdW  Elec       q    Type
REMARK                         _______ _______ _______ _____ _____    ______ ____
ROOT
ATOM      1  C   UNL     1       8.468   2.127  -8.481  0.00  0.00    +0.025 C 
ATOM      2  C   UNL     1       7.259   1.922  -7.571  0.00  0.00    +0.064 C 
ATOM      3  C   UNL     1       7.685   1.695  -6.148  0.00  0.00    +0.057 A 
ATOM      4  C   UNL     1       8.930   2.126  -5.677  0.00  0.00    +0.057 A 
ATOM      5  C   UNL     1       9.269   1.893  -4.338  0.00  0.00    +0.127 A 
ATOM      6  N   UNL     1       8.396   1.273  -3.564  0.00  0.00    -0.222 NA
ATOM      7  C   UNL     1       7.227   0.872  -4.046  0.00  0.00    +0.218 A 
ATOM      8  N   UNL     1       6.872   1.078  -5.308  0.00  0.00    -0.219 NA
ATOM      9  N   UNL     1       6.348   0.223  -3.205  0.00  0.00    -0.303 N 
ATOM     10  C   UNL     1       6.914   0.087  -1.855  0.00  0.00    +0.089 C 
ATOM     11  C   UNL     1       5.944  -0.706  -0.977  0.00  0.00    -0.058 C 
ATOM     12  C   UNL     1       4.082   0.120  -2.284  0.00  0.00    -0.058 C 
ATOM     13  C   UNL     1       5.052   0.913  -3.163  0.00  0.00    +0.089 C 
ATOM     14  C   UNL     1       9.868   2.810  -6.579  0.00  0.00    +0.167 C 
ATOM     15  O   UNL     1      11.020   3.007  -6.256  0.00  0.00    -0.292 OA
ATOM     16  C   UNL     1       9.340   3.260  -7.926  0.00  0.00    +0.087 C 
ATOM     17  N   UNL     1       4.652   0.010  -0.925  0.00  0.00    +0.389 N 
ATOM     18  H   UNL     1       4.809   0.954  -0.552  0.00  0.00    -0.080 HD
ENDROOT
BRANCH   1  20
ATOM     19  C   UNL     1       8.315   1.715 -10.896  0.00  0.00    +0.004 C 
ATOM     20  C   UNL     1       7.997   2.487  -9.867  0.00  0.00    -0.022 C 
BRANCH  19  24
ATOM     21  C   UNL     1       6.990   2.732 -14.801  0.00  0.00    +0.000 A 
ATOM     22  C   UNL     1       7.753   1.594 -14.607  0.00  0.00    +0.001 A 
ATOM     23  C   UNL     1       8.187   1.259 -13.341  0.00  0.00    +0.008 A 
ATOM     24  C   UNL     1       7.854   2.069 -12.255  0.00  0.00    -0.025 A 
ATOM     25  C   UNL     1       7.079   3.212 -12.457  0.00  0.00    +0.008 A 
ATOM     26  C   UNL     1       6.656   3.539 -13.729  0.00  0.00    +0.001 A 
ENDBRANCH  19  24
ENDBRANCH   1  20
BRANCH  17  27
ATOM     27  C   UNL     1       3.711  -0.707  -0.039  0.00  0.00    -0.007 C 
BRANCH  27  28
ATOM     28  C   UNL     1       2.396   0.029  -0.022  0.00  0.00    -0.057 A 
ATOM     29  C   UNL     1       1.208  -0.679  -0.014  0.00  0.00    +0.002 A 
ATOM     30  C   UNL     1       0.002  -0.004   0.002  0.00  0.00    +0.000 A 
ATOM     31  C   UNL     1      -0.017   1.378   0.010  0.00  0.00    +0.000 A 
ATOM     32  C   UNL     1       1.171   2.086   0.002  0.00  0.00    +0.000 A 
ATOM     33  C   UNL     1       2.377   1.411  -0.014  0.00  0.00    +0.002 A 
ENDBRANCH  27  28
BRANCH  27  34
ATOM     34  C   UNL     1       4.284  -0.745   1.355  0.00  0.00    -0.057 A 
ATOM     35  C   UNL     1       4.952   0.356   1.857  0.00  0.00    +0.002 A 
ATOM     36  C   UNL     1       5.473   0.324   3.137  0.00  0.00    +0.000 A 
ATOM     37  C   UNL     1       5.335  -0.813   3.911  0.00  0.00    +0.000 A 
ATOM     38  C   UNL     1       4.672  -1.916   3.406  0.00  0.00    +0.000 A 
ATOM     39  C   UNL     1       4.146  -1.882   2.128  0.00  0.00    +0.002 A 
ENDBRANCH  27  34
ENDBRANCH  17  27
TORSDOF 5
