REMARK  Name = ZINC13494949
REMARK  10 active torsions:
REMARK  status: ('A' for Active; 'I' for Inactive)
REMARK    1  A    between atoms: C_1  and  C_2
REMARK    2  A    between atoms: C_2  and  C_3
REMARK    3  A    between atoms: C_3  and  C_5
REMARK    4  A    between atoms: C_3  and  N_15
REMARK    5  A    between atoms: N_9  and  C_10
REMARK    6  A    between atoms: N_15  and  C_16
REMARK    7  A    between atoms: N_15  and  C_24
REMARK    8  A    between atoms: C_16  and  C_17
REMARK    9  A    between atoms: C_24  and  C_25
REMARK   10  A    between atoms: C_31  and  C_37
REMARK                            x       y       z     vdW  Elec       q    Type
REMARK                         _______ _______ _______ _____ _____    ______ ____
ROOT
ATOM      1  N   UNL     1      -0.081  -0.177  -2.517  0.00  0.00    -0.284 NA
ENDROOT
BRANCH   1   2
ATOM      2  C   UNL     1       0.958  -0.422  -1.508  0.00  0.00    +0.127 C 
BRANCH   2   3
ATOM      3  C   UNL     1       2.317  -0.212  -2.124  0.00  0.00    +0.169 A 
ATOM      4  N   UNL     1       2.722  -0.647  -3.293  0.00  0.00    -0.112 NA
ATOM      5  N   UNL     1       3.941  -0.263  -3.460  0.00  0.00    -0.023 NA
ATOM      6  N   UNL     1       4.323   0.406  -2.428  0.00  0.00    -0.044 NA
ATOM      7  N   UNL     1       3.349   0.464  -1.585  0.00  0.00    -0.225 N 
BRANCH   7   8
ATOM      8  C   UNL     1       3.363   1.135  -0.283  0.00  0.00    +0.111 C 
ATOM      9  C   UNL     1       3.714   2.627  -0.462  0.00  0.00    +0.027 C 
ATOM     10  C   UNL     1       4.594   2.961   0.768  0.00  0.00    +0.002 C 
ATOM     11  C   UNL     1       5.439   1.674   0.943  0.00  0.00    +0.002 C 
ATOM     12  C   UNL     1       4.460   0.530   0.610  0.00  0.00    +0.027 C 
ENDBRANCH   7   8
ENDBRANCH   2   3
BRANCH   2  14
ATOM     13  C   UNL     1      -0.503  -2.051  -0.302  0.00  0.00    +0.006 C 
ATOM     14  C   UNL     1       0.846  -1.861  -0.999  0.00  0.00    +0.023 C 
ENDBRANCH   2  14
ENDBRANCH   1   2
BRANCH   1  15
ATOM     15  C   UNL     1       0.179  -0.952  -3.738  0.00  0.00    +0.120 C 
BRANCH  15  16
ATOM     16  C   UNL     1      -1.075  -1.010  -4.573  0.00  0.00    -0.033 A 
ATOM     17  C   UNL     1      -2.038  -1.964  -4.306  0.00  0.00    +0.008 A 
ATOM     18  C   UNL     1      -3.188  -2.018  -5.070  0.00  0.00    +0.038 A 
ATOM     19  C   UNL     1      -3.376  -1.115  -6.103  0.00  0.00    +0.123 A 
ATOM     20  C   UNL     1      -2.410  -0.159  -6.369  0.00  0.00    +0.038 A 
ATOM     21  C   UNL     1      -1.263  -0.104  -5.600  0.00  0.00    +0.008 A 
ATOM     22  F   UNL     1      -4.500  -1.167  -6.851  0.00  0.00    -0.205 F 
ENDBRANCH  15  16
ENDBRANCH   1  15
BRANCH   1  23
ATOM     23  C   UNL     1      -0.196   1.256  -2.817  0.00  0.00    +0.126 C 
BRANCH  23  24
ATOM     24  C   UNL     1      -0.936   1.945  -1.700  0.00  0.00    +0.031 A 
ATOM     25  C   UNL     1      -0.244   2.559  -0.709  0.00  0.00    +0.020 A 
ATOM     26  C   UNL     1      -0.993   3.220   0.362  0.00  0.00    -0.001 A 
ATOM     27  C   UNL     1      -0.335   3.871   1.411  0.00  0.00    +0.010 A 
ATOM     28  C   UNL     1      -1.062   4.478   2.394  0.00  0.00    +0.001 A 
ATOM     29  C   UNL     1      -2.450   4.455   2.363  0.00  0.00    +0.005 A 
ATOM     30  C   UNL     1      -3.120   3.819   1.340  0.00  0.00    -0.026 A 
ATOM     31  C   UNL     1      -2.400   3.195   0.326  0.00  0.00    +0.052 A 
ATOM     32  N   UNL     1      -3.044   2.552  -0.710  0.00  0.00    -0.322 N 
ATOM     33  H   UNL     1      -4.014   2.536  -0.733  0.00  0.00    +0.169 HD
ATOM     34  C   UNL     1      -2.348   1.953  -1.691  0.00  0.00    +0.254 A 
ATOM     35  O   UNL     1      -2.950   1.399  -2.594  0.00  0.00    -0.268 OA
ATOM     36  C   UNL     1      -4.627   3.801   1.319  0.00  0.00    +0.046 C 
ENDBRANCH  23  24
ENDBRANCH   1  23
TORSDOF 8
