REMARK  Name = ZINC12157068
REMARK  9 active torsions:
REMARK  status: ('A' for Active; 'I' for Inactive)
REMARK    1  A    between atoms: C_1  and  C_2
REMARK    2  A    between atoms: C_2  and  C_3
REMARK    3  A    between atoms: C_2  and  C_4
REMARK    4  A    between atoms: C_4  and  C_5
REMARK    5  A    between atoms: C_5  and  C_6
REMARK    6  A    between atoms: C_6  and  C_13
REMARK    7  A    between atoms: C_18  and  C_19
REMARK    8  A    between atoms: C_18  and  N_61
REMARK    9  A    between atoms: N_22  and  C_24
REMARK                            x       y       z     vdW  Elec       q    Type
REMARK                         _______ _______ _______ _____ _____    ______ ____
ROOT
ATOM      1  C   UNL     1       2.108   0.049  -1.338  0.00  0.00    +0.018 C 
ATOM      2  C   UNL     1       0.680  -0.499  -1.278  0.00  0.00    -0.013 C 
ATOM      3  C   UNL     1       0.002  -0.004   0.002  0.00  0.00    -0.078 C 
ATOM      4  C   UNL     1       1.344   2.014   0.000  0.00  0.00    -0.078 C 
ATOM      5  C   UNL     1       2.062   1.579  -1.280  0.00  0.00    -0.013 C 
ATOM      6  N   UNL     1      -0.032   1.474  -0.014  0.00  0.00    +0.382 N 
ATOM      7  H   UNL     1      -0.504   1.786  -0.871  0.00  0.00    -0.081 HD
ENDROOT
BRANCH   1   8
ATOM      8  C   UNL     1       2.771  -0.394  -2.644  0.00  0.00    +0.115 C 
ATOM      9  C   UNL     1       1.872  -0.093  -3.827  0.00  0.00    +0.244 C 
ATOM     10  O   UNL     1       1.479   0.995  -4.191  0.00  0.00    -0.273 OA
ATOM     11  N   UNL     1       1.599  -1.287  -4.390  0.00  0.00    -0.238 N 
ATOM     12  C   UNL     1       2.195  -2.289  -3.734  0.00  0.00    +0.307 C 
ATOM     13  O   UNL     1       2.098  -3.458  -4.054  0.00  0.00    -0.252 OA
ATOM     14  N   UNL     1       2.914  -1.859  -2.682  0.00  0.00    -0.285 N 
ATOM     15  H   UNL     1       1.040  -1.405  -5.174  0.00  0.00    +0.159 HD
ATOM     16  H   UNL     1       3.426  -2.408  -2.067  0.00  0.00    +0.151 HD
BRANCH   8  17
ATOM     17  C   UNL     1       4.132   0.284  -2.812  0.00  0.00    +0.036 C 
BRANCH  17  18
ATOM     18  C   UNL     1       4.772  -0.175  -4.123  0.00  0.00    +0.005 C 
BRANCH  18  20
ATOM     19  C   UNL     1       6.828  -0.049  -5.538  0.00  0.00    +0.007 C 
ATOM     20  C   UNL     1       6.134   0.503  -4.291  0.00  0.00    -0.017 C 
ATOM     21  C   UNL     1       5.936   2.013  -4.444  0.00  0.00    +0.007 C 
ENDBRANCH  18  20
ENDBRANCH  17  18
ENDBRANCH   8  17
ENDBRANCH   1   8
BRANCH   6  22
ATOM     22  C   UNL     1      -0.783   1.974   1.156  0.00  0.00    -0.040 C 
BRANCH  22  23
ATOM     23  C   UNL     1      -0.580   3.463   1.273  0.00  0.00    -0.026 A 
ATOM     24  C   UNL     1      -1.361   4.451   0.664  0.00  0.00    +0.136 A 
ATOM     25  N   UNL     1      -0.878   5.620   1.000  0.00  0.00    -0.175 NA
ATOM     26  N   UNL     1       0.228   5.413   1.835  0.00  0.00    -0.240 N 
ATOM     27  C   UNL     1       0.388   4.080   1.991  0.00  0.00    +0.116 A 
BRANCH  26  28
ATOM     28  C   UNL     1       1.025   6.413   2.410  0.00  0.00    +0.065 A 
ATOM     29  C   UNL     1       2.093   6.066   3.227  0.00  0.00    +0.028 A 
ATOM     30  C   UNL     1       2.879   7.053   3.790  0.00  0.00    +0.002 A 
ATOM     31  C   UNL     1       2.598   8.385   3.548  0.00  0.00    +0.000 A 
ATOM     32  C   UNL     1       1.532   8.733   2.738  0.00  0.00    +0.002 A 
ATOM     33  C   UNL     1       0.745   7.751   2.169  0.00  0.00    +0.028 A 
ENDBRANCH  26  28
ENDBRANCH  22  23
ENDBRANCH   6  22
TORSDOF 7
