REMARK  Name = ZINC19973140
REMARK  13 active torsions:
REMARK  status: ('A' for Active; 'I' for Inactive)
REMARK    1  A    between atoms: C_1  and  C_2
REMARK    2  A    between atoms: C_2  and  N_3
REMARK    3  A    between atoms: N_3  and  C_4
REMARK    4  A    between atoms: N_3  and  C_11
REMARK    5  A    between atoms: C_4  and  C_5
REMARK    6  A    between atoms: C_11  and  C_13
REMARK    7  A    between atoms: C_11  and  C_27
REMARK    8  A    between atoms: C_17  and  C_26
REMARK    9  A    between atoms: C_19  and  C_25
REMARK   10  A    between atoms: N_31  and  C_32
REMARK   11  A    between atoms: C_32  and  C_33
REMARK   12  A    between atoms: C_33  and  O_34
REMARK   13  A    between atoms: O_34  and  C_35
REMARK                            x       y       z     vdW  Elec       q    Type
REMARK                         _______ _______ _______ _____ _____    ______ ____
ROOT
ATOM      1  C   UNL     1      -2.154   0.273   0.886  0.00  0.00    +0.039 C 
ENDROOT
BRANCH   1   2
ATOM      2  C   UNL     1      -2.017   1.754   0.643  0.00  0.00    +0.011 A 
ATOM      3  C   UNL     1      -1.405   2.536   1.566  0.00  0.00    +0.017 A 
ATOM      4  C   UNL     1      -1.288   3.971   1.300  0.00  0.00    -0.001 A 
ATOM      5  C   UNL     1      -0.667   4.828   2.214  0.00  0.00    +0.013 A 
ATOM      6  C   UNL     1      -0.574   6.162   1.935  0.00  0.00    -0.050 A 
ATOM      7  C   UNL     1      -1.090   6.675   0.753  0.00  0.00    +0.008 A 
ATOM      8  C   UNL     1      -1.707   5.849  -0.162  0.00  0.00    -0.026 A 
ATOM      9  C   UNL     1      -1.813   4.487   0.100  0.00  0.00    +0.052 A 
ATOM     10  N   UNL     1      -2.424   3.638  -0.798  0.00  0.00    -0.322 N 
ATOM     11  H   UNL     1      -2.784   3.995  -1.625  0.00  0.00    +0.169 HD
ATOM     12  C   UNL     1      -2.522   2.320  -0.547  0.00  0.00    +0.251 A 
ATOM     13  O   UNL     1      -3.063   1.598  -1.366  0.00  0.00    -0.268 OA
ATOM     14  C   UNL     1      -2.264   6.420  -1.440  0.00  0.00    +0.046 C 
ATOM     15  C   UNL     1       0.096   7.085   2.920  0.00  0.00    +0.044 C 
ENDBRANCH   1   2
BRANCH   1  16
ATOM     16  C   UNL     1      -3.612  -0.107   0.868  0.00  0.00    +0.143 A 
ATOM     17  N   UNL     1      -4.348  -0.338  -0.192  0.00  0.00    -0.115 NA
ATOM     18  N   UNL     1      -5.537  -0.633   0.205  0.00  0.00    -0.023 NA
ATOM     19  N   UNL     1      -5.579  -0.596   1.491  0.00  0.00    -0.044 NA
ATOM     20  N   UNL     1      -4.410  -0.281   1.937  0.00  0.00    -0.228 N 
BRANCH  20  21
ATOM     21  C   UNL     1      -4.025  -0.136   3.343  0.00  0.00    +0.175 C 
BRANCH  21  22
ATOM     22  C   UNL     1      -4.254   1.310   3.788  0.00  0.00    +0.183 C 
BRANCH  22  23
ATOM     23  O   UNL     1      -3.879   1.451   5.160  0.00  0.00    -0.381 OA
ATOM     24  C   UNL     1      -4.055   2.772   5.677  0.00  0.00    +0.194 C 
ENDBRANCH  22  23
ENDBRANCH  21  22
ENDBRANCH  20  21
ENDBRANCH   1  16
BRANCH   1  25
ATOM     25  N   UNL     1      -1.443  -0.464  -0.168  0.00  0.00    +0.392 N 
ATOM     26  H   UNL     1      -1.921  -0.338  -1.048  0.00  0.00    -0.080 HD
BRANCH  25  28
ATOM     27  C   UNL     1      -0.076   1.361  -1.061  0.00  0.00    -0.017 C 
ATOM     28  C   UNL     1      -0.070   0.045  -0.280  0.00  0.00    -0.080 C 
ENDBRANCH  25  28
BRANCH  25  29
ATOM     29  C   UNL     1      -1.409  -1.893   0.171  0.00  0.00    -0.042 C 
BRANCH  29  30
ATOM     30  C   UNL     1      -2.800  -2.466   0.073  0.00  0.00    -0.064 A 
ATOM     31  C   UNL     1      -3.561  -2.632   1.215  0.00  0.00    +0.002 A 
ATOM     32  C   UNL     1      -4.836  -3.158   1.125  0.00  0.00    +0.000 A 
ATOM     33  C   UNL     1      -5.351  -3.516  -0.107  0.00  0.00    +0.000 A 
ATOM     34  C   UNL     1      -4.590  -3.348  -1.249  0.00  0.00    +0.000 A 
ATOM     35  C   UNL     1      -3.316  -2.819  -1.160  0.00  0.00    +0.002 A 
ENDBRANCH  29  30
ENDBRANCH  25  29
ENDBRANCH   1  25
TORSDOF 9
