REMARK  Name = ZINC63295356
REMARK  8 active torsions:
REMARK  status: ('A' for Active; 'I' for Inactive)
REMARK    1  A    between atoms: C_1  and  C_2
REMARK    2  A    between atoms: C_2  and  C_4
REMARK    3  A    between atoms: C_2  and  N_12
REMARK    4  A    between atoms: C_4  and  C_5
REMARK    5  A    between atoms: C_5  and  C_6
REMARK    6  A    between atoms: C_13  and  C_15
REMARK    7  A    between atoms: C_18  and  C_22
REMARK    8  A    between atoms: C_22  and  C_23
REMARK                            x       y       z     vdW  Elec       q    Type
REMARK                         _______ _______ _______ _____ _____    ______ ____
ROOT
ATOM      1  C   UNL     1       0.712  -1.094  -3.598  0.00  0.00    +0.297 C 
ATOM      2  N   UNL     1       1.644  -0.054  -4.087  0.00  0.00    -0.265 NA
ATOM      3  C   UNL     1       1.540  -0.143  -5.569  0.00  0.00    +0.154 C 
ATOM      4  N   UNL     1       0.097  -0.443  -5.766  0.00  0.00    -0.181 NA
ATOM      5  O   UNL     1      -0.245  -1.337  -4.641  0.00  0.00    -0.270 OA
ATOM      6  H   UNL     1       1.371   0.860  -3.760  0.00  0.00    +0.126 HD
ATOM      7  H   UNL     1      -0.455   0.401  -5.739  0.00  0.00    +0.156 HD
ENDROOT
BRANCH   1   9
ATOM      8  N   UNL     1       0.688  -0.476  -1.203  0.00  0.00    -0.309 N 
ATOM      9  C   UNL     1       0.006  -0.608  -2.358  0.00  0.00    +0.259 C 
ATOM     10  O   UNL     1      -1.175  -0.336  -2.400  0.00  0.00    -0.271 OA
ATOM     11  H   UNL     1       1.632  -0.695  -1.170  0.00  0.00    +0.149 HD
BRANCH   8  13
ATOM     12  C   UNL     1      -0.019   1.526   0.010  0.00  0.00    +0.028 C 
ATOM     13  C   UNL     1       0.002  -0.004   0.002  0.00  0.00    +0.070 C 
BRANCH  13  14
ATOM     14  C   UNL     1       0.742  -0.511   1.242  0.00  0.00    +0.026 C 
BRANCH  14  15
ATOM     15  C   UNL     1       0.655  -2.037   1.299  0.00  0.00    +0.037 C 
BRANCH  15  16
ATOM     16  C   UNL     1       1.384  -2.537   2.519  0.00  0.00    -0.047 A 
ATOM     17  C   UNL     1       2.731  -2.841   2.444  0.00  0.00    +0.003 A 
ATOM     18  C   UNL     1       3.399  -3.299   3.564  0.00  0.00    +0.000 A 
ATOM     19  C   UNL     1       2.722  -3.452   4.759  0.00  0.00    +0.000 A 
ATOM     20  C   UNL     1       1.375  -3.146   4.835  0.00  0.00    +0.000 A 
ATOM     21  C   UNL     1       0.708  -2.684   3.716  0.00  0.00    +0.003 A 
ENDBRANCH  15  16
ENDBRANCH  14  15
ENDBRANCH  13  14
ENDBRANCH   8  13
ENDBRANCH   1   9
BRANCH   3  22
ATOM     22  C   UNL     1       1.918   1.188  -6.222  0.00  0.00    +0.070 C 
BRANCH  22  23
ATOM     23  C   UNL     1       1.802   1.064  -7.719  0.00  0.00    -0.039 C 
ATOM     24  C   UNL     1       0.742   1.409  -8.484  0.00  0.00    -0.001 A 
ATOM     25  C   UNL     1      -0.572   1.981  -8.163  0.00  0.00    +0.010 A 
ATOM     26  C   UNL     1      -1.445   2.222  -9.167  0.00  0.00    +0.001 A 
ATOM     27  C   UNL     1      -1.129   1.939 -10.503  0.00  0.00    +0.002 A 
ATOM     28  C   UNL     1       0.057   1.413 -10.876  0.00  0.00    +0.026 A 
ATOM     29  C   UNL     1       1.052   1.120  -9.902  0.00  0.00    +0.043 A 
ATOM     30  N   UNL     1       2.257   0.616 -10.010  0.00  0.00    -0.380 N 
ATOM     31  C   UNL     1       2.851   0.534  -8.671  0.00  0.00    +0.144 C 
ATOM     32  H   UNL     1       2.686   0.347 -10.837  0.00  0.00    +0.160 HD
ENDBRANCH  22  23
ENDBRANCH   3  22
TORSDOF 7
