REMARK  Name = ZINC36122285
REMARK  17 active torsions:
REMARK  status: ('A' for Active; 'I' for Inactive)
REMARK    1  A    between atoms: C_1  and  C_2
REMARK    2  A    between atoms: C_2  and  C_3
REMARK    3  A    between atoms: C_2  and  C_4
REMARK    4  A    between atoms: C_4  and  C_5
REMARK    5  A    between atoms: C_5  and  N_6
REMARK    6  A    between atoms: N_6  and  C_7
REMARK    7  A    between atoms: C_7  and  C_8
REMARK    8  A    between atoms: C_18  and  C_20
REMARK    9  A    between atoms: C_20  and  O_21
REMARK   10  A    between atoms: O_21  and  C_22
REMARK   11  A    between atoms: C_25  and  C_28
REMARK   12  A    between atoms: C_28  and  C_29
REMARK   13  A    between atoms: C_28  and  C_30
REMARK   14  A    between atoms: N_33  and  C_34
REMARK   15  A    between atoms: C_34  and  C_35
REMARK   16  A    between atoms: C_34  and  C_36
REMARK   17  A    between atoms: C_34  and  C_37
REMARK                            x       y       z     vdW  Elec       q    Type
REMARK                         _______ _______ _______ _____ _____    ______ ____
ROOT
ATOM      1  C   UNL     1      -3.292  -4.084  -1.935  0.00  0.00    +0.234 C 
ATOM      2  O   UNL     1      -2.578  -4.868  -1.347  0.00  0.00    -0.274 OA
ATOM      3  N   UNL     1      -3.874  -4.443  -3.096  0.00  0.00    -0.289 N 
ATOM      4  C   UNL     1      -4.737  -3.499  -3.822  0.00  0.00    +0.114 C 
ATOM      5  C   UNL     1      -6.166  -4.063  -3.837  0.00  0.00    +0.061 C 
ATOM      6  C   UNL     1      -6.099  -5.526  -4.137  0.00  0.00    -0.004 A 
ATOM      7  C   UNL     1      -5.015  -6.345  -4.069  0.00  0.00    -0.014 A 
ATOM      8  C   UNL     1      -5.222  -7.684  -4.395  0.00  0.00    +0.013 A 
ATOM      9  C   UNL     1      -6.452  -8.109  -4.764  0.00  0.00    +0.046 A 
ATOM     10  S   UNL     1      -7.407  -6.602  -4.664  0.00  0.00    -0.101 S 
ATOM     11  C   UNL     1      -3.651  -5.782  -3.658  0.00  0.00    +0.144 C 
ENDROOT
BRANCH   1  12
ATOM     12  C   UNL     1      -3.528  -2.708  -1.369  0.00  0.00    +0.205 C 
BRANCH  12  13
ATOM     13  N   UNL     1      -2.790  -2.565  -0.111  0.00  0.00    -0.277 N 
ATOM     14  C   UNL     1      -3.376  -2.900   1.056  0.00  0.00    +0.303 C 
ATOM     15  O   UNL     1      -4.517  -3.321   1.064  0.00  0.00    -0.253 OA
ATOM     16  N   UNL     1      -2.697  -2.768   2.213  0.00  0.00    -0.294 N 
ATOM     17  H   UNL     1      -1.787  -2.432   2.206  0.00  0.00    +0.151 HD
BRANCH  16  18
ATOM     18  C   UNL     1      -3.334  -3.132   3.481  0.00  0.00    +0.028 C 
ATOM     19  C   UNL     1      -3.727  -4.611   3.449  0.00  0.00    +0.031 C 
ATOM     20  C   UNL     1      -2.355  -2.889   4.631  0.00  0.00    +0.031 C 
ATOM     21  C   UNL     1      -4.586  -2.277   3.687  0.00  0.00    +0.031 C 
ENDBRANCH  16  18
BRANCH  13  22
ATOM     22  C   UNL     1      -1.416  -2.058  -0.121  0.00  0.00    +0.110 C 
BRANCH  22  23
ATOM     23  C   UNL     1      -1.433  -0.534   0.013  0.00  0.00    +0.022 C 
BRANCH  23  25
ATOM     24  C   UNL     1      -0.019   1.526   0.010  0.00  0.00    +0.007 C 
ATOM     25  C   UNL     1       0.002  -0.004   0.002  0.00  0.00    -0.016 C 
ATOM     26  C   UNL     1       0.742  -0.511   1.242  0.00  0.00    +0.007 C 
ENDBRANCH  23  25
ENDBRANCH  22  23
ENDBRANCH  13  22
ENDBRANCH  12  13
ENDBRANCH   1  12
BRANCH  11  27
ATOM     27  C   UNL     1      -2.737  -5.686  -4.881  0.00  0.00    +0.256 C 
BRANCH  27  28
ATOM     28  O   UNL     1      -3.398  -4.952  -5.914  0.00  0.00    -0.490 OA
BRANCH  28  29
ATOM     29  C   UNL     1      -2.718  -4.773  -7.077  0.00  0.00    +0.121 A 
ATOM     30  C   UNL     1      -1.443  -5.299  -7.223  0.00  0.00    +0.046 A 
ATOM     31  C   UNL     1      -0.754  -5.117  -8.407  0.00  0.00    +0.007 A 
ATOM     32  C   UNL     1      -1.334  -4.411  -9.444  0.00  0.00    -0.045 A 
ATOM     33  C   UNL     1      -2.605  -3.886  -9.300  0.00  0.00    +0.007 A 
ATOM     34  C   UNL     1      -3.301  -4.070  -8.121  0.00  0.00    +0.046 A 
BRANCH  32  35
ATOM     35  C   UNL     1      -0.580  -4.213 -10.734  0.00  0.00    +0.013 C 
ATOM     36  C   UNL     1      -1.370  -4.835 -11.887  0.00  0.00    +0.012 C 
ATOM     37  C   UNL     1      -0.394  -2.717 -10.992  0.00  0.00    +0.012 C 
ENDBRANCH  32  35
ENDBRANCH  28  29
ENDBRANCH  27  28
ENDBRANCH  11  27
TORSDOF 10
