REMARK  Name = ZINC20616526
REMARK  2 active torsions:
REMARK  status: ('A' for Active; 'I' for Inactive)
REMARK    1  A    between atoms: C_6  and  C_7
REMARK    2  A    between atoms: C_10  and  C_18
REMARK                            x       y       z     vdW  Elec       q    Type
REMARK                         _______ _______ _______ _____ _____    ______ ____
ROOT
ATOM      1  C   UNL     1       1.150   3.592   0.010  0.00  0.00    +0.104 C 
ATOM      2  C   UNL     1       1.389   4.118  -1.410  0.00  0.00    +0.063 C 
ATOM      3  C   UNL     1       1.313   5.649  -1.419  0.00  0.00    +0.215 C 
ATOM      4  N   UNL     1       2.157   6.176  -0.344  0.00  0.00    -0.239 N 
ATOM      5  C   UNL     1       2.572   5.441   0.721  0.00  0.00    +0.118 A 
ATOM      6  C   UNL     1       3.331   6.236   1.506  0.00  0.00    +0.064 A 
ATOM      7  C   UNL     1       3.381   7.501   0.905  0.00  0.00    +0.136 A 
ATOM      8  N   UNL     1       2.678   7.462  -0.201  0.00  0.00    -0.177 NA
ATOM      9  N   UNL     1       2.222   4.099   0.889  0.00  0.00    -0.322 N 
ATOM     10  H   UNL     1       2.695   3.429   1.622  0.00  0.00    +0.148 HD
ENDROOT
BRANCH   1  16
ATOM     11  C   UNL     1      -0.017   1.378   0.010  0.00  0.00    +0.007 A 
ATOM     12  C   UNL     1       0.002  -0.004   0.002  0.00  0.00    +0.020 A 
ATOM     13  C   UNL     1       1.210  -0.679  -0.013  0.00  0.00    +0.041 A 
ATOM     14  C   UNL     1       2.398   0.030  -0.021  0.00  0.00    +0.020 A 
ATOM     15  C   UNL     1       2.378   1.412  -0.013  0.00  0.00    +0.007 A 
ATOM     16  C   UNL     1       1.171   2.086   0.002  0.00  0.00    -0.027 A 
ATOM     17 CL   UNL     1       1.234  -2.415  -0.022  0.00  0.00    -0.084 Cl
ENDBRANCH   1  16
BRANCH   3  18
ATOM     18  C   UNL     1       1.807   6.180  -2.766  0.00  0.00    +0.412 C 
ATOM     19  F   UNL     1       3.130   5.773  -2.970  0.00  0.00    -0.168 F 
ATOM     20  F   UNL     1       1.000   5.675  -3.791  0.00  0.00    -0.168 F 
ATOM     21  F   UNL     1       1.744   7.577  -2.768  0.00  0.00    -0.168 F 
ENDBRANCH   3  18
TORSDOF 2
