REMARK  Name = ZINC21145742
REMARK  8 active torsions:
REMARK  status: ('A' for Active; 'I' for Inactive)
REMARK    1  A    between atoms: C_1  and  C_2
REMARK    2  A    between atoms: C_3  and  C_7
REMARK    3  A    between atoms: C_10  and  S_13
REMARK    4  A    between atoms: N_11  and  N_12
REMARK    5  A    between atoms: S_13  and  C_14
REMARK    6  A    between atoms: C_14  and  C_16
REMARK    7  A    between atoms: C_14  and  C_22
REMARK    8  A    between atoms: N_24  and  C_25
REMARK                            x       y       z     vdW  Elec       q    Type
REMARK                         _______ _______ _______ _____ _____    ______ ____
ROOT
ATOM      1  C   UNL     1      -0.667   4.019   0.034  0.00  0.00    +0.170 C 
ENDROOT
BRANCH   1   2
ATOM      2  C   UNL     1       0.095   4.217  -1.251  0.00  0.00    -0.025 A 
ATOM      3  C   UNL     1      -0.569   4.169  -2.463  0.00  0.00    +0.005 A 
ATOM      4  C   UNL     1       0.129   4.355  -3.642  0.00  0.00    +0.000 A 
ATOM      5  C   UNL     1       1.492   4.580  -3.609  0.00  0.00    +0.000 A 
ATOM      6  C   UNL     1       2.157   4.624  -2.398  0.00  0.00    +0.000 A 
ATOM      7  C   UNL     1       1.458   4.442  -1.219  0.00  0.00    +0.005 A 
ENDBRANCH   1   2
BRANCH   1   8
ATOM      8  C   UNL     1      -1.725   5.086   0.160  0.00  0.00    +0.235 C 
ATOM      9  O   UNL     1      -2.877   4.834  -0.123  0.00  0.00    -0.274 OA
ATOM     10  N   UNL     1      -1.390   6.319   0.588  0.00  0.00    -0.284 N 
ATOM     11  H   UNL     1      -0.361   6.527   0.917  0.00  0.00    +0.155 HD
BRANCH  10  12
ATOM     12  C   UNL     1      -2.351   7.336   0.614  0.00  0.00    +0.036 A 
ATOM     13  C   UNL     1      -1.985   8.646   0.337  0.00  0.00    +0.043 A 
ATOM     14  C   UNL     1      -2.938   9.648   0.357  0.00  0.00    +0.044 A 
ATOM     15  C   UNL     1      -4.253   9.347   0.665  0.00  0.00    +0.040 A 
ATOM     16  C   UNL     1      -4.619   8.043   0.947  0.00  0.00    +0.044 A 
ATOM     17  C   UNL     1      -3.671   7.037   0.922  0.00  0.00    +0.043 A 
ATOM     18 CL   UNL     1      -6.270   7.669   1.332  0.00  0.00    -0.083 Cl
ATOM     19 CL   UNL     1      -2.482  11.285   0.005  0.00  0.00    -0.083 Cl
ENDBRANCH  10  12
ENDBRANCH   1   8
BRANCH   1  20
ATOM     20  S   UNL     1      -1.453   2.389   0.024  0.00  0.00    -0.067 S 
BRANCH  20  24
ATOM     21  C   UNL     1       1.321  -0.363   0.011  0.00  0.00    +0.185 A 
ATOM     22  N   UNL     1       2.018   0.750   0.014  0.00  0.00    -0.127 NA
ATOM     23  N   UNL     1       1.227   1.763   0.021  0.00  0.00    -0.121 NA
ATOM     24  C   UNL     1      -0.023   1.360   0.022  0.00  0.00    +0.210 A 
ATOM     25  N   UNL     1      -0.007  -0.007   0.015  0.00  0.00    -0.224 N 
BRANCH  21  28
ATOM     26  C   UNL     1       4.352  -1.166  -0.013  0.00  0.00    +0.087 C 
ATOM     27  C   UNL     1       3.173  -2.105  -0.008  0.00  0.00    +0.112 A 
ATOM     28  C   UNL     1       1.863  -1.739   0.002  0.00  0.00    +0.061 A 
ATOM     29  C   UNL     1       1.099  -2.993  -0.004  0.00  0.00    +0.053 A 
ATOM     30  C   UNL     1       2.009  -3.981  -0.012  0.00  0.00    +0.196 A 
ATOM     31  O   UNL     1       3.238  -3.445  -0.011  0.00  0.00    -0.467 OA
ENDBRANCH  21  28
BRANCH  25  32
ATOM     32  N   UNL     1      -1.086  -0.845   0.014  0.00  0.00    -0.295 N 
ATOM     33  H   UNL     1      -2.105  -0.431   0.018  0.00  0.00    +0.163 HD
ATOM     34  H   UNL     1      -0.936  -1.935   0.008  0.00  0.00    +0.163 HD
ENDBRANCH  25  32
ENDBRANCH  20  24
ENDBRANCH   1  20
TORSDOF 7
