REMARK  Name = ZINC12928748
REMARK  12 active torsions:
REMARK  status: ('A' for Active; 'I' for Inactive)
REMARK    1  A    between atoms: C_1  and  O_2
REMARK    2  A    between atoms: O_2  and  C_3
REMARK    3  A    between atoms: C_3  and  C_4
REMARK    4  A    between atoms: C_4  and  N_5
REMARK    5  A    between atoms: N_5  and  C_6
REMARK    6  A    between atoms: C_7  and  N_22
REMARK    7  A    between atoms: N_8  and  C_15
REMARK    8  A    between atoms: C_15  and  C_16
REMARK    9  A    between atoms: C_23  and  C_25
REMARK   10  A    between atoms: C_25  and  S_26
REMARK   11  A    between atoms: S_26  and  C_27
REMARK   12  A    between atoms: C_30  and  C_33
REMARK                            x       y       z     vdW  Elec       q    Type
REMARK                         _______ _______ _______ _____ _____    ______ ____
ROOT
ATOM      1  N   UNL     1      -0.782  -2.544  -1.127  0.00  0.00    -0.261 N 
ATOM      2  C   UNL     1      -1.502  -2.777  -0.010  0.00  0.00    +0.230 C 
ATOM      3  O   UNL     1      -2.619  -3.243  -0.095  0.00  0.00    -0.274 OA
ENDROOT
BRANCH   1   4
ATOM      4  C   UNL     1      -1.362  -2.752  -2.397  0.00  0.00    +0.140 A 
ATOM      5  C   UNL     1      -0.881  -3.737  -3.235  0.00  0.00    +0.128 A 
ATOM      6  N   UNL     1      -1.468  -3.916  -4.466  0.00  0.00    -0.276 N 
ATOM      7  C   UNL     1      -2.497  -3.139  -4.849  0.00  0.00    +0.331 A 
ATOM      8  O   UNL     1      -3.001  -3.312  -5.942  0.00  0.00    -0.246 OA
ATOM      9  N   UNL     1      -2.979  -2.174  -4.046  0.00  0.00    -0.273 N 
ATOM     10  H   UNL     1      -3.722  -1.628  -4.345  0.00  0.00    +0.173 HD
ATOM     11  C   UNL     1      -2.444  -1.962  -2.827  0.00  0.00    +0.277 A 
ATOM     12  O   UNL     1      -2.892  -1.088  -2.105  0.00  0.00    -0.266 OA
BRANCH   5  13
ATOM     13  N   UNL     1       0.171  -4.530  -2.844  0.00  0.00    -0.343 N 
ATOM     14  H   UNL     1       0.625  -4.354  -2.005  0.00  0.00    +0.144 HD
ATOM     15  H   UNL     1       0.459  -5.266  -3.407  0.00  0.00    +0.144 HD
ENDBRANCH   5  13
BRANCH   6  16
ATOM     16  C   UNL     1      -0.967  -4.958  -5.366  0.00  0.00    +0.163 C 
BRANCH  16  17
ATOM     17  C   UNL     1      -1.708  -6.244  -5.106  0.00  0.00    -0.028 A 
ATOM     18  C   UNL     1      -1.229  -7.140  -4.169  0.00  0.00    +0.005 A 
ATOM     19  C   UNL     1      -1.909  -8.320  -3.930  0.00  0.00    +0.000 A 
ATOM     20  C   UNL     1      -3.067  -8.604  -4.628  0.00  0.00    +0.000 A 
ATOM     21  C   UNL     1      -3.547  -7.707  -5.565  0.00  0.00    +0.000 A 
ATOM     22  C   UNL     1      -2.870  -6.526  -5.801  0.00  0.00    +0.005 A 
ENDBRANCH  16  17
ENDBRANCH   6  16
ENDBRANCH   1   4
BRANCH   1  23
ATOM     23  C   UNL     1       0.602  -2.075  -1.022  0.00  0.00    +0.142 C 
BRANCH  23  24
ATOM     24  C   UNL     1       0.636  -0.551  -1.153  0.00  0.00    +0.178 C 
BRANCH  24  26
ATOM     25  C   UNL     1      -0.075   1.466  -0.071  0.00  0.00    +0.194 C 
ATOM     26  O   UNL     1      -0.048   0.037  -0.045  0.00  0.00    -0.381 OA
ENDBRANCH  24  26
ENDBRANCH  23  24
ENDBRANCH   1  23
BRANCH   2  27
ATOM     27  C   UNL     1      -0.920  -2.457   1.342  0.00  0.00    +0.173 C 
BRANCH  27  28
ATOM     28  S   UNL     1      -2.122  -2.879   2.634  0.00  0.00    -0.077 S 
BRANCH  28  29
ATOM     29  C   UNL     1      -1.302  -2.453   4.134  0.00  0.00    +0.185 A 
ATOM     30  N   UNL     1      -0.093  -1.947   4.238  0.00  0.00    -0.201 NA
ATOM     31  H   UNL     1      -2.685  -2.928   5.618  0.00  0.00    +0.191 HD
ATOM     32  C   UNL     1       0.204  -1.748   5.530  0.00  0.00    +0.182 A 
ATOM     33  N   UNL     1      -0.818  -2.128   6.264  0.00  0.00    -0.152 NA
ATOM     34  N   UNL     1      -1.809  -2.584   5.381  0.00  0.00    -0.253 N 
BRANCH  32  35
ATOM     35  C   UNL     1       1.478  -1.192   6.047  0.00  0.00    +0.021 A 
ATOM     36  C   UNL     1       2.489  -0.820   5.163  0.00  0.00    +0.011 A 
ATOM     37  C   UNL     1       3.672  -0.303   5.649  0.00  0.00    +0.001 A 
ATOM     38  C   UNL     1       3.857  -0.153   7.012  0.00  0.00    +0.000 A 
ATOM     39  C   UNL     1       2.857  -0.520   7.894  0.00  0.00    +0.001 A 
ATOM     40  C   UNL     1       1.667  -1.033   7.419  0.00  0.00    +0.011 A 
ENDBRANCH  32  35
ENDBRANCH  28  29
ENDBRANCH  27  28
ENDBRANCH   2  27
TORSDOF 11
