REMARK  Name = ZINC11917823
REMARK  9 active torsions:
REMARK  status: ('A' for Active; 'I' for Inactive)
REMARK    1  A    between atoms: C_1  and  C_2
REMARK    2  A    between atoms: C_7  and  C_8
REMARK    3  A    between atoms: N_10  and  C_11
REMARK    4  A    between atoms: C_11  and  C_13
REMARK    5  A    between atoms: C_11  and  C_17
REMARK    6  A    between atoms: C_13  and  C_14
REMARK    7  A    between atoms: C_14  and  C_15
REMARK    8  A    between atoms: C_14  and  C_16
REMARK    9  A    between atoms: N_19  and  C_20
REMARK                            x       y       z     vdW  Elec       q    Type
REMARK                         _______ _______ _______ _____ _____    ______ ____
ROOT
ATOM      1  C   UNL     1      -2.340   1.286  -0.260  0.00  0.00    +0.238 C 
ATOM      2  O   UNL     1      -2.350   0.074  -0.247  0.00  0.00    -0.273 OA
ATOM      3  N   UNL     1      -1.168   1.951  -0.202  0.00  0.00    -0.284 N 
ATOM      4  H   UNL     1      -1.163   2.919  -0.140  0.00  0.00    +0.155 HD
ENDROOT
BRANCH   3   5
ATOM      5  C   UNL     1       0.041   1.244  -0.230  0.00  0.00    +0.037 A 
ATOM      6  C   UNL     1       1.145   1.783  -0.875  0.00  0.00    +0.027 A 
ATOM      7  C   UNL     1       2.341   1.090  -0.898  0.00  0.00    +0.051 A 
ATOM      8  C   UNL     1       2.440  -0.143  -0.278  0.00  0.00    +0.167 A 
ATOM      9  C   UNL     1       1.331  -0.688   0.370  0.00  0.00    +0.169 A 
ATOM     10  C   UNL     1       0.135   0.006   0.393  0.00  0.00    +0.073 A 
ATOM     11  O   UNL     1       1.692  -1.903   0.892  0.00  0.00    -0.447 OA
ATOM     12  C   UNL     1       2.847  -2.276   0.127  0.00  0.00    +0.254 C 
ATOM     13  O   UNL     1       3.486  -1.022  -0.152  0.00  0.00    -0.448 OA
ATOM     14  C   UNL     1       3.767  -3.204   0.926  0.00  0.00    +0.093 C 
ATOM     15  C   UNL     1       3.418  -4.620   0.398  0.00  0.00    +0.008 C 
ATOM     16  C   UNL     1       3.167  -4.375  -1.111  0.00  0.00    +0.008 C 
ATOM     17  C   UNL     1       2.456  -3.003  -1.159  0.00  0.00    +0.093 C 
ENDBRANCH   3   5
BRANCH   1  18
ATOM     18  C   UNL     1      -3.636   2.050  -0.341  0.00  0.00    +0.160 C 
BRANCH  18  21
ATOM     19  C   UNL     1      -5.923   1.478  -0.957  0.00  0.00    +0.245 C 
ATOM     20  O   UNL     1      -6.046   2.594  -1.421  0.00  0.00    -0.270 OA
ATOM     21  N   UNL     1      -4.756   1.107  -0.393  0.00  0.00    -0.300 N 
ATOM     22  H   UNL     1      -4.658   0.216  -0.023  0.00  0.00    +0.150 HD
BRANCH  19  29
ATOM     23  C   UNL     1      -8.356   2.221  -2.335  0.00  0.00    +0.044 C 
ATOM     24  C   UNL     1      -8.232   0.874  -1.672  0.00  0.00    -0.038 A 
ATOM     25  C   UNL     1      -9.282  -0.019  -1.718  0.00  0.00    +0.004 A 
ATOM     26  C   UNL     1      -9.170  -1.257  -1.111  0.00  0.00    +0.000 A 
ATOM     27  C   UNL     1      -8.004  -1.608  -0.453  0.00  0.00    +0.001 A 
ATOM     28  C   UNL     1      -6.944  -0.726  -0.403  0.00  0.00    +0.013 A 
ATOM     29  C   UNL     1      -7.053   0.526  -1.010  0.00  0.00    +0.040 A 
ENDBRANCH  19  29
ENDBRANCH  18  21
BRANCH  18  30
ATOM     30  C   UNL     1      -3.779   2.944   0.893  0.00  0.00    +0.034 C 
BRANCH  30  31
ATOM     31  C   UNL     1      -5.032   3.811   0.752  0.00  0.00    -0.015 C 
ATOM     32  C   UNL     1      -5.244   4.613   2.037  0.00  0.00    +0.007 C 
ATOM     33  C   UNL     1      -4.857   4.772  -0.426  0.00  0.00    +0.007 C 
ENDBRANCH  30  31
ENDBRANCH  18  30
ENDBRANCH   1  18
TORSDOF 6
