REMARK  Name = ZINC35246113
REMARK  12 active torsions:
REMARK  status: ('A' for Active; 'I' for Inactive)
REMARK    1  A    between atoms: C_1  and  C_2
REMARK    2  A    between atoms: C_2  and  S_3
REMARK    3  A    between atoms: S_3  and  N_6
REMARK    4  A    between atoms: N_6  and  C_7
REMARK    5  A    between atoms: C_7  and  C_9
REMARK    6  A    between atoms: C_7  and  C_10
REMARK    7  A    between atoms: C_13  and  S_22
REMARK    8  A    between atoms: N_14  and  C_15
REMARK    9  A    between atoms: C_18  and  C_21
REMARK   10  A    between atoms: S_22  and  C_23
REMARK   11  A    between atoms: C_23  and  C_24
REMARK   12  A    between atoms: C_29  and  C_30
REMARK                            x       y       z     vdW  Elec       q    Type
REMARK                         _______ _______ _______ _____ _____    ______ ____
ROOT
ATOM      1  C   UNL     1       2.087  -4.242   0.736  0.00  0.00    +0.157 A 
ATOM      2  N   UNL     1       1.459  -5.124   1.461  0.00  0.00    -0.131 NA
ATOM      3  N   UNL     1       2.225  -6.129   1.696  0.00  0.00    -0.122 NA
ATOM      4  C   UNL     1       3.394  -5.943   1.129  0.00  0.00    +0.196 A 
ATOM      5  N   UNL     1       3.342  -4.734   0.493  0.00  0.00    -0.273 N 
ENDROOT
BRANCH   5   6
ATOM      6  C   UNL     1       4.362  -4.123  -0.251  0.00  0.00    +0.050 A 
ATOM      7  C   UNL     1       4.196  -3.906  -1.612  0.00  0.00    +0.026 A 
ATOM      8  C   UNL     1       5.202  -3.304  -2.342  0.00  0.00    +0.005 A 
ATOM      9  C   UNL     1       6.375  -2.918  -1.719  0.00  0.00    -0.050 A 
ATOM     10  C   UNL     1       6.543  -3.133  -0.363  0.00  0.00    +0.005 A 
ATOM     11  C   UNL     1       5.538  -3.729   0.373  0.00  0.00    +0.026 A 
ATOM     12  C   UNL     1       7.471  -2.263  -2.518  0.00  0.00    +0.044 C 
ENDBRANCH   5   6
BRANCH   1  13
ATOM     13  C   UNL     1       1.533  -2.928   0.250  0.00  0.00    +0.141 C 
ATOM     14  C   UNL     1       0.553  -3.181  -0.898  0.00  0.00    +0.034 C 
BRANCH  13  15
ATOM     15  N   UNL     1       0.835  -2.256   1.349  0.00  0.00    -0.184 NA
ATOM     16  H   UNL     1       0.346  -2.778   2.004  0.00  0.00    +0.148 HD
BRANCH  15  17
ATOM     17  S   UNL     1       0.879  -0.605   1.472  0.00  0.00    +0.030 S 
ATOM     18  O   UNL     1       2.259  -0.273   1.388  0.00  0.00    -0.158 OA
ATOM     19  O   UNL     1       0.132  -0.308   2.643  0.00  0.00    -0.158 OA
BRANCH  17  21
ATOM     20  C   UNL     1      -0.019   1.526   0.010  0.00  0.00    +0.029 C 
ATOM     21  C   UNL     1       0.002  -0.004   0.002  0.00  0.00    +0.181 C 
ENDBRANCH  17  21
ENDBRANCH  15  17
ENDBRANCH  13  15
ENDBRANCH   1  13
BRANCH   4  22
ATOM     22  S   UNL     1       4.768  -7.046   1.174  0.00  0.00    -0.081 S 
BRANCH  22  23
ATOM     23  C   UNL     1       4.175  -8.446   2.163  0.00  0.00    +0.112 C 
BRANCH  23  24
ATOM     24  C   UNL     1       5.268  -9.477   2.281  0.00  0.00    -0.034 A 
ATOM     25  C   UNL     1       5.376 -10.481   1.337  0.00  0.00    +0.005 A 
ATOM     26  C   UNL     1       6.378 -11.426   1.445  0.00  0.00    +0.000 A 
ATOM     27  C   UNL     1       7.274 -11.367   2.497  0.00  0.00    +0.000 A 
ATOM     28  C   UNL     1       7.166 -10.363   3.440  0.00  0.00    +0.003 A 
ATOM     29  C   UNL     1       6.166  -9.415   3.329  0.00  0.00    -0.046 A 
ATOM     30  C   UNL     1       6.052  -8.317   4.355  0.00  0.00    +0.044 C 
ENDBRANCH  23  24
ENDBRANCH  22  23
ENDBRANCH   4  22
TORSDOF 8
