REMARK  Name = ZINC08770210
REMARK  10 active torsions:
REMARK  status: ('A' for Active; 'I' for Inactive)
REMARK    1  A    between atoms: C_1  and  C_2
REMARK    2  A    between atoms: C_3  and  C_12
REMARK    3  A    between atoms: C_14  and  C_19
REMARK    4  A    between atoms: C_16  and  C_17
REMARK    5  A    between atoms: C_16  and  C_18
REMARK    6  A    between atoms: C_19  and  C_20
REMARK    7  A    between atoms: C_20  and  N_55
REMARK    8  A    between atoms: C_21  and  S_22
REMARK    9  A    between atoms: C_21  and  N_55
REMARK   10  A    between atoms: S_22  and  C_25
REMARK                            x       y       z     vdW  Elec       q    Type
REMARK                         _______ _______ _______ _____ _____    ______ ____
ROOT
ATOM      1  C   UNL     1       3.052   5.057   0.004  0.00  0.00    +0.031 C 
ATOM      2  C   UNL     1       4.533   5.301   0.299  0.00  0.00    +0.002 C 
ATOM      3  C   UNL     1       3.998   5.476  -1.124  0.00  0.00    -0.024 C 
ATOM      4  C   UNL     1       4.378   4.414  -2.158  0.00  0.00    +0.012 C 
ATOM      5  C   UNL     1       3.870   6.903  -1.660  0.00  0.00    +0.012 C 
ENDROOT
BRANCH   1   8
ATOM      6  C   UNL     1       0.851   3.866  -1.833  0.00  0.00    +0.063 C 
ATOM      7  C   UNL     1       1.616   3.107  -0.779  0.00  0.00    +0.017 A 
ATOM      8  C   UNL     1       2.566   3.631   0.011  0.00  0.00    -0.016 A 
ATOM      9  C   UNL     1       3.042   2.553   0.881  0.00  0.00    +0.003 A 
ATOM     10  C   UNL     1       4.000   2.474   1.893  0.00  0.00    +0.010 A 
ATOM     11  C   UNL     1       4.214   1.286   2.534  0.00  0.00    +0.001 A 
ATOM     12  C   UNL     1       3.482   0.158   2.190  0.00  0.00    +0.002 A 
ATOM     13  C   UNL     1       2.536   0.212   1.191  0.00  0.00    +0.026 A 
ATOM     14  C   UNL     1       2.301   1.411   0.525  0.00  0.00    +0.047 A 
ATOM     15  N   UNL     1       1.444   1.782  -0.486  0.00  0.00    -0.358 N 
ATOM     16  H   UNL     1       0.812   1.191  -0.926  0.00  0.00    +0.166 HD
ENDBRANCH   1   8
BRANCH   2  17
ATOM     17  C   UNL     1       4.900   6.566   1.077  0.00  0.00    -0.014 C 
BRANCH  17  18
ATOM     18  C   UNL     1       5.526   6.178   2.418  0.00  0.00    -0.080 C 
BRANCH  18  19
ATOM     19  N   UNL     1       5.877   7.403   3.161  0.00  0.00    +0.392 N 
ATOM     20  H   UNL     1       5.027   7.957   3.320  0.00  0.00    -0.084 HD
ATOM     21  H   UNL     1       6.545   7.954   2.610  0.00  0.00    -0.084 HD
BRANCH  19  22
ATOM     22  C   UNL     1       6.484   7.058   4.460  0.00  0.00    +0.093 C 
BRANCH  22  23
ATOM     23  S   UNL     1       8.291   7.062   4.301  0.00  0.00    -0.018 S 
ATOM     24  O   UNL     1       8.894   6.802   5.562  0.00  0.00    -0.171 OA
ATOM     25  O   UNL     1       8.683   6.333   3.147  0.00  0.00    -0.171 OA
BRANCH  23  26
ATOM     26  C   UNL     1       8.710   8.735   3.940  0.00  0.00    +0.086 A 
ATOM     27  C   UNL     1       8.778   9.162   2.627  0.00  0.00    +0.029 A 
ATOM     28  C   UNL     1       9.102  10.475   2.342  0.00  0.00    +0.040 A 
ATOM     29  C   UNL     1       9.369  11.361   3.372  0.00  0.00    +0.124 A 
ATOM     30  C   UNL     1       9.306  10.931   4.687  0.00  0.00    +0.040 A 
ATOM     31  C   UNL     1       8.976   9.619   4.969  0.00  0.00    +0.029 A 
ATOM     32  F   UNL     1       9.690  12.643   3.095  0.00  0.00    -0.205 F 
ENDBRANCH  23  26
ENDBRANCH  22  23
ENDBRANCH  19  22
ENDBRANCH  18  19
ENDBRANCH  17  18
ENDBRANCH   2  17
TORSDOF 7
