REMARK  Name = ZINC13130498
REMARK  6 active torsions:
REMARK  status: ('A' for Active; 'I' for Inactive)
REMARK    1  A    between atoms: C_1  and  C_2
REMARK    2  A    between atoms: C_5  and  S_9
REMARK    3  A    between atoms: C_7  and  C_8
REMARK    4  A    between atoms: S_9  and  N_12
REMARK    5  A    between atoms: N_13  and  C_14
REMARK    6  A    between atoms: C_23  and  O_24
REMARK                            x       y       z     vdW  Elec       q    Type
REMARK                         _______ _______ _______ _____ _____    ______ ____
ROOT
ATOM      1  N   UNL     1       1.651  -4.999  -0.034  0.00  0.00    -0.022 NA
ATOM      2  N   UNL     1       1.941  -6.205  -0.042  0.00  0.00    -0.125 NA
ENDROOT
BRANCH   2   3
ATOM      3  C   UNL     1       3.237  -6.588  -0.052  0.00  0.00    +0.156 A 
ATOM      4  C   UNL     1       3.751  -7.970  -0.068  0.00  0.00    +0.031 A 
ATOM      5  C   UNL     1       3.144  -9.224  -0.078  0.00  0.00    +0.012 A 
ATOM      6  C   UNL     1       3.923 -10.360  -0.093  0.00  0.00    +0.001 A 
ATOM      7  C   UNL     1       5.307 -10.258  -0.097  0.00  0.00    +0.002 A 
ATOM      8  C   UNL     1       5.920  -9.024  -0.087  0.00  0.00    +0.026 A 
ATOM      9  C   UNL     1       5.151  -7.866  -0.073  0.00  0.00    +0.051 A 
ATOM     10  N   UNL     1       5.475  -6.521  -0.060  0.00  0.00    -0.324 N 
ATOM     11  H   UNL     1       6.379  -6.170  -0.061  0.00  0.00    +0.169 HD
ATOM     12  C   UNL     1       4.347  -5.761  -0.054  0.00  0.00    +0.219 A 
BRANCH  12  13
ATOM     13  O   UNL     1       4.315  -4.409  -0.048  0.00  0.00    -0.492 OA
ATOM     14  H   UNL     1       4.311  -4.019   0.838  0.00  0.00    +0.294 HD
ENDBRANCH  12  13
ENDBRANCH   2   3
BRANCH   1  15
ATOM     15  S   UNL     1       0.063  -4.530  -0.023  0.00  0.00    +0.116 S 
ATOM     16  O   UNL     1      -0.476  -4.950   1.223  0.00  0.00    -0.145 OA
ATOM     17  O   UNL     1      -0.490  -4.937  -1.267  0.00  0.00    -0.145 OA
BRANCH  15  22
ATOM     18  C   UNL     1      -0.018   1.503   0.010  0.00  0.00    +0.044 C 
ATOM     19  C   UNL     1       0.002  -0.004   0.002  0.00  0.00    -0.047 A 
ATOM     20  C   UNL     1       0.006  -0.689  -1.199  0.00  0.00    +0.005 A 
ATOM     21  C   UNL     1       0.025  -2.071  -1.207  0.00  0.00    +0.029 A 
ATOM     22  C   UNL     1       0.040  -2.768  -0.013  0.00  0.00    +0.114 A 
ATOM     23  C   UNL     1       0.037  -2.084   1.188  0.00  0.00    +0.032 A 
ATOM     24  C   UNL     1       0.023  -0.702   1.195  0.00  0.00    -0.046 A 
ATOM     25  C   UNL     1       0.025   0.045   2.504  0.00  0.00    +0.044 C 
ENDBRANCH  15  22
ENDBRANCH   1  15
TORSDOF 4
