REMARK  Name = ZINC38507917
REMARK  5 active torsions:
REMARK  status: ('A' for Active; 'I' for Inactive)
REMARK    1  A    between atoms: C_1  and  C_2
REMARK    2  A    between atoms: C_4  and  C_10
REMARK    3  A    between atoms: N_6  and  C_7
REMARK    4  A    between atoms: C_7  and  C_8
REMARK    5  A    between atoms: C_7  and  C_9
REMARK                            x       y       z     vdW  Elec       q    Type
REMARK                         _______ _______ _______ _____ _____    ______ ____
ROOT
ATOM      1  C   UNL     1       0.043  -3.365  -1.397  0.00  0.00    +0.270 C 
ATOM      2  O   UNL     1       0.036  -3.304  -2.612  0.00  0.00    -0.268 OA
ATOM      3  N   UNL     1       0.062  -4.565  -0.784  0.00  0.00    -0.259 N 
ATOM      4  C   UNL     1       0.075  -5.731  -1.538  0.00  0.00    +0.165 A 
ATOM      5  N   UNL     1       0.077  -5.858  -2.847  0.00  0.00    -0.229 NA
ATOM      6  C   UNL     1       0.089  -7.049  -3.439  0.00  0.00    +0.054 A 
ATOM      7  C   UNL     1       0.100  -8.108  -2.589  0.00  0.00    +0.014 A 
ATOM      8  S   UNL     1       0.100  -7.328  -0.999  0.00  0.00    -0.057 S 
ATOM      9  C   UNL     1       0.114  -9.557  -2.939  0.00  0.00    +0.044 C 
ATOM     10  C   UNL     1      -0.256  -9.695  -4.425  0.00  0.00    +0.006 C 
ATOM     11  C   UNL     1       0.568  -8.691  -5.235  0.00  0.00    +0.006 C 
ATOM     12  C   UNL     1       0.093  -7.265  -4.946  0.00  0.00    +0.056 C 
ATOM     13  H   UNL     1       0.068  -4.614   0.185  0.00  0.00    +0.157 HD
ENDROOT
BRANCH   1  17
ATOM     14  C   UNL     1      -0.018   1.503   0.010  0.00  0.00    +0.065 C 
ATOM     15  C   UNL     1       0.002  -0.004   0.002  0.00  0.00    +0.037 A 
ATOM     16  C   UNL     1       0.009  -0.801  -1.092  0.00  0.00    +0.057 A 
ATOM     17  C   UNL     1       0.029  -2.126  -0.595  0.00  0.00    +0.148 A 
ATOM     18  N   UNL     1       0.034  -2.043   0.721  0.00  0.00    -0.166 NA
ATOM     19  N   UNL     1       0.023  -0.811   1.085  0.00  0.00    -0.265 N 
BRANCH  19  20
ATOM     20  C   UNL     1       0.030  -0.348   2.475  0.00  0.00    +0.101 C 
ATOM     21  C   UNL     1      -1.205  -0.888   3.198  0.00  0.00    +0.032 C 
ATOM     22  C   UNL     1       1.293  -0.854   3.175  0.00  0.00    +0.032 C 
ENDBRANCH  19  20
ENDBRANCH   1  17
TORSDOF 2
