REMARK  Name = ZINC12041306
REMARK  17 active torsions:
REMARK  status: ('A' for Active; 'I' for Inactive)
REMARK    1  A    between atoms: C_1  and  C_2
REMARK    2  A    between atoms: C_7  and  C_8
REMARK    3  A    between atoms: C_8  and  C_19
REMARK    4  A    between atoms: N_12  and  C_15
REMARK    5  A    between atoms: C_15  and  C_16
REMARK    6  A    between atoms: C_16  and  N_74
REMARK    7  A    between atoms: C_17  and  N_74
REMARK    8  A    between atoms: C_18  and  N_74
REMARK    9  A    between atoms: C_19  and  C_20
REMARK   10  A    between atoms: N_22  and  C_23
REMARK   11  A    between atoms: N_22  and  C_32
REMARK   12  A    between atoms: C_23  and  C_24
REMARK   13  A    between atoms: C_25  and  C_31
REMARK   14  A    between atoms: N_27  and  C_30
REMARK   15  A    between atoms: C_28  and  C_29
REMARK   16  A    between atoms: C_32  and  C_33
REMARK   17  A    between atoms: C_32  and  C_34
REMARK                            x       y       z     vdW  Elec       q    Type
REMARK                         _______ _______ _______ _____ _____    ______ ____
ROOT
ATOM      1  C   UNL     1      -5.160   4.789   4.436  0.00  0.00    +0.089 C 
ATOM      2  C   UNL     1      -5.248   5.162   2.942  0.00  0.00    +0.117 C 
ATOM      3  C   UNL     1      -6.735   5.302   2.699  0.00  0.00    +0.223 C 
ATOM      4  O   UNL     1      -7.249   5.591   1.640  0.00  0.00    -0.275 OA
ATOM      5  N   UNL     1      -7.393   5.056   3.839  0.00  0.00    -0.243 N 
ATOM      6  C   UNL     1      -6.606   4.757   4.880  0.00  0.00    +0.233 C 
ATOM      7  O   UNL     1      -6.991   4.501   6.000  0.00  0.00    -0.274 OA
ENDROOT
BRANCH   1  14
ATOM      8  C   UNL     1      -6.157   7.497   4.580  0.00  0.00    +0.044 C 
ATOM      9  C   UNL     1      -4.867   7.131   5.268  0.00  0.00    -0.046 A 
ATOM     10  C   UNL     1      -4.161   8.091   5.969  0.00  0.00    +0.003 A 
ATOM     11  C   UNL     1      -2.979   7.756   6.601  0.00  0.00    +0.000 A 
ATOM     12  C   UNL     1      -2.502   6.460   6.532  0.00  0.00    +0.000 A 
ATOM     13  C   UNL     1      -3.210   5.499   5.836  0.00  0.00    +0.005 A 
ATOM     14  C   UNL     1      -4.390   5.836   5.200  0.00  0.00    -0.029 A 
ENDBRANCH   1  14
BRANCH   5  15
ATOM     15  C   UNL     1      -8.854   5.111   3.939  0.00  0.00    +0.098 C 
BRANCH  15  16
ATOM     16  C   UNL     1      -9.428   3.701   3.785  0.00  0.00    -0.060 C 
BRANCH  16  19
ATOM     17  C   UNL     1     -11.489   2.472   3.460  0.00  0.00    -0.097 C 
ATOM     18  C   UNL     1     -11.356   4.184   5.167  0.00  0.00    -0.097 C 
ATOM     19  N   UNL     1     -10.903   3.781   3.819  0.00  0.00    +0.377 N 
ATOM     20  H   UNL     1     -11.215   4.484   3.139  0.00  0.00    -0.083 HD
ENDBRANCH  16  19
ENDBRANCH  15  16
ENDBRANCH   5  15
BRANCH   1  21
ATOM     21  C   UNL     1      -4.513   3.414   4.610  0.00  0.00    +0.117 C 
BRANCH  21  22
ATOM     22  C   UNL     1      -5.258   2.400   3.781  0.00  0.00    +0.217 C 
ATOM     23  O   UNL     1      -6.090   2.766   2.978  0.00  0.00    -0.276 OA
ATOM     24  N   UNL     1      -5.000   1.085   3.932  0.00  0.00    -0.294 N 
BRANCH  24  25
ATOM     25  C   UNL     1      -3.951   0.646   4.855  0.00  0.00    +0.070 C 
ATOM     26  C   UNL     1      -2.821  -0.018   4.066  0.00  0.00    +0.028 C 
ATOM     27  C   UNL     1      -4.536  -0.358   5.851  0.00  0.00    +0.028 C 
ENDBRANCH  24  25
BRANCH  24  28
ATOM     28  C   UNL     1      -5.769   0.096   3.172  0.00  0.00    +0.146 C 
BRANCH  28  29
ATOM     29  C   UNL     1      -5.756   0.465   1.711  0.00  0.00    +0.013 A 
ATOM     30  C   UNL     1      -4.744   0.161   0.794  0.00  0.00    +0.065 A 
ATOM     31  N   UNL     1      -5.091   0.644  -0.371  0.00  0.00    -0.176 NA
ATOM     32  N   UNL     1      -6.335   1.271  -0.233  0.00  0.00    -0.271 N 
ATOM     33  C   UNL     1      -6.725   1.143   1.053  0.00  0.00    +0.041 A 
ATOM     34  C   UNL     1      -8.007   1.664   1.649  0.00  0.00    +0.065 C 
ATOM     35  C   UNL     1      -7.085   1.943  -1.297  0.00  0.00    +0.172 C 
ATOM     36  C   UNL     1      -3.475  -0.592   1.097  0.00  0.00    +0.068 C 
ENDBRANCH  28  29
ENDBRANCH  24  28
ENDBRANCH  21  22
ENDBRANCH   1  21
TORSDOF 9
