REMARK  Name = ZINC06197889
REMARK  15 active torsions:
REMARK  status: ('A' for Active; 'I' for Inactive)
REMARK    1  A    between atoms: C_1  and  C_2
REMARK    2  A    between atoms: C_2  and  C_3
REMARK    3  A    between atoms: C_10  and  C_15
REMARK    4  A    between atoms: C_15  and  C_17
REMARK    5  A    between atoms: C_15  and  N_73
REMARK    6  A    between atoms: N_21  and  C_22
REMARK    7  A    between atoms: C_22  and  C_23
REMARK    8  A    between atoms: C_22  and  C_24
REMARK    9  A    between atoms: C_22  and  C_25
REMARK   10  A    between atoms: C_26  and  C_27
REMARK   11  A    between atoms: C_26  and  N_73
REMARK   12  A    between atoms: C_31  and  O_33
REMARK   13  A    between atoms: O_33  and  C_34
REMARK   14  A    between atoms: C_35  and  C_36
REMARK   15  A    between atoms: C_35  and  N_73
REMARK                            x       y       z     vdW  Elec       q    Type
REMARK                         _______ _______ _______ _____ _____    ______ ____
ROOT
ATOM      1  C   UNL     1      -1.762  -0.139  -2.507  0.00  0.00    +0.040 C 
ENDROOT
BRANCH   1   9
ATOM      2  C   UNL     1       1.760   4.948  -2.572  0.00  0.00    -0.047 A 
ATOM      3  C   UNL     1       2.964   4.300  -2.812  0.00  0.00    +0.005 A 
ATOM      4  C   UNL     1       3.011   2.929  -2.944  0.00  0.00    +0.026 A 
ATOM      5  C   UNL     1       1.841   2.185  -2.837  0.00  0.00    +0.049 A 
ATOM      6  C   UNL     1       0.622   2.845  -2.594  0.00  0.00    -0.001 A 
ATOM      7  C   UNL     1       0.598   4.237  -2.462  0.00  0.00    +0.013 A 
ATOM      8  C   UNL     1      -0.604   2.052  -2.482  0.00  0.00    +0.017 A 
ATOM      9  C   UNL     1      -0.519   0.706  -2.617  0.00  0.00    +0.011 A 
ATOM     10  C   UNL     1       0.729   0.092  -2.855  0.00  0.00    +0.251 A 
ATOM     11  O   UNL     1       0.783  -1.120  -2.968  0.00  0.00    -0.268 OA
ATOM     12  N   UNL     1       1.859   0.812  -2.964  0.00  0.00    -0.322 N 
ATOM     13  H   UNL     1       2.726   0.345  -3.141  0.00  0.00    +0.169 HD
BRANCH   2  15
ATOM     14  C   UNL     1       1.938   6.826  -0.963  0.00  0.00    +0.009 C 
ATOM     15  C   UNL     1       1.734   6.448  -2.431  0.00  0.00    +0.032 C 
ENDBRANCH   2  15
ENDBRANCH   1   9
BRANCH   1  16
ATOM     16  C   UNL     1      -2.053  -0.780  -3.840  0.00  0.00    +0.143 A 
ATOM     17  N   UNL     1      -1.344  -1.710  -4.432  0.00  0.00    -0.115 NA
ATOM     18  N   UNL     1      -1.917  -1.996  -5.550  0.00  0.00    -0.023 NA
ATOM     19  N   UNL     1      -2.973  -1.272  -5.687  0.00  0.00    -0.043 NA
ATOM     20  N   UNL     1      -3.094  -0.514  -4.650  0.00  0.00    -0.225 N 
BRANCH  20  21
ATOM     21  C   UNL     1      -4.162   0.458  -4.403  0.00  0.00    +0.059 C 
ATOM     22  C   UNL     1      -3.551   1.844  -4.187  0.00  0.00    +0.036 C 
ATOM     23  C   UNL     1      -5.104   0.499  -5.609  0.00  0.00    +0.036 C 
ATOM     24  C   UNL     1      -4.948   0.047  -3.156  0.00  0.00    +0.036 C 
ENDBRANCH  20  21
ENDBRANCH   1  16
BRANCH   1  25
ATOM     25  N   UNL     1      -1.534  -1.199  -1.503  0.00  0.00    +0.397 N 
ATOM     26  H   UNL     1      -0.713  -1.750  -1.781  0.00  0.00    -0.079 HD
BRANCH  25  27
ATOM     27  C   UNL     1      -2.710  -2.092  -1.434  0.00  0.00    -0.041 C 
BRANCH  27  28
ATOM     28  C   UNL     1      -2.301  -3.379  -0.765  0.00  0.00    -0.060 A 
ATOM     29  C   UNL     1      -2.475  -3.534   0.598  0.00  0.00    +0.002 A 
ATOM     30  C   UNL     1      -2.102  -4.714   1.215  0.00  0.00    +0.004 A 
ATOM     31  C   UNL     1      -1.554  -5.741   0.470  0.00  0.00    +0.045 A 
ATOM     32  C   UNL     1      -1.378  -5.587  -0.897  0.00  0.00    +0.120 A 
ATOM     33  C   UNL     1      -1.758  -4.404  -1.515  0.00  0.00    +0.047 A 
BRANCH  32  34
ATOM     34  O   UNL     1      -0.839  -6.596  -1.632  0.00  0.00    -0.495 OA
ATOM     35  C   UNL     1      -0.477  -7.787  -0.930  0.00  0.00    +0.277 C 
ENDBRANCH  32  34
ENDBRANCH  27  28
ENDBRANCH  25  27
BRANCH  25  36
ATOM     36  C   UNL     1      -1.280  -0.595  -0.179  0.00  0.00    -0.001 C 
BRANCH  36  37
ATOM     37  C   UNL     1      -2.449   0.258   0.245  0.00  0.00    +0.089 A 
ATOM     38  C   UNL     1      -3.504  -0.158   0.968  0.00  0.00    +0.042 A 
ATOM     39  C   UNL     1      -4.353   0.960   1.134  0.00  0.00    +0.041 A 
ATOM     40  C   UNL     1      -3.765   1.993   0.503  0.00  0.00    +0.195 A 
ATOM     41  O   UNL     1      -2.612   1.561  -0.033  0.00  0.00    -0.470 OA
ENDBRANCH  36  37
ENDBRANCH  25  36
ENDBRANCH   1  25
TORSDOF 10
