REMARK  Name = ZINC49978635
REMARK  7 active torsions:
REMARK  status: ('A' for Active; 'I' for Inactive)
REMARK    1  A    between atoms: C_1  and  C_2
REMARK    2  A    between atoms: C_5  and  N_9
REMARK    3  A    between atoms: C_6  and  C_8
REMARK    4  A    between atoms: N_9  and  C_10
REMARK    5  A    between atoms: N_9  and  S_11
REMARK    6  A    between atoms: S_11  and  C_14
REMARK    7  A    between atoms: C_15  and  N_21
REMARK                            x       y       z     vdW  Elec       q    Type
REMARK                         _______ _______ _______ _____ _____    ______ ____
ROOT
ATOM      1  S   UNL     1      -1.723  -5.260   0.243  0.00  0.00    +0.078 S 
ATOM      2  O   UNL     1      -1.340  -6.562   0.665  0.00  0.00    -0.150 OA
ATOM      3  O   UNL     1      -2.785  -4.542   0.856  0.00  0.00    -0.150 OA
ENDROOT
BRANCH   1   4
ATOM      4  C   UNL     1      -2.120  -5.382  -1.469  0.00  0.00    +0.147 A 
ATOM      5  C   UNL     1      -2.885  -4.396  -2.078  0.00  0.00    +0.053 A 
ATOM      6  C   UNL     1      -3.196  -4.496  -3.428  0.00  0.00    +0.025 A 
ATOM      7  C   UNL     1      -2.744  -5.575  -4.162  0.00  0.00    +0.003 A 
ATOM      8  C   UNL     1      -1.983  -6.556  -3.554  0.00  0.00    +0.022 A 
ATOM      9  C   UNL     1      -1.666  -6.457  -2.210  0.00  0.00    +0.069 A 
ATOM     10 CL   UNL     1      -0.702  -7.687  -1.453  0.00  0.00    -0.081 Cl
BRANCH   5  11
ATOM     11  N   UNL     1      -3.342  -3.306  -1.333  0.00  0.00    -0.356 N 
ATOM     12  H   UNL     1      -2.960  -3.120  -0.462  0.00  0.00    +0.142 HD
ATOM     13  H   UNL     1      -4.041  -2.735  -1.688  0.00  0.00    +0.142 HD
ENDBRANCH   5  11
ENDBRANCH   1   4
BRANCH   1  14
ATOM     14  N   UNL     1      -0.374  -4.307   0.366  0.00  0.00    -0.206 N 
ATOM     15  C   UNL     1       0.959  -4.915   0.323  0.00  0.00    +0.157 C 
BRANCH  14  20
ATOM     16  C   UNL     1      -0.915   1.307   0.953  0.00  0.00    +0.044 C 
ATOM     17  C   UNL     1      -0.771  -0.185   0.797  0.00  0.00    -0.050 A 
ATOM     18  C   UNL     1      -0.582  -0.732  -0.459  0.00  0.00    +0.005 A 
ATOM     19  C   UNL     1      -0.450  -2.099  -0.605  0.00  0.00    +0.025 A 
ATOM     20  C   UNL     1      -0.507  -2.925   0.511  0.00  0.00    +0.054 A 
ATOM     21  C   UNL     1      -0.697  -2.372   1.770  0.00  0.00    -0.028 A 
ATOM     22  C   UNL     1      -0.823  -1.003   1.911  0.00  0.00    +0.008 A 
ATOM     23  C   UNL     1      -0.760  -3.263   2.984  0.00  0.00    +0.046 C 
ENDBRANCH  14  20
ENDBRANCH   1  14
TORSDOF 4
