REMARK  Name = ZINC05581839
REMARK  11 active torsions:
REMARK  status: ('A' for Active; 'I' for Inactive)
REMARK    1  A    between atoms: C_1  and  C_2
REMARK    2  A    between atoms: C_2  and  C_3
REMARK    3  A    between atoms: C_7  and  C_23
REMARK    4  A    between atoms: C_8  and  N_9
REMARK    5  A    between atoms: C_10  and  C_12
REMARK    6  A    between atoms: C_12  and  C_14
REMARK    7  A    between atoms: C_12  and  S_15
REMARK    8  A    between atoms: S_15  and  C_16
REMARK    9  A    between atoms: C_19  and  C_22
REMARK   10  A    between atoms: N_20  and  N_21
REMARK   11  A    between atoms: C_23  and  C_24
REMARK                            x       y       z     vdW  Elec       q    Type
REMARK                         _______ _______ _______ _____ _____    ______ ____
ROOT
ATOM      1  N   UNL     1      -4.918   6.392   7.795  0.00  0.00    -0.284 N 
ATOM      2  C   UNL     1      -4.048   6.437   6.767  0.00  0.00    +0.230 C 
ATOM      3  O   UNL     1      -3.549   5.413   6.349  0.00  0.00    -0.274 OA
ATOM      4  H   UNL     1      -5.243   7.215   8.192  0.00  0.00    +0.155 HD
ENDROOT
BRANCH   1  10
ATOM      5  C   UNL     1      -6.101   4.309   7.483  0.00  0.00    -0.026 A 
ATOM      6  C   UNL     1      -6.525   3.089   7.973  0.00  0.00    +0.005 A 
ATOM      7  C   UNL     1      -6.215   2.717   9.268  0.00  0.00    +0.001 A 
ATOM      8  C   UNL     1      -5.475   3.562  10.075  0.00  0.00    +0.005 A 
ATOM      9  C   UNL     1      -5.044   4.780   9.590  0.00  0.00    -0.026 A 
ATOM     10  C   UNL     1      -5.354   5.157   8.289  0.00  0.00    +0.040 A 
BRANCH   5  12
ATOM     11  C   UNL     1      -7.107   3.543   5.350  0.00  0.00    +0.009 C 
ATOM     12  C   UNL     1      -6.445   4.717   6.074  0.00  0.00    +0.033 C 
ENDBRANCH   5  12
BRANCH   9  13
ATOM     13  C   UNL     1      -4.238   5.700  10.470  0.00  0.00    +0.033 C 
ATOM     14  C   UNL     1      -5.171   6.710  11.142  0.00  0.00    +0.009 C 
ENDBRANCH   9  13
ENDBRANCH   1  10
BRANCH   2  15
ATOM     15  C   UNL     1      -3.695   7.759   6.136  0.00  0.00    +0.137 C 
ATOM     16  C   UNL     1      -4.803   8.174   5.166  0.00  0.00    +0.029 C 
BRANCH  15  17
ATOM     17  S   UNL     1      -2.133   7.600   5.235  0.00  0.00    -0.072 S 
BRANCH  17  18
ATOM     18  C   UNL     1      -1.891   9.274   4.744  0.00  0.00    +0.209 A 
ATOM     19  N   UNL     1      -2.683  10.288   5.008  0.00  0.00    -0.121 NA
ATOM     20  N   UNL     1      -2.200  11.364   4.497  0.00  0.00    -0.132 NA
ATOM     21  C   UNL     1      -1.081  11.104   3.882  0.00  0.00    +0.148 A 
ATOM     22  N   UNL     1      -0.846   9.763   4.013  0.00  0.00    -0.228 N 
ATOM     23  C   UNL     1      -0.210  12.097   3.155  0.00  0.00    +0.090 C 
BRANCH  22  24
ATOM     24  N   UNL     1       0.214   9.059   3.517  0.00  0.00    -0.295 N 
ATOM     25  H   UNL     1       0.974   9.034   4.181  0.00  0.00    +0.163 HD
ATOM     26  H   UNL     1      -0.064   8.127   3.250  0.00  0.00    +0.163 HD
ENDBRANCH  22  24
ENDBRANCH  17  18
ENDBRANCH  15  17
ENDBRANCH   2  15
TORSDOF 7
