REMARK  Name = ZINC19912306
REMARK  12 active torsions:
REMARK  status: ('A' for Active; 'I' for Inactive)
REMARK    1  A    between atoms: C_1  and  C_2
REMARK    2  A    between atoms: C_4  and  C_39
REMARK    3  A    between atoms: C_6  and  O_8
REMARK    4  A    between atoms: O_8  and  C_9
REMARK    5  A    between atoms: C_14  and  O_20
REMARK    6  A    between atoms: O_20  and  C_21
REMARK    7  A    between atoms: C_21  and  C_22
REMARK    8  A    between atoms: C_22  and  C_24
REMARK    9  A    between atoms: C_22  and  O_38
REMARK   10  A    between atoms: C_24  and  N_25
REMARK   11  A    between atoms: N_28  and  C_31
REMARK   12  A    between atoms: C_31  and  C_32
REMARK                            x       y       z     vdW  Elec       q    Type
REMARK                         _______ _______ _______ _____ _____    ______ ____
ROOT
ATOM      1  C   UNL     1       0.799  -0.712  -8.310  0.00  0.00    +0.210 A 
ATOM      2  C   UNL     1      -0.326  -0.035  -8.005  0.00  0.00    +0.245 A 
ATOM      3  O   UNL     1      -0.703   0.213  -6.743  0.00  0.00    -0.459 OA
ATOM      4  C   UNL     1       0.018  -0.197  -5.680  0.00  0.00    +0.142 A 
ATOM      5  C   UNL     1      -0.405   0.072  -4.385  0.00  0.00    +0.092 A 
ATOM      6  C   UNL     1       0.357  -0.358  -3.312  0.00  0.00    +0.124 A 
ATOM      7  C   UNL     1       1.538  -1.067  -3.519  0.00  0.00    +0.046 A 
ATOM      8  C   UNL     1       1.965  -1.344  -4.786  0.00  0.00    +0.019 A 
ATOM      9  C   UNL     1       1.211  -0.913  -5.879  0.00  0.00    +0.068 A 
ATOM     10  C   UNL     1       1.636  -1.191  -7.262  0.00  0.00    +0.234 A 
ATOM     11  O   UNL     1       2.662  -1.807  -7.500  0.00  0.00    -0.283 OA
ENDROOT
BRANCH   1  12
ATOM     12  O   UNL     1       1.133  -0.935  -9.610  0.00  0.00    -0.449 OA
BRANCH  12  18
ATOM     13  C   UNL     1      -2.316  -1.329 -13.040  0.00  0.00    +0.044 C 
ATOM     14  C   UNL     1      -1.317  -0.510 -12.265  0.00  0.00    -0.047 A 
ATOM     15  C   UNL     1      -1.173   0.839 -12.534  0.00  0.00    +0.007 A 
ATOM     16  C   UNL     1      -0.257   1.594 -11.825  0.00  0.00    -0.047 A 
ATOM     17  C   UNL     1       0.517   1.002 -10.845  0.00  0.00    +0.049 A 
ATOM     18  C   UNL     1       0.374  -0.351 -10.573  0.00  0.00    +0.129 A 
ATOM     19  C   UNL     1      -0.542  -1.107 -11.290  0.00  0.00    +0.049 A 
ATOM     20  C   UNL     1      -0.103   3.063 -12.121  0.00  0.00    +0.044 C 
ENDBRANCH  12  18
ENDBRANCH   1  12
BRANCH   6  21
ATOM     21  O   UNL     1      -0.054  -0.090  -2.046  0.00  0.00    -0.489 OA
BRANCH  21  22
ATOM     22  C   UNL     1       0.772  -0.565  -0.981  0.00  0.00    +0.261 C 
BRANCH  22  23
ATOM     23  C   UNL     1       0.152  -0.172   0.361  0.00  0.00    +0.166 C 
BRANCH  23  24
ATOM     24  O   UNL     1       0.153   1.252   0.487  0.00  0.00    -0.387 OA
ATOM     25  H   UNL     1      -0.256   1.724   1.392  0.00  0.00    +0.210 HD
ENDBRANCH  23  24
BRANCH  23  26
ATOM     26  C   UNL     1       0.968  -0.786   1.500  0.00  0.00    +0.119 C 
BRANCH  26  27
ATOM     27  N   UNL     1       0.369  -0.412   2.788  0.00  0.00    -0.303 NA
ATOM     28  C   UNL     1       1.264  -0.752   3.903  0.00  0.00    +0.066 C 
ATOM     29  C   UNL     1       0.641  -0.276   5.217  0.00  0.00    -0.063 C 
ATOM     30  N   UNL     1      -0.675  -0.908   5.390  0.00  0.00    +0.384 N 
ATOM     31  C   UNL     1      -1.570  -0.568   4.275  0.00  0.00    -0.063 C 
ATOM     32  C   UNL     1      -0.946  -1.044   2.961  0.00  0.00    +0.066 C 
ATOM     33  H   UNL     1      -0.531  -1.999   5.389  0.00  0.00    -0.081 HD
BRANCH  30  34
ATOM     34  C   UNL     1      -1.274  -0.534   6.678  0.00  0.00    -0.043 C 
BRANCH  34  35
ATOM     35  C   UNL     1      -0.242  -0.667   7.769  0.00  0.00    -0.064 A 
ATOM     36  C   UNL     1      -0.105  -1.863   8.448  0.00  0.00    +0.002 A 
ATOM     37  C   UNL     1       0.844  -1.987   9.445  0.00  0.00    +0.000 A 
ATOM     38  C   UNL     1       1.650  -0.911   9.770  0.00  0.00    +0.000 A 
ATOM     39  C   UNL     1       1.509   0.286   9.094  0.00  0.00    +0.000 A 
ATOM     40  C   UNL     1       0.563   0.408   8.094  0.00  0.00    +0.002 A 
ENDBRANCH  34  35
ENDBRANCH  30  34
ENDBRANCH  26  27
ENDBRANCH  23  26
ENDBRANCH  22  23
ENDBRANCH  21  22
ENDBRANCH   6  21
TORSDOF 10
