REMARK  Name = ZINC22068942
REMARK  8 active torsions:
REMARK  status: ('A' for Active; 'I' for Inactive)
REMARK    1  A    between atoms: C_1  and  C_2
REMARK    2  A    between atoms: C_2  and  C_3
REMARK    3  A    between atoms: C_3  and  N_4
REMARK    4  A    between atoms: C_8  and  S_10
REMARK    5  A    between atoms: S_10  and  C_11
REMARK    6  A    between atoms: C_11  and  C_12
REMARK    7  A    between atoms: N_17  and  S_20
REMARK    8  A    between atoms: S_20  and  C_23
REMARK                            x       y       z     vdW  Elec       q    Type
REMARK                         _______ _______ _______ _____ _____    ______ ____
ROOT
ATOM      1  C   UNL     1       4.275  -1.042  -5.629  0.00  0.00    +0.226 C 
ATOM      2  O   UNL     1       4.940  -0.212  -6.212  0.00  0.00    -0.275 OA
ATOM      3  N   UNL     1       3.944  -0.854  -4.336  0.00  0.00    -0.298 N 
ATOM      4  C   UNL     1       4.382   0.352  -3.620  0.00  0.00    +0.125 C 
ATOM      5  C   UNL     1       5.143  -0.076  -2.359  0.00  0.00    +0.128 C 
ATOM      6  N   UNL     1       4.338  -1.074  -1.640  0.00  0.00    -0.174 NA
ATOM      7  C   UNL     1       3.904  -2.283  -2.355  0.00  0.00    +0.128 C 
ATOM      8  C   UNL     1       3.138  -1.852  -3.618  0.00  0.00    +0.125 C 
ENDROOT
BRANCH   6   9
ATOM      9  S   UNL     1       3.931  -0.843  -0.052  0.00  0.00    +0.061 S 
ATOM     10  O   UNL     1       4.904   0.039   0.492  0.00  0.00    -0.153 OA
ATOM     11  O   UNL     1       3.679  -2.130   0.494  0.00  0.00    -0.153 OA
BRANCH   9  12
ATOM     12  C   UNL     1       2.397   0.024  -0.027  0.00  0.00    +0.109 A 
ATOM     13  C   UNL     1       1.207  -0.680  -0.016  0.00  0.00    +0.032 A 
ATOM     14  C   UNL     1       0.002  -0.004   0.002  0.00  0.00    +0.051 A 
ATOM     15  C   UNL     1      -0.017   1.383   0.010  0.00  0.00    +0.162 A 
ATOM     16  C   UNL     1       1.179   2.090   0.002  0.00  0.00    +0.164 A 
ATOM     17  C   UNL     1       2.385   1.406  -0.018  0.00  0.00    +0.078 A 
ATOM     18  O   UNL     1       1.184   3.451   0.018  0.00  0.00    -0.485 OA
ATOM     19  C   UNL     1      -0.040   4.103  -0.340  0.00  0.00    +0.270 C 
ATOM     20  C   UNL     1      -1.189   3.413   0.408  0.00  0.00    +0.270 C 
ATOM     21  O   UNL     1      -1.212   2.035   0.019  0.00  0.00    -0.485 OA
ENDBRANCH   9  12
ENDBRANCH   6   9
BRANCH   1  22
ATOM     22  C   UNL     1       3.818  -2.284  -6.351  0.00  0.00    +0.172 C 
BRANCH  22  23
ATOM     23  S   UNL     1       4.419  -2.244  -8.062  0.00  0.00    -0.088 S 
BRANCH  23  28
ATOM     24  N   UNL     1       2.822  -6.904 -11.120  0.00  0.00    -0.322 N 
ATOM     25  C   UNL     1       3.083  -5.893 -10.203  0.00  0.00    +0.182 A 
ATOM     26  N   UNL     1       2.714  -5.793  -8.941  0.00  0.00    -0.125 NA
ATOM     27  N   UNL     1       3.085  -4.692  -8.204  0.00  0.00    -0.133 NA
ATOM     28  C   UNL     1       3.810  -3.742  -8.762  0.00  0.00    +0.160 A 
ATOM     29  S   UNL     1       4.004  -4.377 -10.421  0.00  0.00    -0.025 S 
ATOM     30  H   UNL     1       3.211  -6.830 -12.146  0.00  0.00    +0.148 HD
BRANCH  24  31
ATOM     31  C   UNL     1       2.029  -8.069 -10.719  0.00  0.00    +0.103 C 
BRANCH  31  33
ATOM     32  C   UNL     1       1.062 -10.241 -11.488  0.00  0.00    +0.005 C 
ATOM     33  C   UNL     1       1.891  -9.024 -11.906  0.00  0.00    +0.015 C 
ENDBRANCH  31  33
ENDBRANCH  24  31
ENDBRANCH  23  28
ENDBRANCH  22  23
ENDBRANCH   1  22
TORSDOF 7
