REMARK  Name = ZINC36597609
REMARK  13 active torsions:
REMARK  status: ('A' for Active; 'I' for Inactive)
REMARK    1  A    between atoms: C_1  and  C_2
REMARK    2  A    between atoms: C_5  and  C_7
REMARK    3  A    between atoms: C_7  and  N_8
REMARK    4  A    between atoms: N_8  and  C_9
REMARK    5  A    between atoms: C_9  and  C_11
REMARK    6  A    between atoms: C_9  and  C_18
REMARK    7  A    between atoms: N_20  and  C_21
REMARK    8  A    between atoms: C_21  and  C_22
REMARK    9  A    between atoms: C_21  and  C_23
REMARK   10  A    between atoms: C_21  and  C_24
REMARK   11  A    between atoms: C_25  and  C_27
REMARK   12  A    between atoms: C_28  and  O_34
REMARK   13  A    between atoms: C_32  and  O_33
REMARK                            x       y       z     vdW  Elec       q    Type
REMARK                         _______ _______ _______ _____ _____    ______ ____
ROOT
ATOM      1  N   UNL     1       1.945  -3.478  -1.237  0.00  0.00    -0.274 N 
ATOM      2  C   UNL     1       0.991  -4.364  -1.584  0.00  0.00    +0.255 C 
ATOM      3  O   UNL     1       1.061  -4.948  -2.648  0.00  0.00    -0.270 OA
ENDROOT
BRANCH   2   4
ATOM      4  C   UNL     1      -0.136  -4.627  -0.673  0.00  0.00    +0.119 A 
ATOM      5  C   UNL     1      -1.312  -3.868  -0.769  0.00  0.00    +0.133 A 
ATOM      6  C   UNL     1      -2.367  -4.123   0.093  0.00  0.00    +0.046 A 
ATOM      7  C   UNL     1      -2.263  -5.121   1.044  0.00  0.00    +0.007 A 
ATOM      8  C   UNL     1      -1.108  -5.875   1.147  0.00  0.00    +0.046 A 
ATOM      9  C   UNL     1      -0.044  -5.640   0.292  0.00  0.00    +0.133 A 
BRANCH   9  10
ATOM     10  O   UNL     1       1.086  -6.384   0.391  0.00  0.00    -0.506 OA
ATOM     11  H   UNL     1       1.745  -6.020   0.997  0.00  0.00    +0.292 HD
ENDBRANCH   9  10
BRANCH   5  12
ATOM     12  O   UNL     1      -1.417  -2.888  -1.701  0.00  0.00    -0.506 OA
ATOM     13  H   UNL     1      -1.776  -3.187  -2.547  0.00  0.00    +0.292 HD
ENDBRANCH   5  12
ENDBRANCH   2   4
BRANCH   1  14
ATOM     14  C   UNL     1       1.923  -2.859   0.091  0.00  0.00    +0.183 C 
BRANCH  14  19
ATOM     15  C   UNL     1       0.719   2.010  -0.441  0.00  0.00    +0.086 C 
ATOM     16  C   UNL     1       0.591   0.529  -0.191  0.00  0.00    +0.102 A 
ATOM     17  C   UNL     1      -0.546  -0.123   0.111  0.00  0.00    +0.045 A 
ATOM     18  C   UNL     1      -0.208  -1.488   0.260  0.00  0.00    +0.046 A 
ATOM     19  C   UNL     1       1.115  -1.588   0.039  0.00  0.00    +0.122 A 
ATOM     20  O   UNL     1       1.593  -0.364  -0.239  0.00  0.00    -0.463 OA
ENDBRANCH  14  19
ENDBRANCH   1  14
BRANCH   1  21
ATOM     21  C   UNL     1       3.004  -3.132  -2.189  0.00  0.00    +0.193 C 
BRANCH  21  22
ATOM     22  C   UNL     1       2.385  -2.665  -3.481  0.00  0.00    -0.018 A 
ATOM     23  C   UNL     1       2.158  -3.567  -4.503  0.00  0.00    +0.007 A 
ATOM     24  C   UNL     1       1.590  -3.139  -5.689  0.00  0.00    +0.020 A 
ATOM     25  C   UNL     1       1.251  -1.808  -5.853  0.00  0.00    +0.041 A 
ATOM     26  C   UNL     1       1.479  -0.906  -4.829  0.00  0.00    +0.020 A 
ATOM     27  C   UNL     1       2.041  -1.336  -3.642  0.00  0.00    +0.007 A 
ATOM     28 CL   UNL     1       0.539  -1.270  -7.342  0.00  0.00    -0.084 Cl
ENDBRANCH  21  22
BRANCH  21  29
ATOM     29  C   UNL     1       3.859  -4.345  -2.450  0.00  0.00    +0.239 C 
ATOM     30  O   UNL     1       3.608  -5.395  -1.897  0.00  0.00    -0.273 OA
ATOM     31  N   UNL     1       4.902  -4.264  -3.300  0.00  0.00    -0.309 N 
ATOM     32  H   UNL     1       5.103  -3.424  -3.742  0.00  0.00    +0.149 HD
BRANCH  31  33
ATOM     33  C   UNL     1       5.734  -5.443  -3.554  0.00  0.00    +0.026 C 
ATOM     34  C   UNL     1       4.868  -6.561  -4.139  0.00  0.00    +0.031 C 
ATOM     35  C   UNL     1       6.840  -5.082  -4.548  0.00  0.00    +0.031 C 
ATOM     36  C   UNL     1       6.361  -5.917  -2.242  0.00  0.00    +0.031 C 
ENDBRANCH  31  33
ENDBRANCH  21  29
ENDBRANCH   1  21
TORSDOF 9
