REMARK  Name = ZINC25376859
REMARK  15 active torsions:
REMARK  status: ('A' for Active; 'I' for Inactive)
REMARK    1  A    between atoms: C_1  and  C_2
REMARK    2  A    between atoms: C_2  and  N_3
REMARK    3  A    between atoms: N_3  and  C_4
REMARK    4  A    between atoms: N_3  and  S_6
REMARK    5  A    between atoms: C_4  and  C_5
REMARK    6  A    between atoms: S_6  and  C_9
REMARK    7  A    between atoms: C_13  and  C_15
REMARK    8  A    between atoms: N_17  and  C_18
REMARK    9  A    between atoms: C_18  and  C_20
REMARK   10  A    between atoms: C_18  and  C_23
REMARK   11  A    between atoms: C_20  and  C_21
REMARK   12  A    between atoms: C_20  and  C_22
REMARK   13  A    between atoms: C_31  and  C_33
REMARK   14  A    between atoms: C_33  and  C_34
REMARK   15  A    between atoms: C_33  and  C_35
REMARK                            x       y       z     vdW  Elec       q    Type
REMARK                         _______ _______ _______ _____ _____    ______ ____
ROOT
ATOM      1  C   UNL     1       0.267   0.400   0.357  0.00  0.00    +0.245 C 
ATOM      2  O   UNL     1       1.364  -0.116   0.278  0.00  0.00    -0.270 OA
ATOM      3  N   UNL     1       0.159   1.724   0.584  0.00  0.00    -0.300 N 
ATOM      4  H   UNL     1      -0.834   2.191   0.655  0.00  0.00    +0.150 HD
ENDROOT
BRANCH   1   9
ATOM      5  C   UNL     1      -1.983  -2.561  -0.173  0.00  0.00    +0.106 A 
ATOM      6  C   UNL     1      -3.231  -1.970  -0.083  0.00  0.00    +0.028 A 
ATOM      7  C   UNL     1      -3.345  -0.612   0.151  0.00  0.00    +0.003 A 
ATOM      8  C   UNL     1      -2.212   0.164   0.295  0.00  0.00    +0.013 A 
ATOM      9  C   UNL     1      -0.951  -0.425   0.204  0.00  0.00    +0.039 A 
ATOM     10  C   UNL     1      -0.843  -1.796  -0.036  0.00  0.00    +0.041 A 
BRANCH   5  11
ATOM     11  S   UNL     1      -1.849  -4.292  -0.472  0.00  0.00    +0.061 S 
ATOM     12  O   UNL     1      -0.581  -4.694   0.030  0.00  0.00    -0.153 OA
ATOM     13  O   UNL     1      -3.065  -4.877  -0.025  0.00  0.00    -0.153 OA
BRANCH  11  14
ATOM     14  N   UNL     1      -1.797  -4.504  -2.113  0.00  0.00    -0.177 NA
BRANCH  14  16
ATOM     15  C   UNL     1      -0.020  -5.944  -2.978  0.00  0.00    +0.022 C 
ATOM     16  C   UNL     1      -0.509  -4.504  -2.812  0.00  0.00    +0.106 C 
ENDBRANCH  14  16
BRANCH  14  17
ATOM     17  C   UNL     1      -3.039  -4.690  -2.867  0.00  0.00    +0.106 C 
ATOM     18  C   UNL     1      -3.506  -3.343  -3.422  0.00  0.00    +0.022 C 
ENDBRANCH  14  17
ENDBRANCH  11  14
ENDBRANCH   5  11
ENDBRANCH   1   9
BRANCH   3  19
ATOM     19  C   UNL     1       1.365   2.542   0.735  0.00  0.00    +0.162 C 
BRANCH  19  20
ATOM     20  C   UNL     1       1.054   3.970   0.368  0.00  0.00    +0.236 C 
ATOM     21  O   UNL     1      -0.098   4.318   0.213  0.00  0.00    -0.274 OA
ATOM     22  N   UNL     1       2.054   4.859   0.213  0.00  0.00    -0.297 N 
ATOM     23  C   UNL     1       3.456   4.439   0.346  0.00  0.00    +0.127 C 
ATOM     24  C   UNL     1       4.205   4.833  -0.938  0.00  0.00    +0.126 C 
ATOM     25  N   UNL     1       3.913   6.242  -1.237  0.00  0.00    -0.298 N 
ATOM     26  C   UNL     1       2.511   6.663  -1.365  0.00  0.00    +0.126 C 
ATOM     27  C   UNL     1       1.762   6.268  -0.086  0.00  0.00    +0.127 C 
ATOM     28  C   UNL     1       4.913   7.132  -1.392  0.00  0.00    +0.218 C 
ATOM     29  O   UNL     1       6.063   6.790  -1.211  0.00  0.00    -0.275 OA
BRANCH  28  30
ATOM     30  C   UNL     1       4.604   8.552  -1.790  0.00  0.00    +0.069 C 
ATOM     31  C   UNL     1       5.888   9.383  -1.754  0.00  0.00    +0.017 C 
ATOM     32  C   UNL     1       4.023   8.570  -3.205  0.00  0.00    +0.017 C 
ENDBRANCH  28  30
ENDBRANCH  19  20
BRANCH  19  33
ATOM     33  C   UNL     1       1.844   2.481   2.187  0.00  0.00    +0.012 C 
ATOM     34  C   UNL     1       0.692   2.856   3.120  0.00  0.00    +0.009 C 
ATOM     35  C   UNL     1       2.320   1.062   2.508  0.00  0.00    +0.009 C 
ENDBRANCH  19  33
ENDBRANCH   3  19
TORSDOF 9
