REMARK  Name = ZINC35008291
REMARK  8 active torsions:
REMARK  status: ('A' for Active; 'I' for Inactive)
REMARK    1  A    between atoms: C_1  and  C_2
REMARK    2  A    between atoms: C_2  and  C_3
REMARK    3  A    between atoms: C_3  and  N_4
REMARK    4  A    between atoms: N_4  and  C_5
REMARK    5  A    between atoms: C_5  and  C_7
REMARK    6  A    between atoms: C_5  and  C_9
REMARK    7  A    between atoms: C_7  and  C_8
REMARK    8  A    between atoms: C_21  and  C_23
REMARK                            x       y       z     vdW  Elec       q    Type
REMARK                         _______ _______ _______ _____ _____    ______ ____
ROOT
ATOM      1  C   UNL     1      -0.892  -2.418  -1.071  0.00  0.00    +0.142 C 
ENDROOT
BRANCH   1   2
ATOM      2  C   UNL     1      -1.653  -2.836   0.160  0.00  0.00    +0.131 A 
ATOM      3  N   UNL     1      -2.948  -3.222   0.016  0.00  0.00    -0.309 N 
ATOM      4  H   UNL     1      -3.355  -3.221  -0.864  0.00  0.00    +0.170 HD
ATOM      5  C   UNL     1      -3.675  -3.607   1.091  0.00  0.00    +0.259 A 
ATOM      6  O   UNL     1      -4.836  -3.956   0.977  0.00  0.00    -0.267 OA
ATOM      7  C   UNL     1      -3.009  -3.588   2.401  0.00  0.00    +0.065 A 
ATOM      8  C   UNL     1      -3.668  -3.966   3.569  0.00  0.00    +0.015 A 
ATOM      9  C   UNL     1      -2.995  -3.929   4.771  0.00  0.00    +0.001 A 
ATOM     10  C   UNL     1      -1.669  -3.520   4.825  0.00  0.00    +0.002 A 
ATOM     11  C   UNL     1      -1.000  -3.143   3.683  0.00  0.00    +0.028 A 
ATOM     12  C   UNL     1      -1.660  -3.172   2.453  0.00  0.00    +0.078 A 
ATOM     13  N   UNL     1      -1.037  -2.814   1.302  0.00  0.00    -0.232 NA
ENDBRANCH   1   2
BRANCH   1  14
ATOM     14  N   UNL     1       0.264  -1.607  -0.679  0.00  0.00    -0.287 N 
ATOM     15  C   UNL     1       1.501  -1.960  -1.080  0.00  0.00    +0.249 C 
ATOM     16  O   UNL     1       1.683  -3.035  -1.617  0.00  0.00    -0.270 OA
BRANCH  15  17
ATOM     17  C   UNL     1       2.637  -1.039  -0.867  0.00  0.00    +0.055 A 
ATOM     18  C   UNL     1       2.547   0.293  -1.279  0.00  0.00    +0.016 A 
ATOM     19  C   UNL     1       3.610   1.147  -1.077  0.00  0.00    +0.021 A 
ATOM     20  C   UNL     1       4.766   0.688  -0.468  0.00  0.00    +0.042 A 
ATOM     21  C   UNL     1       4.863  -0.631  -0.058  0.00  0.00    +0.040 A 
ATOM     22  C   UNL     1       3.803  -1.495  -0.248  0.00  0.00    +0.054 A 
ATOM     23 CL   UNL     1       3.923  -3.147   0.274  0.00  0.00    -0.083 Cl
ATOM     24 CL   UNL     1       6.100   1.770  -0.219  0.00  0.00    -0.083 Cl
ENDBRANCH  15  17
BRANCH  14  25
ATOM     25  C   UNL     1       0.074  -0.414   0.150  0.00  0.00    +0.108 C 
BRANCH  25  27
ATOM     26  C   UNL     1      -0.476   2.012  -0.079  0.00  0.00    +0.005 C 
ATOM     27  C   UNL     1      -0.769   0.609  -0.614  0.00  0.00    +0.016 C 
ENDBRANCH  25  27
ENDBRANCH  14  25
ENDBRANCH   1  14
BRANCH   1  28
ATOM     28  C   UNL     1      -1.806  -1.595  -1.982  0.00  0.00    +0.027 C 
ATOM     29  C   UNL     1      -1.073  -1.276  -3.286  0.00  0.00    +0.006 C 
ENDBRANCH   1  28
TORSDOF 6
