REMARK  Name = ZINC09918375
REMARK  18 active torsions:
REMARK  status: ('A' for Active; 'I' for Inactive)
REMARK    1  A    between atoms: C_1  and  C_2
REMARK    2  A    between atoms: C_2  and  C_3
REMARK    3  A    between atoms: C_2  and  C_4
REMARK    4  A    between atoms: C_2  and  C_5
REMARK    5  A    between atoms: C_7  and  C_16
REMARK    6  A    between atoms: C_9  and  C_12
REMARK    7  A    between atoms: C_10  and  O_11
REMARK    8  A    between atoms: C_12  and  C_13
REMARK    9  A    between atoms: C_12  and  C_14
REMARK   10  A    between atoms: C_12  and  C_15
REMARK   11  A    between atoms: C_16  and  C_17
REMARK   12  A    between atoms: C_17  and  C_18
REMARK   13  A    between atoms: N_20  and  C_21
REMARK   14  A    between atoms: C_21  and  C_22
REMARK   15  A    between atoms: N_24  and  C_25
REMARK   16  A    between atoms: C_25  and  C_26
REMARK   17  A    between atoms: C_25  and  C_27
REMARK   18  A    between atoms: C_25  and  C_28
REMARK                            x       y       z     vdW  Elec       q    Type
REMARK                         _______ _______ _______ _____ _____    ______ ____
ROOT
ATOM      1  C   UNL     1       2.723  -1.147  -2.352  0.00  0.00    -0.000 A 
ATOM      2  C   UNL     1       2.074  -0.702  -1.216  0.00  0.00    +0.011 A 
ATOM      3  C   UNL     1       0.707  -0.490  -1.238  0.00  0.00    -0.046 A 
ATOM      4  C   UNL     1      -0.013  -0.729  -2.393  0.00  0.00    +0.011 A 
ATOM      5  C   UNL     1       0.632  -1.169  -3.533  0.00  0.00    -0.000 A 
ATOM      6  C   UNL     1       2.002  -1.382  -3.514  0.00  0.00    +0.124 A 
ENDROOT
BRANCH   1   8
ATOM      7  C   UNL     1       4.757  -1.047  -0.937  0.00  0.00    +0.015 C 
ATOM      8  C   UNL     1       4.212  -1.378  -2.328  0.00  0.00    -0.009 C 
ATOM      9  C   UNL     1       4.506  -2.844  -2.655  0.00  0.00    +0.015 C 
ATOM     10  C   UNL     1       4.884  -0.479  -3.367  0.00  0.00    +0.015 C 
ENDBRANCH   1   8
BRANCH   5  11
ATOM     11  C   UNL     1      -0.154  -1.423  -4.793  0.00  0.00    -0.009 C 
ATOM     12  C   UNL     1      -1.631  -1.113  -4.545  0.00  0.00    +0.015 C 
ATOM     13  C   UNL     1       0.375  -0.525  -5.914  0.00  0.00    +0.015 C 
ATOM     14  C   UNL     1      -0.003  -2.890  -5.201  0.00  0.00    +0.015 C 
ENDBRANCH   5  11
BRANCH   6  15
ATOM     15  O   UNL     1       2.639  -1.820  -4.632  0.00  0.00    -0.506 OA
ATOM     16  H   UNL     1       2.689  -2.783  -4.704  0.00  0.00    +0.292 HD
ENDBRANCH   6  15
BRANCH   3  17
ATOM     17  C   UNL     1       0.002  -0.004   0.002  0.00  0.00    +0.044 C 
BRANCH  17  18
ATOM     18  C   UNL     1      -0.019   1.526   0.010  0.00  0.00    +0.100 C 
BRANCH  18  19
ATOM     19  C   UNL     1      -0.724   2.012   1.250  0.00  0.00    +0.214 C 
ATOM     20  O   UNL     1      -1.167   1.213   2.049  0.00  0.00    -0.276 OA
ATOM     21  N   UNL     1      -0.863   3.334   1.472  0.00  0.00    -0.307 N 
ATOM     22  H   UNL     1      -0.509   3.973   0.834  0.00  0.00    +0.149 HD
BRANCH  21  23
ATOM     23  C   UNL     1      -1.549   3.806   2.677  0.00  0.00    +0.200 C 
BRANCH  23  24
ATOM     24  C   UNL     1      -1.569   5.313   2.686  0.00  0.00    +0.231 C 
ATOM     25  O   UNL     1      -1.061   5.931   1.774  0.00  0.00    -0.274 OA
ATOM     26  N   UNL     1      -2.152   5.974   3.706  0.00  0.00    -0.309 N 
ATOM     27  H   UNL     1      -2.559   5.479   4.434  0.00  0.00    +0.149 HD
BRANCH  26  28
ATOM     28  C   UNL     1      -2.172   7.439   3.714  0.00  0.00    +0.026 C 
ATOM     29  C   UNL     1      -2.912   7.945   2.474  0.00  0.00    +0.031 C 
ATOM     30  C   UNL     1      -2.888   7.932   4.973  0.00  0.00    +0.031 C 
ATOM     31  C   UNL     1      -0.737   7.968   3.703  0.00  0.00    +0.031 C 
ENDBRANCH  26  28
ENDBRANCH  23  24
ENDBRANCH  21  23
ENDBRANCH  18  19
ENDBRANCH  17  18
ENDBRANCH   3  17
TORSDOF 9
