REMARK  Name = ZINC39662310
REMARK  7 active torsions:
REMARK  status: ('A' for Active; 'I' for Inactive)
REMARK    1  A    between atoms: C_4  and  C_7
REMARK    2  A    between atoms: C_7  and  C_9
REMARK    3  A    between atoms: C_7  and  N_11
REMARK    4  A    between atoms: C_12  and  C_14
REMARK    5  A    between atoms: C_25  and  C_27
REMARK    6  A    between atoms: C_30  and  O_33
REMARK    7  A    between atoms: O_33  and  C_34
REMARK                            x       y       z     vdW  Elec       q    Type
REMARK                         _______ _______ _______ _____ _____    ______ ____
ROOT
ATOM      1  C   UNL     1       4.851  -3.645  -1.775  0.00  0.00    +0.100 C 
ATOM      2  C   UNL     1       4.250  -4.977  -1.274  0.00  0.00    +0.121 C 
ATOM      3  N   UNL     1       5.024  -6.026  -1.979  0.00  0.00    -0.296 N 
ATOM      4  C   UNL     1       6.416  -5.516  -1.982  0.00  0.00    +0.115 C 
ATOM      5  C   UNL     1       6.273  -4.002  -2.238  0.00  0.00    -0.004 C 
ATOM      6  C   UNL     1       7.305  -3.230  -1.421  0.00  0.00    -0.010 C 
ATOM      7  C   UNL     1       8.708  -3.558  -1.938  0.00  0.00    -0.082 C 
ATOM      8  N   UNL     1       8.806  -3.194  -3.357  0.00  0.00    +0.379 N 
ATOM      9  C   UNL     1       7.875  -4.008  -4.148  0.00  0.00    -0.082 C 
ATOM     10  C   UNL     1       6.436  -3.700  -3.724  0.00  0.00    -0.010 C 
ATOM     11  C   UNL     1       4.566  -7.181  -2.500  0.00  0.00    +0.247 C 
ATOM     12  O   UNL     1       3.371  -7.402  -2.532  0.00  0.00    -0.270 OA
ATOM     13  H   UNL     1       8.575  -2.218  -3.470  0.00  0.00    -0.086 HD
ATOM     14  H   UNL     1       9.748  -3.354  -3.680  0.00  0.00    -0.086 HD
ENDROOT
BRANCH  11  15
ATOM     15  C   UNL     1       5.516  -8.179  -3.031  0.00  0.00    +0.037 A 
ATOM     16  C   UNL     1       6.853  -8.159  -2.625  0.00  0.00    +0.016 A 
ATOM     17  C   UNL     1       7.735  -9.091  -3.123  0.00  0.00    +0.047 A 
ATOM     18  C   UNL     1       7.298 -10.051  -4.028  0.00  0.00    +0.130 A 
ATOM     19  C   UNL     1       5.969 -10.074  -4.434  0.00  0.00    +0.047 A 
ATOM     20  C   UNL     1       5.079  -9.149  -3.937  0.00  0.00    +0.016 A 
BRANCH  18  21
ATOM     21  O   UNL     1       8.171 -10.968  -4.516  0.00  0.00    -0.406 OA
BRANCH  21  22
ATOM     22  C   UNL     1       7.655 -11.926  -5.443  0.00  0.00    +0.575 C 
ATOM     23  F   UNL     1       7.141 -11.262  -6.562  0.00  0.00    -0.133 F 
ATOM     24  F   UNL     1       8.682 -12.788  -5.843  0.00  0.00    -0.133 F 
ATOM     25  F   UNL     1       6.637 -12.665  -4.831  0.00  0.00    -0.133 F 
ENDBRANCH  21  22
ENDBRANCH  18  21
ENDBRANCH  11  15
BRANCH   1  27
ATOM     26  N   UNL     1       4.797  -1.322  -0.925  0.00  0.00    -0.296 N 
ATOM     27  C   UNL     1       4.901  -2.638  -0.654  0.00  0.00    +0.219 C 
ATOM     28  O   UNL     1       5.036  -3.012   0.492  0.00  0.00    -0.275 OA
ATOM     29  H   UNL     1       4.689  -1.023  -1.842  0.00  0.00    +0.150 HD
BRANCH  26  30
ATOM     30  C   UNL     1       4.846  -0.344   0.164  0.00  0.00    +0.207 C 
BRANCH  30  34
ATOM     31  C   UNL     1       6.190   3.414  -1.359  0.00  0.00    +0.000 A 
ATOM     32  C   UNL     1       6.631   2.971  -0.126  0.00  0.00    +0.000 A 
ATOM     33  C   UNL     1       6.196   1.755   0.367  0.00  0.00    +0.006 A 
ATOM     34  C   UNL     1       5.319   0.983  -0.373  0.00  0.00    -0.013 A 
ATOM     35  C   UNL     1       4.878   1.427  -1.605  0.00  0.00    +0.006 A 
ATOM     36  C   UNL     1       5.314   2.642  -2.099  0.00  0.00    +0.000 A 
ENDBRANCH  30  34
BRANCH  30  37
ATOM     37  C   UNL     1       3.502  -0.187   0.744  0.00  0.00    +0.090 C 
ATOM     38  N   UNL     1       2.465  -0.066   1.191  0.00  0.00    -0.194 NA
ENDBRANCH  30  37
ENDBRANCH  26  30
ENDBRANCH   1  27
TORSDOF 7
