REMARK  Name = ZINC27668012
REMARK  12 active torsions:
REMARK  status: ('A' for Active; 'I' for Inactive)
REMARK    1  A    between atoms: C_1  and  C_2
REMARK    2  A    between atoms: C_4  and  C_14
REMARK    3  A    between atoms: C_6  and  S_9
REMARK    4  A    between atoms: C_7  and  C_8
REMARK    5  A    between atoms: S_9  and  N_12
REMARK    6  A    between atoms: N_12  and  C_13
REMARK    7  A    between atoms: N_16  and  C_17
REMARK    8  A    between atoms: C_17  and  C_18
REMARK    9  A    between atoms: C_18  and  C_20
REMARK   10  A    between atoms: C_18  and  N_28
REMARK   11  A    between atoms: C_23  and  O_26
REMARK   12  A    between atoms: O_26  and  C_27
REMARK                            x       y       z     vdW  Elec       q    Type
REMARK                         _______ _______ _______ _____ _____    ______ ____
ROOT
ATOM      1  C   UNL     1       1.783   3.803   0.966  0.00  0.00    +0.244 C 
ATOM      2  O   UNL     1       2.785   4.370   1.357  0.00  0.00    -0.270 OA
ATOM      3  N   UNL     1       0.727   4.522   0.536  0.00  0.00    -0.313 N 
ATOM      4  H   UNL     1      -0.180   4.009   0.182  0.00  0.00    +0.149 HD
ENDROOT
BRANCH   1   8
ATOM      5  C   UNL     1      -0.715  -0.413   0.028  0.00  0.00    +0.044 C 
ATOM      6  C   UNL     1       0.524   0.294   0.512  0.00  0.00    -0.045 A 
ATOM      7  C   UNL     1       0.574   1.673   0.513  0.00  0.00    +0.016 A 
ATOM      8  C   UNL     1       1.723   2.326   0.961  0.00  0.00    +0.039 A 
ATOM      9  C   UNL     1       2.815   1.579   1.406  0.00  0.00    +0.041 A 
ATOM     10  C   UNL     1       2.752   0.201   1.400  0.00  0.00    +0.109 A 
ATOM     11  C   UNL     1       1.610  -0.441   0.954  0.00  0.00    -0.021 A 
ATOM     12  C   UNL     1       1.548  -1.946   0.950  0.00  0.00    +0.046 C 
BRANCH  10  13
ATOM     13  S   UNL     1       4.129  -0.744   1.960  0.00  0.00    +0.058 S 
ATOM     14  O   UNL     1       5.154   0.185   2.287  0.00  0.00    -0.153 OA
ATOM     15  O   UNL     1       3.623  -1.681   2.901  0.00  0.00    -0.153 OA
BRANCH  13  16
ATOM     16  N   UNL     1       4.680  -1.621   0.668  0.00  0.00    -0.193 NA
ATOM     17  C   UNL     1       5.210  -0.933  -0.511  0.00  0.00    +0.127 C 
ATOM     18  H   UNL     1       4.494  -2.705   0.635  0.00  0.00    +0.148 HD
ENDBRANCH  13  16
ENDBRANCH  10  13
ENDBRANCH   1   8
BRANCH   3  19
ATOM     19  C   UNL     1       0.786   5.986   0.540  0.00  0.00    +0.094 C 
BRANCH  19  20
ATOM     20  C   UNL     1      -0.532   6.551   0.009  0.00  0.00    -0.020 C 
BRANCH  20  21
ATOM     21  N   UNL     1      -0.811   5.981  -1.316  0.00  0.00    +0.385 N 
ATOM     22  C   UNL     1       0.225   6.363  -2.283  0.00  0.00    -0.078 C 
ATOM     23  C   UNL     1      -0.017   5.636  -3.607  0.00  0.00    -0.019 C 
ATOM     24  C   UNL     1      -1.403   6.008  -4.142  0.00  0.00    -0.004 C 
ATOM     25  C   UNL     1      -2.460   5.643  -3.096  0.00  0.00    -0.019 C 
ATOM     26  C   UNL     1      -2.147   6.370  -1.786  0.00  0.00    -0.078 C 
ATOM     27  H   UNL     1      -0.795   4.885  -1.224  0.00  0.00    -0.081 HD
ENDBRANCH  20  21
BRANCH  20  28
ATOM     28  C   UNL     1      -0.427   8.051  -0.103  0.00  0.00    -0.059 A 
ATOM     29  C   UNL     1       0.647   8.620  -0.760  0.00  0.00    +0.005 A 
ATOM     30  C   UNL     1       0.743   9.994  -0.869  0.00  0.00    +0.046 A 
ATOM     31  C   UNL     1      -0.234  10.803  -0.306  0.00  0.00    +0.120 A 
ATOM     32  C   UNL     1      -1.308  10.229   0.358  0.00  0.00    +0.046 A 
ATOM     33  C   UNL     1      -1.403   8.854   0.458  0.00  0.00    +0.005 A 
BRANCH  31  34
ATOM     34  O   UNL     1      -0.139  12.155  -0.406  0.00  0.00    -0.495 OA
ATOM     35  C   UNL     1       0.994  12.676  -1.104  0.00  0.00    +0.277 C 
ENDBRANCH  31  34
ENDBRANCH  20  28
ENDBRANCH  19  20
ENDBRANCH   3  19
TORSDOF 8
