REMARK  Name = ZINC59769477
REMARK  6 active torsions:
REMARK  status: ('A' for Active; 'I' for Inactive)
REMARK    1  A    between atoms: C_1  and  C_2
REMARK    2  A    between atoms: C_12  and  C_14
REMARK    3  A    between atoms: N_16  and  C_17
REMARK    4  A    between atoms: C_20  and  S_23
REMARK    5  A    between atoms: S_23  and  N_26
REMARK    6  A    between atoms: N_26  and  C_27
REMARK                            x       y       z     vdW  Elec       q    Type
REMARK                         _______ _______ _______ _____ _____    ______ ____
ROOT
ATOM      1  C   UNL     1       1.427  -0.994   5.843  0.00  0.00    +0.034 A 
ATOM      2  C   UNL     1       2.698  -1.508   5.617  0.00  0.00    +0.025 A 
ATOM      3  C   UNL     1       3.452  -1.971   6.677  0.00  0.00    +0.030 A 
ATOM      4  C   UNL     1       2.943  -1.925   7.963  0.00  0.00    +0.105 A 
ATOM      5  C   UNL     1       1.678  -1.414   8.191  0.00  0.00    +0.030 A 
ATOM      6  C   UNL     1       0.921  -0.944   7.136  0.00  0.00    +0.025 A 
ENDROOT
BRANCH   1   9
ATOM      7  C   UNL     1       0.733  -1.135   3.573  0.00  0.00    +0.304 C 
ATOM      8  O   UNL     1       1.525  -2.038   3.398  0.00  0.00    -0.265 OA
ATOM      9  N   UNL     1       0.661  -0.524   4.773  0.00  0.00    -0.278 N 
ATOM     10  H   UNL     1       0.078   0.242   4.893  0.00  0.00    +0.155 HD
BRANCH   7  21
ATOM     11  C   UNL     1       0.029  -3.731   2.021  0.00  0.00    +0.029 C 
ATOM     12  C   UNL     1       0.532  -2.649   1.063  0.00  0.00    +0.083 C 
ATOM     13  C   UNL     1       0.205  -3.029  -0.391  0.00  0.00    +0.059 C 
ATOM     14  C   UNL     1      -0.697  -1.918  -0.880  0.00  0.00    -0.024 A 
ATOM     15  C   UNL     1      -1.305  -1.717  -2.105  0.00  0.00    +0.005 A 
ATOM     16  C   UNL     1      -2.097  -0.604  -2.312  0.00  0.00    +0.000 A 
ATOM     17  C   UNL     1      -2.280   0.311  -1.291  0.00  0.00    +0.002 A 
ATOM     18  C   UNL     1      -1.676   0.115  -0.068  0.00  0.00    +0.024 A 
ATOM     19  C   UNL     1      -0.874  -1.008   0.150  0.00  0.00    +0.040 A 
ATOM     20  N   UNL     1      -0.178  -1.389   1.301  0.00  0.00    -0.260 N 
ATOM     21  C   UNL     1      -0.161  -0.701   2.460  0.00  0.00    +0.306 C 
ATOM     22  O   UNL     1      -0.874   0.272   2.598  0.00  0.00    -0.265 OA
ENDBRANCH   7  21
ENDBRANCH   1   9
BRANCH   4  23
ATOM     23  S   UNL     1       3.908  -2.518   9.312  0.00  0.00    +0.059 S 
ATOM     24  O   UNL     1       2.994  -2.868  10.342  0.00  0.00    -0.153 OA
ATOM     25  O   UNL     1       4.837  -3.447   8.770  0.00  0.00    -0.153 OA
BRANCH  23  26
ATOM     26  N   UNL     1       4.794  -1.239   9.880  0.00  0.00    -0.187 NA
ATOM     27  H   UNL     1       5.761  -1.252   9.812  0.00  0.00    +0.148 HD
BRANCH  26  28
ATOM     28  C   UNL     1       4.116  -0.089  10.484  0.00  0.00    +0.077 C 
ATOM     29  C   UNL     1       3.910   0.995   9.425  0.00  0.00    +0.020 C 
ATOM     30  C   UNL     1       3.203   2.196  10.055  0.00  0.00    +0.002 C 
ATOM     31  C   UNL     1       4.059   2.752  11.194  0.00  0.00    +0.000 C 
ATOM     32  C   UNL     1       4.266   1.668  12.254  0.00  0.00    +0.002 C 
ATOM     33  C   UNL     1       4.973   0.467  11.623  0.00  0.00    +0.020 C 
ENDBRANCH  26  28
ENDBRANCH  23  26
ENDBRANCH   4  23
TORSDOF 5
