REMARK  Name = ZINC09600973
REMARK  5 active torsions:
REMARK  status: ('A' for Active; 'I' for Inactive)
REMARK    1  A    between atoms: C_1  and  O_2
REMARK    2  A    between atoms: O_2  and  C_3
REMARK    3  A    between atoms: C_3  and  C_5
REMARK    4  A    between atoms: C_8  and  C_11
REMARK    5  A    between atoms: C_16  and  C_21
REMARK                            x       y       z     vdW  Elec       q    Type
REMARK                         _______ _______ _______ _____ _____    ______ ____
ROOT
ATOM      1  C   UNL     1       0.827  -6.343  -1.340  0.00  0.00    +0.136 C 
ATOM      2  C   UNL     1       2.090  -6.810  -0.652  0.00  0.00    +0.036 C 
ATOM      3  C   UNL     1       2.154  -7.464   0.518  0.00  0.00    +0.017 C 
ATOM      4  C   UNL     1       3.503  -7.830   1.118  0.00  0.00    +0.059 C 
ATOM      5  C   UNL     1       4.499  -8.142   0.003  0.00  0.00    +0.032 C 
ATOM      6  C   UNL     1       4.634  -6.887  -0.867  0.00  0.00    +0.088 C 
ATOM      7  C   UNL     1       3.273  -6.500  -1.363  0.00  0.00    +0.163 C 
ATOM      8  O   UNL     1       3.183  -5.897  -2.415  0.00  0.00    -0.292 OA
ATOM      9  N   UNL     1       1.085  -7.840   1.265  0.00  0.00    -0.316 N 
ATOM     10  C   UNL     1       0.009  -7.016   1.582  0.00  0.00    +0.054 A 
ATOM     11  C   UNL     1      -0.300  -6.671   2.885  0.00  0.00    +0.045 A 
ATOM     12  C   UNL     1      -1.431  -5.911   3.136  0.00  0.00    +0.043 A 
ATOM     13  C   UNL     1      -2.240  -5.500   2.090  0.00  0.00    +0.022 A 
ATOM     14  C   UNL     1      -1.917  -5.827   0.785  0.00  0.00    +0.026 A 
ATOM     15  C   UNL     1      -0.777  -6.572   0.529  0.00  0.00    +0.049 A 
ATOM     16  N   UNL     1      -0.391  -6.882  -0.773  0.00  0.00    -0.331 N 
ATOM     17 CL   UNL     1      -1.835  -5.472   4.766  0.00  0.00    -0.083 Cl
ATOM     18  H   UNL     1       1.069  -8.750   1.602  0.00  0.00    +0.152 HD
ATOM     19  H   UNL     1      -0.948  -7.468  -1.309  0.00  0.00    +0.147 HD
ENDROOT
BRANCH   5  20
ATOM     20  C   UNL     1       5.837  -8.497   0.598  0.00  0.00    -0.043 A 
ATOM     21  C   UNL     1       6.492  -7.594   1.415  0.00  0.00    +0.005 A 
ATOM     22  C   UNL     1       7.716  -7.921   1.966  0.00  0.00    +0.020 A 
ATOM     23  C   UNL     1       8.293  -9.148   1.690  0.00  0.00    +0.041 A 
ATOM     24  C   UNL     1       7.640 -10.050   0.869  0.00  0.00    +0.020 A 
ATOM     25  C   UNL     1       6.413  -9.724   0.323  0.00  0.00    +0.005 A 
ATOM     26 CL   UNL     1       9.834  -9.557   2.377  0.00  0.00    -0.084 Cl
ENDBRANCH   5  20
BRANCH   1  30
ATOM     27  C   UNL     1       0.658  -2.076  -1.122  0.00  0.00    +0.059 A 
ATOM     28  C   UNL     1       0.787  -2.711  -2.359  0.00  0.00    +0.015 A 
ATOM     29  C   UNL     1       0.847  -4.087  -2.422  0.00  0.00    +0.006 A 
ATOM     30  C   UNL     1       0.768  -4.840  -1.263  0.00  0.00    -0.023 A 
ATOM     31  C   UNL     1       0.633  -4.218  -0.034  0.00  0.00    +0.006 A 
ATOM     32  C   UNL     1       0.578  -2.841   0.043  0.00  0.00    +0.015 A 
BRANCH  27  33
ATOM     33  C   UNL     1       0.599  -0.602  -1.047  0.00  0.00    +0.339 C 
ATOM     34  O   UNL     1       0.481  -0.053   0.030  0.00  0.00    -0.245 OA
BRANCH  33  36
ATOM     35  C   UNL     1       0.611   1.576  -2.024  0.00  0.00    +0.280 C 
ATOM     36  O   UNL     1       0.676   0.134  -2.173  0.00  0.00    -0.464 OA
ENDBRANCH  33  36
ENDBRANCH  27  33
ENDBRANCH   1  30
TORSDOF 4
