REMARK  Name = ZINC39359132
REMARK  5 active torsions:
REMARK  status: ('A' for Active; 'I' for Inactive)
REMARK    1  A    between atoms: C_3  and  C_6
REMARK    2  A    between atoms: C_11  and  C_21
REMARK    3  A    between atoms: C_14  and  O_20
REMARK    4  A    between atoms: C_24  and  O_28
REMARK    5  A    between atoms: C_25  and  O_27
REMARK                            x       y       z     vdW  Elec       q    Type
REMARK                         _______ _______ _______ _____ _____    ______ ____
ROOT
ATOM      1  C   UNL     1       3.761   1.845  -0.024  0.00  0.00    +0.039 C 
ATOM      2  C   UNL     1       4.505   1.325   1.205  0.00  0.00    +0.060 C 
ATOM      3  C   UNL     1       5.938   1.817   1.183  0.00  0.00    +0.014 C 
ATOM      4  C   UNL     1       6.572   2.000   0.005  0.00  0.00    +0.023 C 
ATOM      5  C   UNL     1       8.019   2.462  -0.075  0.00  0.00    +0.089 C 
ATOM      6  C   UNL     1       8.418   2.893   1.304  0.00  0.00    +0.048 C 
ATOM      7  C   UNL     1       9.123   3.891   1.791  0.00  0.00    +0.235 C 
ATOM      8  N   UNL     1       9.066   3.888   3.151  0.00  0.00    -0.114 NA
ATOM      9  N   UNL     1       8.421   2.948   3.634  0.00  0.00    -0.157 NA
ATOM     10  C   UNL     1       7.964   2.099   2.533  0.00  0.00    +0.245 C 
ATOM     11  N   UNL     1       6.505   2.061   2.409  0.00  0.00    -0.321 N 
ATOM     12  C   UNL     1       5.919   1.776  -1.219  0.00  0.00    +0.162 C 
ATOM     13  O   UNL     1       6.530   1.944  -2.256  0.00  0.00    -0.292 OA
ATOM     14  C   UNL     1       4.483   1.336  -1.277  0.00  0.00    +0.088 C 
ATOM     15  H   UNL     1       5.944   2.206   3.187  0.00  0.00    +0.148 HD
ENDROOT
BRANCH   5  16
ATOM     16  C   UNL     1       8.897   1.326  -0.535  0.00  0.00    -0.032 A 
ATOM     17  C   UNL     1       8.961   0.161   0.206  0.00  0.00    +0.008 A 
ATOM     18  C   UNL     1       9.764  -0.884  -0.211  0.00  0.00    +0.049 A 
ATOM     19  C   UNL     1      10.508  -0.764  -1.374  0.00  0.00    +0.158 A 
ATOM     20  C   UNL     1      10.443   0.409  -2.120  0.00  0.00    +0.159 A 
ATOM     21  C   UNL     1       9.632   1.450  -1.699  0.00  0.00    +0.053 A 
BRANCH  20  22
ATOM     22  O   UNL     1      11.171   0.531  -3.262  0.00  0.00    -0.503 OA
ATOM     23  H   UNL     1      10.708   0.234  -4.057  0.00  0.00    +0.292 HD
ENDBRANCH  20  22
BRANCH  19  24
ATOM     24  O   UNL     1      11.299  -1.791  -1.786  0.00  0.00    -0.503 OA
ATOM     25  H   UNL     1      10.854  -2.420  -2.370  0.00  0.00    +0.292 HD
ENDBRANCH  19  24
ENDBRANCH   5  16
BRANCH   1  28
ATOM     26  C   UNL     1      -0.016   1.351   0.009  0.00  0.00    +0.008 A 
ATOM     27  C   UNL     1       1.183   2.038   0.002  0.00  0.00    +0.011 A 
ATOM     28  C   UNL     1       2.343   1.336  -0.013  0.00  0.00    -0.006 A 
ATOM     29  S   UNL     1       1.754  -0.349  -0.017  0.00  0.00    -0.101 S 
ATOM     30  C   UNL     1       0.002  -0.004   0.002  0.00  0.00    +0.045 A 
ENDBRANCH   1  28
BRANCH   7  31
ATOM     31  O   UNL     1       9.811   4.794   1.043  0.00  0.00    -0.491 OA
ATOM     32  H   UNL     1      10.276   5.463   1.564  0.00  0.00    +0.294 HD
ENDBRANCH   7  31
TORSDOF 5
