REMARK  Name = ZINC57312042
REMARK  16 active torsions:
REMARK  status: ('A' for Active; 'I' for Inactive)
REMARK    1  A    between atoms: C_1  and  C_2
REMARK    2  A    between atoms: C_2  and  C_3
REMARK    3  A    between atoms: C_6  and  C_9
REMARK    4  A    between atoms: C_11  and  C_27
REMARK    5  A    between atoms: C_13  and  C_26
REMARK    6  A    between atoms: N_15  and  C_18
REMARK    7  A    between atoms: N_29  and  C_30
REMARK    8  A    between atoms: C_30  and  C_32
REMARK    9  A    between atoms: C_30  and  C_33
REMARK   10  A    between atoms: C_33  and  C_34
REMARK   11  A    between atoms: C_34  and  C_35
REMARK   12  A    between atoms: C_35  and  N_36
REMARK   13  A    between atoms: N_36  and  C_37
REMARK   14  A    between atoms: N_36  and  C_39
REMARK   15  A    between atoms: C_37  and  C_38
REMARK   16  A    between atoms: C_39  and  C_40
REMARK                            x       y       z     vdW  Elec       q    Type
REMARK                         _______ _______ _______ _____ _____    ______ ____
ROOT
ATOM      1  C   UNL     1       0.778  -3.656  -5.416  0.00  0.00    +0.074 A 
ATOM      2  C   UNL     1       2.175  -3.627  -5.387  0.00  0.00    +0.042 A 
ATOM      3  C   UNL     1       2.876  -3.441  -6.573  0.00  0.00    +0.051 A 
ATOM      4  C   UNL     1       2.131  -3.287  -7.766  0.00  0.00    +0.054 A 
ATOM      5  C   UNL     1       2.484  -3.084  -9.116  0.00  0.00    +0.070 A 
ATOM      6  N   UNL     1       1.392  -3.007  -9.824  0.00  0.00    -0.174 NA
ATOM      7  N   UNL     1       0.277  -3.153  -8.990  0.00  0.00    -0.241 N 
ATOM      8  C   UNL     1       0.723  -3.328  -7.705  0.00  0.00    +0.160 A 
ATOM      9  N   UNL     1       0.108  -3.514  -6.548  0.00  0.00    -0.228 NA
ATOM     10  C   UNL     1       3.888  -2.974  -9.652  0.00  0.00    +0.068 C 
ENDROOT
BRANCH   7  11
ATOM     11  C   UNL     1      -1.124  -3.124  -9.417  0.00  0.00    +0.132 C 
ATOM     12  C   UNL     1      -1.374  -4.229 -10.456  0.00  0.00    +0.051 C 
ATOM     13  C   UNL     1      -2.743  -4.008 -11.144  0.00  0.00    +0.168 C 
ATOM     14  S   UNL     1      -2.961  -2.185 -11.032  0.00  0.00    -0.029 S 
ATOM     15  O   UNL     1      -2.863  -1.627 -12.335  0.00  0.00    -0.174 OA
ATOM     16  O   UNL     1      -4.103  -1.904 -10.235  0.00  0.00    -0.174 OA
ATOM     17  C   UNL     1      -1.443  -1.754 -10.081  0.00  0.00    +0.192 C 
ENDBRANCH   7  11
BRANCH   1  21
ATOM     18  C   UNL     1      -1.366  -4.228  -1.789  0.00  0.00    -0.048 A 
ATOM     19  C   UNL     1      -2.054  -4.077  -2.980  0.00  0.00    +0.004 A 
ATOM     20  C   UNL     1      -1.363  -3.891  -4.160  0.00  0.00    +0.010 A 
ATOM     21  C   UNL     1       0.030  -3.855  -4.151  0.00  0.00    +0.000 A 
ATOM     22  C   UNL     1       0.718  -4.007  -2.948  0.00  0.00    +0.010 A 
ATOM     23  C   UNL     1       0.017  -4.187  -1.773  0.00  0.00    +0.004 A 
BRANCH  18  25
ATOM     24  C   UNL     1      -2.428  -3.070   0.130  0.00  0.00    +0.009 C 
ATOM     25  C   UNL     1      -2.126  -4.430  -0.503  0.00  0.00    +0.032 C 
ENDBRANCH  18  25
ENDBRANCH   1  21
BRANCH   3  26
ATOM     26  C   UNL     1       4.354  -3.404  -6.588  0.00  0.00    +0.245 C 
ATOM     27  O   UNL     1       4.967  -3.956  -7.480  0.00  0.00    -0.270 OA
ATOM     28  N   UNL     1       5.022  -2.759  -5.611  0.00  0.00    -0.309 N 
ATOM     29  H   UNL     1       4.533  -2.318  -4.899  0.00  0.00    +0.149 HD
BRANCH  28  30
ATOM     30  C   UNL     1       6.486  -2.722  -5.625  0.00  0.00    +0.070 C 
ATOM     31  C   UNL     1       6.959  -1.567  -6.510  0.00  0.00    +0.028 C 
BRANCH  30  32
ATOM     32  C   UNL     1       7.005  -2.518  -4.200  0.00  0.00    +0.020 C 
BRANCH  32  33
ATOM     33  C   UNL     1       6.639  -3.733  -3.345  0.00  0.00    -0.017 C 
BRANCH  33  34
ATOM     34  C   UNL     1       7.158  -3.529  -1.921  0.00  0.00    -0.079 C 
BRANCH  34  35
ATOM     35  N   UNL     1       6.842  -4.713  -1.110  0.00  0.00    +0.379 N 
ATOM     36  H   UNL     1       5.852  -4.904  -1.165  0.00  0.00    -0.082 HD
BRANCH  35  37
ATOM     37  C   UNL     1       7.592  -5.869  -1.619  0.00  0.00    -0.082 C 
ATOM     38  C   UNL     1       7.170  -7.127  -0.857  0.00  0.00    -0.017 C 
ENDBRANCH  35  37
BRANCH  35  39
ATOM     39  C   UNL     1       7.216  -4.464   0.288  0.00  0.00    -0.082 C 
ATOM     40  C   UNL     1       6.332  -3.356   0.863  0.00  0.00    -0.017 C 
ENDBRANCH  35  39
ENDBRANCH  34  35
ENDBRANCH  33  34
ENDBRANCH  32  33
ENDBRANCH  30  32
ENDBRANCH  28  30
ENDBRANCH   3  26
TORSDOF 11
