REMARK  Name = ZINC03432560
REMARK  10 active torsions:
REMARK  status: ('A' for Active; 'I' for Inactive)
REMARK    1  A    between atoms: C_1  and  C_2
REMARK    2  A    between atoms: C_2  and  C_3
REMARK    3  A    between atoms: C_3  and  N_4
REMARK    4  A    between atoms: C_5  and  N_34
REMARK    5  A    between atoms: C_6  and  C_13
REMARK    6  A    between atoms: C_13  and  C_15
REMARK    7  A    between atoms: C_15  and  S_16
REMARK    8  A    between atoms: S_16  and  C_17
REMARK    9  A    between atoms: C_20  and  C_27
REMARK   10  A    between atoms: N_21  and  C_22
REMARK                            x       y       z     vdW  Elec       q    Type
REMARK                         _______ _______ _______ _____ _____    ______ ____
ROOT
ATOM      1  C   UNL     1       6.576   7.185  -0.046  0.00  0.00    +0.157 C 
ENDROOT
BRANCH   1   2
ATOM      2  C   UNL     1       7.372   8.460  -0.160  0.00  0.00    +0.182 C 
ATOM      3  O   UNL     1       6.801   9.523  -0.291  0.00  0.00    -0.291 OA
BRANCH   2   6
ATOM      4  N   UNL     1      10.905   9.506  -0.040  0.00  0.00    -0.281 N 
ATOM      5  C   UNL     1       9.543   9.598  -0.090  0.00  0.00    +0.116 A 
ATOM      6  C   UNL     1       8.782   8.417  -0.113  0.00  0.00    +0.120 A 
ATOM      7  C   UNL     1       9.501   7.136  -0.094  0.00  0.00    +0.266 A 
ATOM      8  O   UNL     1       8.894   6.082  -0.118  0.00  0.00    -0.267 OA
ATOM      9  N   UNL     1      10.849   7.153  -0.050  0.00  0.00    -0.274 N 
ATOM     10  H   UNL     1      11.354   6.290  -0.036  0.00  0.00    +0.173 HD
ATOM     11  C   UNL     1      11.523   8.315  -0.024  0.00  0.00    +0.331 A 
ATOM     12  O   UNL     1      12.738   8.286   0.016  0.00  0.00    -0.246 OA
BRANCH   5  13
ATOM     13  N   UNL     1       8.933  10.814  -0.112  0.00  0.00    -0.344 N 
ATOM     14  H   UNL     1       8.024  10.906   0.212  0.00  0.00    +0.144 HD
ATOM     15  H   UNL     1       9.408  11.589  -0.452  0.00  0.00    +0.144 HD
ENDBRANCH   5  13
BRANCH   4  16
ATOM     16  C   UNL     1      11.707  10.732  -0.010  0.00  0.00    +0.128 C 
BRANCH  16  18
ATOM     17  C   UNL     1      12.870  12.443  -1.411  0.00  0.00    +0.005 C 
ATOM     18  C   UNL     1      12.033  11.163  -1.442  0.00  0.00    +0.018 C 
ENDBRANCH  16  18
ENDBRANCH   4  16
ENDBRANCH   2   6
ENDBRANCH   1   2
BRANCH   1  19
ATOM     19  S   UNL     1       4.809   7.568  -0.139  0.00  0.00    -0.078 S 
BRANCH  19  20
ATOM     20  C   UNL     1       4.136   5.947   0.015  0.00  0.00    +0.193 A 
ATOM     21  N   UNL     1       4.816   4.831   0.156  0.00  0.00    -0.122 NA
ATOM     22  N   UNL     1       4.012   3.832   0.245  0.00  0.00    -0.128 NA
ATOM     23  C   UNL     1       2.770   4.248   0.158  0.00  0.00    +0.167 A 
ATOM     24  N   UNL     1       2.811   5.616   0.011  0.00  0.00    -0.299 N 
BRANCH  23  25
ATOM     25  C   UNL     1       1.556   3.407   0.214  0.00  0.00    +0.038 A 
ATOM     26  C   UNL     1       0.504   3.749   1.066  0.00  0.00    +0.013 A 
ATOM     27  C   UNL     1      -0.626   2.960   1.113  0.00  0.00    +0.001 A 
ATOM     28  C   UNL     1      -0.718   1.828   0.322  0.00  0.00    +0.001 A 
ATOM     29  C   UNL     1       0.317   1.486  -0.529  0.00  0.00    +0.021 A 
ATOM     30  C   UNL     1       1.455   2.267  -0.586  0.00  0.00    +0.052 A 
ATOM     31 CL   UNL     1       2.757   1.831  -1.649  0.00  0.00    -0.083 Cl
ENDBRANCH  23  25
BRANCH  24  32
ATOM     32  C   UNL     1       1.672   6.527  -0.121  0.00  0.00    +0.091 C 
ATOM     33  C   UNL     1       1.725   7.245  -1.486  0.00  0.00    +0.025 C 
ATOM     34  C   UNL     1       1.222   8.678  -1.179  0.00  0.00    +0.002 C 
ATOM     35  C   UNL     1       1.840   8.969   0.210  0.00  0.00    +0.002 C 
ATOM     36  C   UNL     1       1.744   7.622   0.957  0.00  0.00    +0.025 C 
ENDBRANCH  24  32
ENDBRANCH  19  20
ENDBRANCH   1  19
TORSDOF 9
