REMARK  Name = ZINC41804776
REMARK  7 active torsions:
REMARK  status: ('A' for Active; 'I' for Inactive)
REMARK    1  A    between atoms: C_1  and  C_2
REMARK    2  A    between atoms: C_2  and  C_4
REMARK    3  A    between atoms: C_2  and  N_7
REMARK    4  A    between atoms: N_7  and  C_8
REMARK    5  A    between atoms: C_8  and  C_9
REMARK    6  A    between atoms: C_8  and  C_10
REMARK    7  A    between atoms: C_8  and  C_19
REMARK                            x       y       z     vdW  Elec       q    Type
REMARK                         _______ _______ _______ _____ _____    ______ ____
ROOT
ATOM      1  C   UNL     1      -0.754   0.873  -2.287  0.00  0.00    +0.059 C 
ATOM      2  C   UNL     1      -2.153   0.257  -2.224  0.00  0.00    +0.007 C 
ENDROOT
BRANCH   1   3
ATOM      3  C   UNL     1      -0.344   1.042  -3.727  0.00  0.00    -0.044 A 
ATOM      4  C   UNL     1       0.782   0.396  -4.204  0.00  0.00    +0.006 A 
ATOM      5  C   UNL     1       1.162   0.548  -5.524  0.00  0.00    +0.050 A 
ATOM      6  C   UNL     1       0.415   1.347  -6.374  0.00  0.00    +0.166 A 
ATOM      7  C   UNL     1      -0.719   1.997  -5.893  0.00  0.00    +0.166 A 
ATOM      8  C   UNL     1      -1.097   1.836  -4.570  0.00  0.00    +0.052 A 
ATOM      9  O   UNL     1      -1.275   2.716  -6.913  0.00  0.00    -0.453 OA
ATOM     10  C   UNL     1      -0.244   2.826  -7.912  0.00  0.00    +0.466 C 
ATOM     11  O   UNL     1       0.570   1.658  -7.694  0.00  0.00    -0.453 OA
ENDBRANCH   1   3
BRANCH   1  12
ATOM     12  N   UNL     1       0.202  -0.012  -1.606  0.00  0.00    +0.400 N 
ATOM     13  H   UNL     1       1.103   0.439  -1.560  0.00  0.00    -0.083 HD
ATOM     14  H   UNL     1       0.284  -0.876  -2.120  0.00  0.00    -0.083 HD
BRANCH  12  16
ATOM     15  C   UNL     1       0.862  -0.900   0.578  0.00  0.00    -0.004 C 
ATOM     16  C   UNL     1      -0.276  -0.294  -0.246  0.00  0.00    +0.015 C 
BRANCH  16  17
ATOM     17  C   UNL     1      -1.425  -1.267  -0.309  0.00  0.00    +0.196 C 
ATOM     18  O   UNL     1      -1.483  -2.079  -1.208  0.00  0.00    -0.278 OA
ATOM     19  N   UNL     1      -2.387  -1.236   0.635  0.00  0.00    -0.331 N 
ATOM     20  H   UNL     1      -2.340  -0.586   1.354  0.00  0.00    +0.145 HD
ATOM     21  H   UNL     1      -3.126  -1.862   0.594  0.00  0.00    +0.145 HD
ENDBRANCH  16  17
ENDBRANCH  12  16
ENDBRANCH   1  12
BRANCH   1  22
ATOM     22  C   UNL     1      -0.765   2.217  -1.607  0.00  0.00    +0.349 C 
ATOM     23  O   UNL     1       0.059   2.472  -0.746  0.00  0.00    -0.248 OA
ATOM     24  O   UNL     1      -1.599   3.051  -1.918  0.00  0.00    -0.248 OA
ENDBRANCH   1  22
TORSDOF 5
