REMARK  Name = ZINC43721964
REMARK  14 active torsions:
REMARK  status: ('A' for Active; 'I' for Inactive)
REMARK    1  A    between atoms: C_1  and  C_2
REMARK    2  A    between atoms: C_2  and  C_3
REMARK    3  A    between atoms: C_3  and  O_5
REMARK    4  A    between atoms: O_5  and  C_6
REMARK    5  A    between atoms: C_6  and  C_7
REMARK    6  A    between atoms: C_7  and  C_9
REMARK    7  A    between atoms: C_9  and  O_36
REMARK    8  A    between atoms: C_10  and  C_35
REMARK    9  A    between atoms: C_15  and  C_34
REMARK   10  A    between atoms: C_17  and  O_33
REMARK   11  A    between atoms: C_30  and  C_31
REMARK   12  A    between atoms: O_36  and  C_37
REMARK   13  A    between atoms: C_37  and  C_39
REMARK   14  A    between atoms: C_39  and  C_40
REMARK                            x       y       z     vdW  Elec       q    Type
REMARK                         _______ _______ _______ _____ _____    ______ ____
ROOT
ATOM      1  C   UNL     1       2.370  -4.437   3.745  0.00  0.00    +0.182 C 
ATOM      2  C   UNL     1       1.402  -4.820   4.884  0.00  0.00    +0.038 C 
ATOM      3  C   UNL     1       1.475  -6.347   5.058  0.00  0.00    +0.012 C 
ATOM      4  C   UNL     1       2.178  -6.893   3.796  0.00  0.00    +0.006 C 
ATOM      5  C   UNL     1       3.038  -5.730   3.292  0.00  0.00    +0.021 C 
ATOM      6  C   UNL     1       3.451  -5.816   1.850  0.00  0.00    +0.045 C 
ATOM      7  C   UNL     1       2.449  -6.423   0.882  0.00  0.00    +0.154 C 
ATOM      8  C   UNL     1       1.821  -7.687   1.468  0.00  0.00    +0.153 C 
ATOM      9  C   UNL     1       1.125  -7.314   2.775  0.00  0.00    +0.034 C 
ATOM     10  C   UNL     1       0.383  -8.554   3.291  0.00  0.00    +0.011 C 
ATOM     11  C   UNL     1      -0.858  -8.741   2.419  0.00  0.00    +0.032 C 
ATOM     12  C   UNL     1      -0.490  -8.611   0.958  0.00  0.00    -0.053 C 
ATOM     13  C   UNL     1      -1.504  -8.759   0.088  0.00  0.00    +0.051 C 
ATOM     14  C   UNL     1      -1.257  -8.607  -1.360  0.00  0.00    +0.179 C 
ATOM     15  O   UNL     1      -2.088  -8.972  -2.188  0.00  0.00    -0.288 OA
ATOM     16  C   UNL     1       0.010  -7.973  -1.784  0.00  0.00    +0.047 C 
ATOM     17  C   UNL     1       1.011  -7.846  -0.905  0.00  0.00    -0.009 C 
ATOM     18  C   UNL     1       0.898  -8.368   0.490  0.00  0.00    +0.044 C 
ATOM     19  C   UNL     1       1.494  -9.785   0.379  0.00  0.00    +0.023 C 
ATOM     20  F   UNL     1       2.853  -8.586   1.773  0.00  0.00    -0.238 F 
ATOM     21  C   UNL     1       4.367  -5.815   4.100  0.00  0.00    +0.016 C 
ATOM     22  C   UNL     1      -0.023  -4.387   4.531  0.00  0.00    +0.012 C 
ENDROOT
BRANCH   1  23
ATOM     23  C   UNL     1       1.620  -3.726   2.656  0.00  0.00    +0.214 C 
ATOM     24  O   UNL     1       0.636  -4.230   2.172  0.00  0.00    -0.289 OA
BRANCH  23  25
ATOM     25  C   UNL     1       2.096  -2.382   2.167  0.00  0.00    +0.310 C 
BRANCH  25  26
ATOM     26  O   UNL     1       1.302  -1.972   1.053  0.00  0.00    -0.457 OA
BRANCH  26  27
ATOM     27  C   UNL     1       1.599  -0.787   0.496  0.00  0.00    +0.307 C 
ATOM     28  O   UNL     1       2.503  -0.121   0.940  0.00  0.00    -0.251 OA
BRANCH  27  30
ATOM     29  C   UNL     1       1.343   1.074  -1.122  0.00  0.00    +0.015 C 
ATOM     30  C   UNL     1       0.804  -0.289  -0.683  0.00  0.00    +0.117 C 
ENDBRANCH  27  30
ENDBRANCH  26  27
ENDBRANCH  25  26
ENDBRANCH  23  25
ENDBRANCH   1  23
BRANCH   7  31
ATOM     31  O   UNL     1       1.443  -5.494   0.494  0.00  0.00    -0.389 OA
ATOM     32  H   UNL     1       1.789  -4.672   0.121  0.00  0.00    +0.210 HD
ENDBRANCH   7  31
BRANCH   1  33
ATOM     33  O   UNL     1       3.373  -3.549   4.275  0.00  0.00    -0.449 OA
BRANCH  33  34
ATOM     34  C   UNL     1       2.939  -2.447   4.906  0.00  0.00    +0.308 C 
ATOM     35  O   UNL     1       1.757  -2.281   5.090  0.00  0.00    -0.251 OA
BRANCH  34  36
ATOM     36  C   UNL     1       3.928  -1.415   5.384  0.00  0.00    +0.117 C 
ATOM     37  C   UNL     1       3.178  -0.267   6.065  0.00  0.00    +0.015 C 
ENDBRANCH  34  36
ENDBRANCH  33  34
ENDBRANCH   1  33
TORSDOF 9
