REMARK  Name = ZINC39455265
REMARK  8 active torsions:
REMARK  status: ('A' for Active; 'I' for Inactive)
REMARK    1  A    between atoms: C_5  and  C_7
REMARK    2  A    between atoms: C_9  and  C_21
REMARK    3  A    between atoms: N_12  and  C_14
REMARK    4  A    between atoms: C_21  and  N_22
REMARK    5  A    between atoms: N_22  and  C_23
REMARK    6  A    between atoms: C_23  and  C_24
REMARK    7  A    between atoms: C_24  and  S_25
REMARK    8  A    between atoms: S_25  and  C_26
REMARK                            x       y       z     vdW  Elec       q    Type
REMARK                         _______ _______ _______ _____ _____    ______ ____
ROOT
ATOM      1  C   UNL     1       1.229  -2.186  -0.022  0.00  0.00    +0.107 C 
ATOM      2  C   UNL     1       1.270  -2.733  -1.475  0.00  0.00    +0.014 C 
ATOM      3  C   UNL     1       0.578  -4.106  -1.298  0.00  0.00    +0.127 C 
ATOM      4  N   UNL     1      -0.179  -4.003  -0.040  0.00  0.00    -0.266 N 
ATOM      5  N   UNL     1      -0.058  -2.738   0.474  0.00  0.00    -0.232 NA
ATOM      6  H   UNL     1      -0.834  -2.158   0.191  0.00  0.00    +0.145 HD
ENDROOT
BRANCH   1  11
ATOM      7  C   UNL     1      -0.013   1.379  -0.091  0.00  0.00    +0.000 A 
ATOM      8  C   UNL     1       1.171   2.086   0.002  0.00  0.00    +0.001 A 
ATOM      9  C   UNL     1       2.374   1.412   0.087  0.00  0.00    +0.020 A 
ATOM     10  C   UNL     1       2.393   0.028   0.080  0.00  0.00    +0.046 A 
ATOM     11  C   UNL     1       1.208  -0.679  -0.013  0.00  0.00    -0.010 A 
ATOM     12  C   UNL     1       0.005  -0.003  -0.099  0.00  0.00    +0.006 A 
ATOM     13 CL   UNL     1       3.905  -0.820   0.186  0.00  0.00    -0.083 Cl
ENDBRANCH   1  11
BRANCH   4  14
ATOM     14  C   UNL     1      -0.911  -5.042   0.544  0.00  0.00    +0.045 A 
ATOM     15  C   UNL     1      -0.957  -6.289  -0.065  0.00  0.00    +0.027 A 
ATOM     16  C   UNL     1      -1.680  -7.313   0.514  0.00  0.00    +0.040 A 
ATOM     17  C   UNL     1      -2.359  -7.097   1.702  0.00  0.00    +0.124 A 
ATOM     18  C   UNL     1      -2.314  -5.854   2.311  0.00  0.00    +0.040 A 
ATOM     19  C   UNL     1      -1.588  -4.829   1.738  0.00  0.00    +0.027 A 
ATOM     20  F   UNL     1      -3.066  -8.100   2.266  0.00  0.00    -0.205 F 
ENDBRANCH   4  14
BRANCH   2  21
ATOM     21  C   UNL     1       0.476  -1.833  -2.424  0.00  0.00    -0.076 C 
BRANCH  21  22
ATOM     22  N   UNL     1       0.637  -2.314  -3.803  0.00  0.00    +0.380 N 
ATOM     23  H   UNL     1       1.613  -2.290  -4.056  0.00  0.00    -0.086 HD
ATOM     24  H   UNL     1       0.294  -3.261  -3.871  0.00  0.00    -0.086 HD
BRANCH  22  25
ATOM     25  C   UNL     1      -0.126  -1.450  -4.715  0.00  0.00    -0.071 C 
BRANCH  25  26
ATOM     26  C   UNL     1       0.042  -1.951  -6.151  0.00  0.00    +0.058 C 
BRANCH  26  27
ATOM     27  S   UNL     1      -0.900  -0.885  -7.276  0.00  0.00    -0.086 S 
BRANCH  27  28
ATOM     28  C   UNL     1      -0.609  -1.583  -8.868  0.00  0.00    +0.208 A 
ATOM     29  H   UNL     1       0.539  -3.545 -11.001  0.00  0.00    +0.190 HD
ATOM     30  N   UNL     1      -1.106  -1.125 -10.021  0.00  0.00    -0.210 NA
ATOM     31  C   UNL     1      -0.692  -1.875 -11.010  0.00  0.00    +0.217 A 
ATOM     32  N   UNL     1       0.091  -2.843 -10.505  0.00  0.00    -0.264 N 
ATOM     33  N   UNL     1       0.137  -2.634  -9.117  0.00  0.00    -0.146 NA
ENDBRANCH  27  28
ENDBRANCH  26  27
ENDBRANCH  25  26
ENDBRANCH  22  25
ENDBRANCH  21  22
ENDBRANCH   2  21
TORSDOF 8
