REMARK  Name = ZINC16958783
REMARK  7 active torsions:
REMARK  status: ('A' for Active; 'I' for Inactive)
REMARK    1  A    between atoms: N_4  and  C_10
REMARK    2  A    between atoms: C_7  and  C_8
REMARK    3  A    between atoms: C_12  and  O_25
REMARK    4  A    between atoms: C_14  and  O_24
REMARK    5  A    between atoms: C_16  and  O_23
REMARK    6  A    between atoms: C_18  and  C_21
REMARK    7  A    between atoms: C_21  and  O_22
REMARK                            x       y       z     vdW  Elec       q    Type
REMARK                         _______ _______ _______ _____ _____    ______ ____
ROOT
ATOM      1  C   UNL     1      -0.776   0.084   2.314  0.00  0.00    +0.252 C 
ATOM      2  C   UNL     1      -2.305   0.113   2.398  0.00  0.00    +0.195 C 
ATOM      3  C   UNL     1      -2.724   0.852   3.672  0.00  0.00    +0.178 C 
ATOM      4  C   UNL     1      -2.089   0.161   4.883  0.00  0.00    +0.177 C 
ATOM      5  C   UNL     1      -0.569   0.130   4.703  0.00  0.00    +0.177 C 
ATOM      6  O   UNL     1      -0.248  -0.544   3.484  0.00  0.00    -0.346 OA
ENDROOT
BRANCH   1  10
ATOM      7  C   UNL     1       0.411  -2.062  -1.127  0.00  0.00    +0.026 A 
ATOM      8  C   UNL     1       0.455  -0.666  -1.081  0.00  0.00    -0.027 A 
ATOM      9  C   UNL     1       0.074  -0.005   0.028  0.00  0.00    +0.025 A 
ATOM     10  N   UNL     1      -0.367  -0.672   1.127  0.00  0.00    -0.309 N 
ATOM     11  C   UNL     1      -0.432  -2.016   1.141  0.00  0.00    +0.107 A 
ATOM     12  S   UNL     1      -0.991  -2.833   2.537  0.00  0.00    -0.031 S 
ATOM     13  C   UNL     1      -0.038  -2.755  -0.004  0.00  0.00    +0.083 A 
ATOM     14  C   UNL     1       0.133   1.509   0.064  0.00  0.00    +0.054 C 
ATOM     15  C   UNL     1       1.600   1.940   0.110  0.00  0.00    +0.006 C 
ATOM     16  C   UNL     1       2.183   2.027  -1.288  0.00  0.00    +0.001 C 
ATOM     17  C   UNL     1       2.314   0.688  -1.989  0.00  0.00    +0.005 C 
ATOM     18  C   UNL     1       0.936   0.098  -2.297  0.00  0.00    +0.037 C 
BRANCH  13  19
ATOM     19  C   UNL     1      -0.100  -4.185  -0.007  0.00  0.00    +0.102 C 
ATOM     20  N   UNL     1      -0.149  -5.320  -0.009  0.00  0.00    -0.191 NA
ENDBRANCH  13  19
ENDBRANCH   1  10
BRANCH   4  21
ATOM     21  O   UNL     1      -2.414   0.885   6.071  0.00  0.00    -0.386 OA
ATOM     22  H   UNL     1      -3.363   0.949   6.245  0.00  0.00    +0.210 HD
ENDBRANCH   4  21
BRANCH   3  23
ATOM     23  O   UNL     1      -4.147   0.823   3.796  0.00  0.00    -0.386 OA
ATOM     24  H   UNL     1      -4.484   1.274   4.582  0.00  0.00    +0.210 HD
ENDBRANCH   3  23
BRANCH   2  25
ATOM     25  O   UNL     1      -2.833   0.791   1.256  0.00  0.00    -0.385 OA
ATOM     26  H   UNL     1      -3.798   0.847   1.243  0.00  0.00    +0.210 HD
ENDBRANCH   2  25
BRANCH   5  27
ATOM     27  C   UNL     1       0.069  -0.612   5.879  0.00  0.00    +0.190 C 
BRANCH  27  28
ATOM     28  O   UNL     1       1.492  -0.541   5.772  0.00  0.00    -0.392 OA
ATOM     29  H   UNL     1       1.964  -0.991   6.486  0.00  0.00    +0.210 HD
ENDBRANCH  27  28
ENDBRANCH   5  27
TORSDOF 7
