REMARK  Name = ZINC34830346
REMARK  6 active torsions:
REMARK  status: ('A' for Active; 'I' for Inactive)
REMARK    1  A    between atoms: C_1  and  C_2
REMARK    2  A    between atoms: C_7  and  C_8
REMARK    3  A    between atoms: N_17  and  C_18
REMARK    4  A    between atoms: C_18  and  C_20
REMARK    5  A    between atoms: C_18  and  C_21
REMARK    6  A    between atoms: C_29  and  C_31
REMARK                            x       y       z     vdW  Elec       q    Type
REMARK                         _______ _______ _______ _____ _____    ______ ____
ROOT
ATOM      1  C   UNL     1      -2.733  -1.016   4.237  0.00  0.00    +0.202 C 
ATOM      2  O   UNL     1      -2.476  -1.212   5.406  0.00  0.00    -0.277 OA
ATOM      3  N   UNL     1      -3.818  -1.589   3.680  0.00  0.00    -0.300 N 
ATOM      4  C   UNL     1      -4.072  -1.466   2.238  0.00  0.00    +0.126 C 
ATOM      5  C   UNL     1      -4.221  -2.873   1.645  0.00  0.00    +0.127 C 
ATOM      6  N   UNL     1      -5.171  -3.632   2.469  0.00  0.00    -0.295 N 
ATOM      7  C   UNL     1      -4.918  -3.755   3.912  0.00  0.00    +0.127 C 
ATOM      8  C   UNL     1      -4.766  -2.353   4.504  0.00  0.00    +0.126 C 
ATOM      9  C   UNL     1      -6.257  -4.205   1.912  0.00  0.00    +0.247 C 
ATOM     10  O   UNL     1      -7.087  -4.746   2.616  0.00  0.00    -0.270 OA
ENDROOT
BRANCH   9  11
ATOM     11  C   UNL     1      -6.437  -4.177   0.446  0.00  0.00    +0.037 A 
ATOM     12  C   UNL     1      -5.354  -4.486  -0.397  0.00  0.00    +0.013 A 
ATOM     13  C   UNL     1      -5.494  -4.467  -1.746  0.00  0.00    +0.009 A 
ATOM     14  C   UNL     1      -6.735  -4.134  -2.320  0.00  0.00    -0.018 A 
ATOM     15  C   UNL     1      -6.905  -4.108  -3.714  0.00  0.00    +0.008 A 
ATOM     16  C   UNL     1      -8.118  -3.782  -4.241  0.00  0.00    +0.001 A 
ATOM     17  C   UNL     1      -9.198  -3.473  -3.417  0.00  0.00    +0.001 A 
ATOM     18  C   UNL     1      -9.072  -3.489  -2.062  0.00  0.00    +0.008 A 
ATOM     19  C   UNL     1      -7.835  -3.820  -1.482  0.00  0.00    -0.017 A 
ATOM     20  C   UNL     1      -7.672  -3.851  -0.088  0.00  0.00    +0.021 A 
ENDBRANCH   9  11
BRANCH   1  21
ATOM     21  C   UNL     1      -1.838  -0.132   3.407  0.00  0.00    +0.018 C 
ATOM     22  C   UNL     1      -0.845  -0.998   2.630  0.00  0.00    -0.004 C 
BRANCH  21  31
ATOM     23  C   UNL     1      -2.059   1.524   5.122  0.00  0.00    -0.005 C 
ATOM     24  C   UNL     1      -1.286   2.397   6.104  0.00  0.00    -0.047 A 
ATOM     25  C   UNL     1      -1.829   3.496   6.765  0.00  0.00    +0.010 A 
ATOM     26  C   UNL     1      -1.065   4.218   7.619  0.00  0.00    +0.045 A 
ATOM     27  S   UNL     1       0.500   3.359   7.530  0.00  0.00    -0.101 S 
ATOM     28  C   UNL     1       0.020   2.111   6.371  0.00  0.00    -0.010 A 
ATOM     29  C   UNL     1       0.817   0.987   5.794  0.00  0.00    +0.024 C 
ATOM     30  C   UNL     1      -0.169   0.017   5.121  0.00  0.00    -0.071 C 
ATOM     31  N   UNL     1      -1.103   0.786   4.287  0.00  0.00    +0.395 N 
ATOM     32  H   UNL     1      -0.582   1.440   3.723  0.00  0.00    -0.079 HD
BRANCH  23  39
ATOM     33  C   UNL     1      -4.711   2.264   6.000  0.00  0.00    +0.044 C 
ATOM     34  C   UNL     1      -4.196   2.746   4.668  0.00  0.00    -0.049 A 
ATOM     35  C   UNL     1      -4.990   3.547   3.869  0.00  0.00    +0.003 A 
ATOM     36  C   UNL     1      -4.518   3.990   2.648  0.00  0.00    +0.000 A 
ATOM     37  C   UNL     1      -3.251   3.631   2.225  0.00  0.00    +0.000 A 
ATOM     38  C   UNL     1      -2.457   2.831   3.024  0.00  0.00    +0.002 A 
ATOM     39  C   UNL     1      -2.928   2.392   4.248  0.00  0.00    -0.054 A 
ENDBRANCH  23  39
ENDBRANCH  21  31
ENDBRANCH   1  21
TORSDOF 4
