REMARK  Name = ZINC15730778
REMARK  6 active torsions:
REMARK  status: ('A' for Active; 'I' for Inactive)
REMARK    1  A    between atoms: C_1  and  C_2
REMARK    2  A    between atoms: C_9  and  S_15
REMARK    3  A    between atoms: S_15  and  N_18
REMARK    4  A    between atoms: N_18  and  C_19
REMARK    5  A    between atoms: C_24  and  C_25
REMARK    6  A    between atoms: C_24  and  N_57
REMARK                            x       y       z     vdW  Elec       q    Type
REMARK                         _______ _______ _______ _____ _____    ______ ____
ROOT
ATOM      1  S   UNL     1       2.679   4.046   0.000  0.00  0.00    +0.059 S 
ATOM      2  O   UNL     1       2.396   5.321   0.561  0.00  0.00    -0.153 OA
ATOM      3  O   UNL     1       3.670   3.180   0.538  0.00  0.00    -0.153 OA
ENDROOT
BRANCH   1  11
ATOM      4  C   UNL     1      -5.853   3.146  -0.868  0.00  0.00    +0.018 C 
ATOM      5  C   UNL     1      -4.562   2.737  -0.155  0.00  0.00    +0.082 C 
ATOM      6  C   UNL     1      -3.961   1.565  -0.876  0.00  0.00    +0.087 C 
ATOM      7  S   UNL     1      -2.674   0.734   0.042  0.00  0.00    -0.123 S 
ATOM      8  C   UNL     1      -1.246   1.742   0.018  0.00  0.00    +0.029 A 
ATOM      9  C   UNL     1      -0.013   1.076   0.008  0.00  0.00    +0.018 A 
ATOM     10  C   UNL     1       1.179   1.762   0.000  0.00  0.00    +0.030 A 
ATOM     11  C   UNL     1       1.165   3.145   0.008  0.00  0.00    +0.107 A 
ATOM     12  C   UNL     1      -0.036   3.812   0.022  0.00  0.00    +0.053 A 
ATOM     13  C   UNL     1      -1.264   3.128   0.026  0.00  0.00    +0.049 A 
ATOM     14  N   UNL     1      -2.368   3.939   0.044  0.00  0.00    -0.284 N 
ATOM     15  C   UNL     1      -3.644   3.907  -0.111  0.00  0.00    +0.221 C 
ATOM     16  O   UNL     1      -4.178   4.988  -0.241  0.00  0.00    -0.275 OA
ATOM     17  H   UNL     1      -2.093   4.849   0.239  0.00  0.00    +0.155 HD
ENDBRANCH   1  11
BRANCH   1  18
ATOM     18  N   UNL     1       3.086   4.306  -1.584  0.00  0.00    -0.187 NA
ATOM     19  H   UNL     1       3.887   3.900  -1.951  0.00  0.00    +0.148 HD
BRANCH  18  20
ATOM     20  C   UNL     1       2.236   5.147  -2.430  0.00  0.00    +0.073 C 
ATOM     21  C   UNL     1       1.260   4.265  -3.213  0.00  0.00    +0.002 C 
ATOM     22  C   UNL     1       0.417   5.144  -4.140  0.00  0.00    -0.077 C 
ATOM     23  C   UNL     1       2.213   6.760  -4.336  0.00  0.00    -0.077 C 
ATOM     24  C   UNL     1       3.110   5.929  -3.415  0.00  0.00    +0.002 C 
ATOM     25  N   UNL     1       1.315   5.851  -5.079  0.00  0.00    +0.382 N 
ATOM     26  H   UNL     1       1.883   5.158  -5.581  0.00  0.00    -0.081 HD
BRANCH  25  27
ATOM     27  C   UNL     1       0.518   6.618  -6.058  0.00  0.00    -0.043 C 
BRANCH  27  28
ATOM     28  C   UNL     1      -0.572   5.734  -6.609  0.00  0.00    -0.064 A 
ATOM     29  C   UNL     1      -0.334   4.958  -7.727  0.00  0.00    +0.002 A 
ATOM     30  C   UNL     1      -1.331   4.144  -8.229  0.00  0.00    +0.000 A 
ATOM     31  C   UNL     1      -2.571   4.114  -7.618  0.00  0.00    +0.000 A 
ATOM     32  C   UNL     1      -2.812   4.894  -6.503  0.00  0.00    +0.000 A 
ATOM     33  C   UNL     1      -1.812   5.704  -5.998  0.00  0.00    +0.002 A 
ENDBRANCH  27  28
ENDBRANCH  25  27
ENDBRANCH  18  20
ENDBRANCH   1  18
TORSDOF 5
