REMARK  Name = ZINC09128489
REMARK  11 active torsions:
REMARK  status: ('A' for Active; 'I' for Inactive)
REMARK    1  A    between atoms: C_1  and  C_2
REMARK    2  A    between atoms: C_2  and  C_3
REMARK    3  A    between atoms: C_3  and  N_4
REMARK    4  A    between atoms: C_5  and  N_37
REMARK    5  A    between atoms: C_6  and  C_13
REMARK    6  A    between atoms: C_13  and  C_15
REMARK    7  A    between atoms: C_15  and  S_16
REMARK    8  A    between atoms: S_16  and  C_17
REMARK    9  A    between atoms: N_27  and  C_28
REMARK   10  A    between atoms: C_28  and  C_30
REMARK   11  A    between atoms: C_28  and  C_31
REMARK                            x       y       z     vdW  Elec       q    Type
REMARK                         _______ _______ _______ _____ _____    ______ ____
ROOT
ATOM      1  S   UNL     1       1.723  -1.825  -0.362  0.00  0.00    -0.080 S 
ENDROOT
BRANCH   1   2
ATOM      2  C   UNL     1       0.961  -0.935   0.955  0.00  0.00    +0.173 A 
ATOM      3  N   UNL     1       0.798   0.359   0.822  0.00  0.00    -0.223 NA
ATOM      4  C   UNL     1       0.223   1.101   1.789  0.00  0.00    +0.079 A 
ATOM      5  C   UNL     1       0.049   2.481   1.647  0.00  0.00    +0.028 A 
ATOM      6  C   UNL     1      -0.538   3.196   2.653  0.00  0.00    +0.002 A 
ATOM      7  C   UNL     1      -0.967   2.571   3.817  0.00  0.00    +0.001 A 
ATOM      8  C   UNL     1      -0.810   1.223   3.985  0.00  0.00    +0.015 A 
ATOM      9  C   UNL     1      -0.214   0.469   2.975  0.00  0.00    +0.065 A 
ATOM     10  C   UNL     1      -0.020  -0.982   3.100  0.00  0.00    +0.263 A 
ATOM     11  O   UNL     1      -0.376  -1.582   4.098  0.00  0.00    -0.267 OA
ATOM     12  N   UNL     1       0.568  -1.625   2.066  0.00  0.00    -0.280 N 
BRANCH  12  13
ATOM     13  C   UNL     1       0.786  -3.072   2.138  0.00  0.00    +0.119 C 
ATOM     14  C   UNL     1      -0.557  -3.781   2.321  0.00  0.00    +0.036 C 
BRANCH  13  15
ATOM     15  C   UNL     1       1.684  -3.387   3.306  0.00  0.00    -0.025 A 
ATOM     16  C   UNL     1       2.670  -2.494   3.681  0.00  0.00    +0.005 A 
ATOM     17  C   UNL     1       3.491  -2.781   4.755  0.00  0.00    +0.000 A 
ATOM     18  C   UNL     1       3.332  -3.966   5.449  0.00  0.00    +0.000 A 
ATOM     19  C   UNL     1       2.350  -4.862   5.071  0.00  0.00    +0.000 A 
ATOM     20  C   UNL     1       1.526  -4.573   3.999  0.00  0.00    +0.005 A 
ENDBRANCH  13  15
ENDBRANCH  12  13
ENDBRANCH   1   2
BRANCH   1  21
ATOM     21  C   UNL     1       2.024  -0.470  -1.524  0.00  0.00    +0.157 C 
BRANCH  21  22
ATOM     22  C   UNL     1       2.689  -1.011  -2.764  0.00  0.00    +0.182 C 
ATOM     23  O   UNL     1       2.936  -2.196  -2.853  0.00  0.00    -0.291 OA
BRANCH  22  26
ATOM     24  N   UNL     1       4.027   0.280  -5.947  0.00  0.00    -0.281 N 
ATOM     25  C   UNL     1       3.730  -0.601  -4.946  0.00  0.00    +0.116 A 
ATOM     26  C   UNL     1       3.025  -0.139  -3.821  0.00  0.00    +0.120 A 
ATOM     27  C   UNL     1       2.656   1.282  -3.779  0.00  0.00    +0.266 A 
ATOM     28  O   UNL     1       2.049   1.738  -2.827  0.00  0.00    -0.267 OA
ATOM     29  N   UNL     1       3.002   2.071  -4.817  0.00  0.00    -0.274 N 
ATOM     30  H   UNL     1       2.758   3.041  -4.803  0.00  0.00    +0.173 HD
ATOM     31  C   UNL     1       3.671   1.571  -5.869  0.00  0.00    +0.331 A 
ATOM     32  O   UNL     1       3.964   2.316  -6.784  0.00  0.00    -0.246 OA
BRANCH  25  33
ATOM     33  N   UNL     1       4.104  -1.906  -5.040  0.00  0.00    -0.344 N 
ATOM     34  H   UNL     1       3.550  -2.599  -4.648  0.00  0.00    +0.144 HD
ATOM     35  H   UNL     1       4.925  -2.143  -5.498  0.00  0.00    +0.144 HD
ENDBRANCH  25  33
BRANCH  24  36
ATOM     36  C   UNL     1       4.756  -0.194  -7.127  0.00  0.00    +0.128 C 
BRANCH  36  38
ATOM     37  C   UNL     1       7.021  -0.547  -8.119  0.00  0.00    +0.005 C 
ATOM     38  C   UNL     1       6.261  -0.052  -6.887  0.00  0.00    +0.018 C 
ENDBRANCH  36  38
ENDBRANCH  24  36
ENDBRANCH  22  26
ENDBRANCH  21  22
ENDBRANCH   1  21
TORSDOF 9
