REMARK  Name = ZINC20726100
REMARK  7 active torsions:
REMARK  status: ('A' for Active; 'I' for Inactive)
REMARK    1  A    between atoms: C_1  and  O_2
REMARK    2  A    between atoms: O_2  and  C_3
REMARK    3  A    between atoms: C_3  and  C_5
REMARK    4  A    between atoms: C_8  and  N_11
REMARK    5  A    between atoms: C_23  and  C_25
REMARK    6  A    between atoms: C_30  and  O_31
REMARK    7  A    between atoms: O_31  and  C_32
REMARK                            x       y       z     vdW  Elec       q    Type
REMARK                         _______ _______ _______ _____ _____    ______ ____
ROOT
ATOM      1  N   UNL     1       1.153  -5.895  -1.620  0.00  0.00    -0.269 N 
ATOM      2  C   UNL     1       1.511  -6.655  -2.674  0.00  0.00    +0.307 C 
ATOM      3  O   UNL     1       1.929  -6.130  -3.687  0.00  0.00    -0.252 OA
ATOM      4  N   UNL     1       1.406  -7.996  -2.604  0.00  0.00    -0.272 N 
ATOM      5  C   UNL     1       0.745  -8.642  -1.459  0.00  0.00    +0.116 C 
ATOM      6  C   UNL     1      -0.512  -9.370  -1.951  0.00  0.00    +0.074 C 
ATOM      7  C   UNL     1      -0.172 -10.134  -3.203  0.00  0.00    +0.040 A 
ATOM      8  C   UNL     1       0.914  -9.909  -3.974  0.00  0.00    +0.062 A 
ATOM      9  N   UNL     1       0.885 -10.768  -4.994  0.00  0.00    -0.348 N 
ATOM     10  C   UNL     1      -0.177 -11.524  -4.888  0.00  0.00    +0.171 A 
ATOM     11  N   UNL     1      -0.862 -11.158  -3.780  0.00  0.00    -0.349 N 
ATOM     12  H   UNL     1      -1.688 -11.549  -3.457  0.00  0.00    +0.166 HD
ATOM     13  C   UNL     1       1.946  -8.853  -3.675  0.00  0.00    +0.160 C 
ATOM     14  H   UNL     1       0.941  -6.312  -0.770  0.00  0.00    +0.156 HD
ATOM     15  H   UNL     1       1.546 -10.824  -5.702  0.00  0.00    +0.167 HD
ENDROOT
BRANCH   1  19
ATOM     16  C   UNL     1       0.954  -1.753  -2.010  0.00  0.00    +0.059 A 
ATOM     17  C   UNL     1       0.224  -2.398  -1.007  0.00  0.00    +0.017 A 
ATOM     18  C   UNL     1       0.293  -3.767  -0.881  0.00  0.00    +0.024 A 
ATOM     19  C   UNL     1       1.086  -4.508  -1.750  0.00  0.00    +0.035 A 
ATOM     20  C   UNL     1       1.813  -3.870  -2.750  0.00  0.00    +0.024 A 
ATOM     21  C   UNL     1       1.746  -2.502  -2.886  0.00  0.00    +0.017 A 
BRANCH  16  22
ATOM     22  C   UNL     1       0.883  -0.286  -2.149  0.00  0.00    +0.339 C 
ATOM     23  O   UNL     1       1.513   0.272  -3.025  0.00  0.00    -0.245 OA
BRANCH  22  25
ATOM     24  C   UNL     1       0.097   1.850  -1.497  0.00  0.00    +0.280 C 
ATOM     25  O   UNL     1       0.119   0.434  -1.304  0.00  0.00    -0.464 OA
ENDBRANCH  22  25
ENDBRANCH  16  22
ENDBRANCH   1  19
BRANCH  13  26
ATOM     26  C   UNL     1       3.224  -9.506  -3.215  0.00  0.00    +0.021 A 
ATOM     27  C   UNL     1       3.250 -10.861  -2.946  0.00  0.00    +0.009 A 
ATOM     28  C   UNL     1       4.422 -11.460  -2.524  0.00  0.00    +0.001 A 
ATOM     29  C   UNL     1       5.571 -10.706  -2.370  0.00  0.00    +0.004 A 
ATOM     30  C   UNL     1       5.550  -9.351  -2.638  0.00  0.00    +0.046 A 
ATOM     31  C   UNL     1       4.376  -8.748  -3.067  0.00  0.00    +0.135 A 
BRANCH  31  32
ATOM     32  O   UNL     1       4.355  -7.416  -3.337  0.00  0.00    -0.405 OA
BRANCH  32  33
ATOM     33  C   UNL     1       5.578  -6.699  -3.163  0.00  0.00    +0.575 C 
ATOM     34  F   UNL     1       6.558  -7.237  -4.004  0.00  0.00    -0.133 F 
ATOM     35  F   UNL     1       5.378  -5.352  -3.482  0.00  0.00    -0.133 F 
ATOM     36  F   UNL     1       5.996  -6.806  -1.832  0.00  0.00    -0.133 F 
ENDBRANCH  32  33
ENDBRANCH  31  32
ENDBRANCH  13  26
TORSDOF 6
