REMARK  Name = ZINC24888825
REMARK  5 active torsions:
REMARK  status: ('A' for Active; 'I' for Inactive)
REMARK    1  A    between atoms: C_1  and  C_2
REMARK    2  A    between atoms: N_6  and  C_14
REMARK    3  A    between atoms: C_14  and  C_15
REMARK    4  A    between atoms: N_17  and  C_18
REMARK    5  A    between atoms: C_21  and  C_24
REMARK                            x       y       z     vdW  Elec       q    Type
REMARK                         _______ _______ _______ _____ _____    ______ ____
ROOT
ATOM      1  C   UNL     1       1.405   1.992  -0.169  0.00  0.00    +0.235 C 
ATOM      2  O   UNL     1       2.340   1.239  -0.338  0.00  0.00    -0.274 OA
ATOM      3  N   UNL     1       1.624   3.311   0.004  0.00  0.00    -0.284 N 
ATOM      4  H   UNL     1       0.774   4.006   0.071  0.00  0.00    +0.155 HD
ENDROOT
BRANCH   3   5
ATOM      5  C   UNL     1       2.933   3.795   0.100  0.00  0.00    +0.033 A 
ATOM      6  C   UNL     1       3.918   3.019   0.698  0.00  0.00    +0.024 A 
ATOM      7  C   UNL     1       5.210   3.492   0.789  0.00  0.00    +0.012 A 
ATOM      8  C   UNL     1       5.525   4.755   0.290  0.00  0.00    +0.002 A 
ATOM      9  C   UNL     1       4.534   5.534  -0.305  0.00  0.00    +0.012 A 
ATOM     10  C   UNL     1       3.245   5.054  -0.398  0.00  0.00    +0.024 A 
BRANCH   8  11
ATOM     11  C   UNL     1       6.913   5.269   0.392  0.00  0.00    +0.090 A 
ATOM     12  C   UNL     1       7.969   4.611   0.947  0.00  0.00    +0.121 A 
ATOM     13  N   UNL     1       9.057   5.431   0.836  0.00  0.00    -0.306 N 
ATOM     14  C   UNL     1      10.360   5.287   1.216  0.00  0.00    +0.093 A 
ATOM     15  C   UNL     1      11.257   6.269   0.984  0.00  0.00    +0.018 A 
ATOM     16  C   UNL     1      10.859   7.455   0.345  0.00  0.00    +0.005 A 
ATOM     17  C   UNL     1       9.563   7.612  -0.038  0.00  0.00    +0.047 A 
ATOM     18  C   UNL     1       8.639   6.577   0.211  0.00  0.00    +0.138 A 
ATOM     19  N   UNL     1       7.346   6.459  -0.053  0.00  0.00    -0.228 NA
ENDBRANCH   8  11
ENDBRANCH   3   5
BRANCH   1  20
ATOM     20  C   UNL     1      -0.003   1.454  -0.153  0.00  0.00    +0.209 C 
BRANCH  20  25
ATOM     21  C   UNL     1       1.641  -2.749   0.280  0.00  0.00    +0.062 C 
ATOM     22  C   UNL     1       0.181  -2.325   0.454  0.00  0.00    +0.256 C 
ATOM     23  C   UNL     1       0.115  -0.838   0.690  0.00  0.00    +0.261 C 
ATOM     24  O   UNL     1       0.142  -0.399   1.821  0.00  0.00    -0.271 OA
ATOM     25  N   UNL     1       0.026   0.005  -0.362  0.00  0.00    -0.256 N 
ATOM     26  C   UNL     1      -0.044  -0.530  -1.656  0.00  0.00    +0.079 A 
ATOM     27  C   UNL     1       0.176   0.270  -2.765  0.00  0.00    +0.027 A 
ATOM     28  C   UNL     1       0.101  -0.277  -4.033  0.00  0.00    +0.002 A 
ATOM     29  C   UNL     1      -0.194  -1.618  -4.196  0.00  0.00    +0.004 A 
ATOM     30  C   UNL     1      -0.404  -2.422  -3.094  0.00  0.00    +0.047 A 
ATOM     31  C   UNL     1      -0.336  -1.882  -1.822  0.00  0.00    +0.143 A 
ATOM     32  O   UNL     1      -0.555  -2.657  -0.727  0.00  0.00    -0.478 OA
ENDBRANCH  20  25
ENDBRANCH   1  20
TORSDOF 4
