REMARK  Name = ZINC63718199
REMARK  9 active torsions:
REMARK  status: ('A' for Active; 'I' for Inactive)
REMARK    1  A    between atoms: C_1  and  C_2
REMARK    2  A    between atoms: C_2  and  C_3
REMARK    3  A    between atoms: C_2  and  C_4
REMARK    4  A    between atoms: C_2  and  C_19
REMARK    5  A    between atoms: C_4  and  N_5
REMARK    6  A    between atoms: C_6  and  C_8
REMARK    7  A    between atoms: C_8  and  C_9
REMARK    8  A    between atoms: C_9  and  C_10
REMARK    9  A    between atoms: C_9  and  N_15
REMARK                            x       y       z     vdW  Elec       q    Type
REMARK                         _______ _______ _______ _____ _____    ______ ____
ROOT
ATOM      1  N   UNL     1      -2.119  -0.061   1.218  0.00  0.00    -0.314 N 
ATOM      2  C   UNL     1      -3.403  -0.406   1.442  0.00  0.00    +0.215 C 
ATOM      3  O   UNL     1      -3.990  -1.106   0.645  0.00  0.00    -0.276 OA
ATOM      4  H   UNL     1      -1.649   0.499   1.855  0.00  0.00    +0.149 HD
ENDROOT
BRANCH   1   5
ATOM      5  C   UNL     1      -1.433  -0.534   0.013  0.00  0.00    +0.115 C 
BRANCH   5   7
ATOM      6  C   UNL     1      -0.019   1.526   0.010  0.00  0.00    +0.017 C 
ATOM      7  C   UNL     1       0.002  -0.004   0.002  0.00  0.00    +0.006 C 
ATOM      8  C   UNL     1       0.742  -0.511   1.242  0.00  0.00    +0.017 C 
BRANCH   7   9
ATOM      9  C   UNL     1       0.707  -0.490  -1.238  0.00  0.00    -0.039 A 
ATOM     10  C   UNL     1       0.036  -1.284  -2.149  0.00  0.00    +0.004 A 
ATOM     11  C   UNL     1       0.682  -1.731  -3.286  0.00  0.00    +0.002 A 
ATOM     12  C   UNL     1       2.001  -1.383  -3.513  0.00  0.00    +0.020 A 
ATOM     13  C   UNL     1       2.673  -0.588  -2.603  0.00  0.00    +0.041 A 
ATOM     14  C   UNL     1       2.024  -0.137  -1.467  0.00  0.00    +0.024 A 
ATOM     15 CL   UNL     1       4.329  -0.151  -2.888  0.00  0.00    -0.084 Cl
ENDBRANCH   7   9
ENDBRANCH   5   7
ENDBRANCH   1   5
BRANCH   2  16
ATOM     16  C   UNL     1      -4.108   0.081   2.682  0.00  0.00    +0.123 C 
BRANCH  16  17
ATOM     17  C   UNL     1      -5.543  -0.449   2.693  0.00  0.00    +0.120 C 
BRANCH  17  18
ATOM     18  N   UNL     1      -6.287   0.131   1.571  0.00  0.00    -0.292 N 
ATOM     19  C   UNL     1      -6.433   1.468   1.480  0.00  0.00    +0.298 C 
ATOM     20  O   UNL     1      -5.949   2.192   2.328  0.00  0.00    -0.253 OA
ATOM     21  N   UNL     1      -7.117   2.002   0.448  0.00  0.00    -0.313 N 
ATOM     22  H   UNL     1      -6.673  -0.447   0.895  0.00  0.00    +0.151 HD
ATOM     23  H   UNL     1      -7.503   1.424  -0.228  0.00  0.00    +0.146 HD
ATOM     24  H   UNL     1      -7.223   2.964   0.383  0.00  0.00    +0.146 HD
ENDBRANCH  17  18
BRANCH  17  25
ATOM     25  C   UNL     1      -6.210  -0.067   3.989  0.00  0.00    +0.010 A 
ATOM     26  C   UNL     1      -6.407  -0.816   5.101  0.00  0.00    +0.013 A 
ATOM     27  C   UNL     1      -7.050  -0.249   6.186  0.00  0.00    +0.008 A 
ATOM     28  C   UNL     1      -7.465   1.039   6.105  0.00  0.00    +0.045 A 
ATOM     29  S   UNL     1      -6.939   1.493   4.461  0.00  0.00    -0.100 S 
ENDBRANCH  17  25
ENDBRANCH  16  17
ENDBRANCH   2  16
TORSDOF 7
