REMARK  Name = ZINC14999098
REMARK  13 active torsions:
REMARK  status: ('A' for Active; 'I' for Inactive)
REMARK    1  A    between atoms: C_1  and  C_2
REMARK    2  A    between atoms: C_2  and  C_4
REMARK    3  A    between atoms: C_2  and  O_20
REMARK    4  A    between atoms: C_4  and  N_5
REMARK    5  A    between atoms: C_6  and  C_8
REMARK    6  A    between atoms: N_10  and  C_19
REMARK    7  A    between atoms: O_20  and  C_21
REMARK    8  A    between atoms: C_25  and  C_27
REMARK    9  A    between atoms: C_27  and  N_66
REMARK   10  A    between atoms: C_28  and  N_66
REMARK   11  A    between atoms: C_29  and  C_30
REMARK   12  A    between atoms: C_29  and  N_66
REMARK   13  A    between atoms: N_33  and  C_35
REMARK                            x       y       z     vdW  Elec       q    Type
REMARK                         _______ _______ _______ _____ _____    ______ ____
ROOT
ATOM      1  C   UNL     1       1.588   5.982   1.609  0.00  0.00    +0.053 C 
ATOM      2  C   UNL     1       1.192   5.866   0.135  0.00  0.00    +0.187 C 
ENDROOT
BRANCH   2   3
ATOM      3  C   UNL     1       1.082   7.265  -0.475  0.00  0.00    +0.148 C 
BRANCH   3   4
ATOM      4  N   UNL     1       0.703   7.154  -1.885  0.00  0.00    -0.308 N 
ATOM      5  C   UNL     1       0.546   8.266  -2.630  0.00  0.00    +0.249 C 
ATOM      6  O   UNL     1       0.719   9.362  -2.132  0.00  0.00    -0.270 OA
ATOM      7  H   UNL     1       0.564   6.280  -2.283  0.00  0.00    +0.149 HD
BRANCH   5   8
ATOM      8  C   UNL     1       0.165   8.155  -4.047  0.00  0.00    +0.100 A 
ATOM      9  C   UNL     1      -0.035   6.918  -4.624  0.00  0.00    +0.102 A 
ATOM     10  N   UNL     1      -0.382   6.778  -5.911  0.00  0.00    -0.349 N 
ATOM     11  C   UNL     1      -0.568   7.851  -6.755  0.00  0.00    +0.052 A 
ATOM     12  C   UNL     1      -0.930   7.651  -8.085  0.00  0.00    +0.026 A 
ATOM     13  C   UNL     1      -1.113   8.732  -8.918  0.00  0.00    +0.002 A 
ATOM     14  C   UNL     1      -0.940  10.027  -8.449  0.00  0.00    +0.001 A 
ATOM     15  C   UNL     1      -0.582  10.248  -7.138  0.00  0.00    +0.014 A 
ATOM     16  C   UNL     1      -0.393   9.163  -6.282  0.00  0.00    +0.046 A 
ATOM     17  C   UNL     1      -0.015   9.361  -4.870  0.00  0.00    +0.201 A 
ATOM     18  O   UNL     1       0.144  10.476  -4.406  0.00  0.00    -0.286 OA
ATOM     19  C   UNL     1      -0.573   5.426  -6.442  0.00  0.00    +0.149 C 
ENDBRANCH   5   8
ENDBRANCH   3   4
ENDBRANCH   2   3
BRANCH   2  20
ATOM     20  O   UNL     1      -0.069   5.201   0.032  0.00  0.00    -0.488 OA
BRANCH  20  21
ATOM     21  C   UNL     1      -0.050   3.842   0.025  0.00  0.00    +0.121 A 
ATOM     22  C   UNL     1       1.142   3.162   0.230  0.00  0.00    +0.045 A 
ATOM     23  C   UNL     1       1.158   1.781   0.223  0.00  0.00    +0.004 A 
ATOM     24  C   UNL     1      -0.013   1.076   0.013  0.00  0.00    +0.002 A 
ATOM     25  C   UNL     1      -1.201   1.751  -0.197  0.00  0.00    -0.060 A 
ATOM     26  C   UNL     1      -1.223   3.132  -0.185  0.00  0.00    +0.047 A 
BRANCH  25  27
ATOM     27  C   UNL     1      -2.474   0.980  -0.431  0.00  0.00    -0.043 C 
BRANCH  27  29
ATOM     28  C   UNL     1      -2.327  -0.182   1.688  0.00  0.00    -0.095 C 
ATOM     29  N   UNL     1      -3.136   0.745   0.869  0.00  0.00    +0.383 N 
ATOM     30  H   UNL     1      -3.223   1.639   1.366  0.00  0.00    -0.081 HD
BRANCH  29  31
ATOM     31  C   UNL     1      -4.486   0.182   0.655  0.00  0.00    -0.040 C 
BRANCH  31  32
ATOM     32  C   UNL     1      -5.218   0.159   1.972  0.00  0.00    -0.026 A 
ATOM     33  C   UNL     1      -6.004   1.191   2.495  0.00  0.00    +0.136 A 
ATOM     34  N   UNL     1      -6.472   0.802   3.653  0.00  0.00    -0.180 NA
ATOM     35  N   UNL     1      -5.998  -0.492   3.904  0.00  0.00    -0.274 N 
ATOM     36  C   UNL     1      -5.236  -0.866   2.855  0.00  0.00    +0.109 A 
ATOM     37  C   UNL     1      -6.285  -1.299   5.092  0.00  0.00    +0.172 C 
ENDBRANCH  31  32
ENDBRANCH  29  31
ENDBRANCH  27  29
ENDBRANCH  25  27
ENDBRANCH  20  21
ENDBRANCH   2  20
TORSDOF 9
