REMARK  Name = ZINC33942194
REMARK  7 active torsions:
REMARK  status: ('A' for Active; 'I' for Inactive)
REMARK    1  A    between atoms: C_1  and  C_2
REMARK    2  A    between atoms: C_3  and  N_9
REMARK    3  A    between atoms: C_10  and  C_12
REMARK    4  A    between atoms: C_15  and  C_24
REMARK    5  A    between atoms: C_16  and  C_17
REMARK    6  A    between atoms: C_16  and  C_18
REMARK    7  A    between atoms: N_20  and  O_21
REMARK                            x       y       z     vdW  Elec       q    Type
REMARK                         _______ _______ _______ _____ _____    ______ ____
ROOT
ATOM      1  C   UNL     1       0.192   0.111  -4.876  0.00  0.00    +0.117 C 
ATOM      2  C   UNL     1      -1.031   1.011  -5.234  0.00  0.00    +0.026 C 
ATOM      3  C   UNL     1      -0.894   1.258  -6.754  0.00  0.00    +0.015 C 
ATOM      4  C   UNL     1       0.398   0.482  -7.157  0.00  0.00    +0.023 C 
ATOM      5  C   UNL     1       0.311  -0.749  -6.185  0.00  0.00    -0.003 C 
ATOM      6  C   UNL     1       1.577  -1.607  -6.199  0.00  0.00    +0.013 C 
ATOM      7  C   UNL     1      -0.945  -1.581  -6.446  0.00  0.00    +0.013 C 
ATOM      8  C   UNL     1       1.538   1.273  -6.498  0.00  0.00    +0.129 C 
ATOM      9  N   UNL     1       2.430   1.999  -7.094  0.00  0.00    -0.088 NA
ATOM     10  C   UNL     1       1.418   1.022  -5.032  0.00  0.00    +0.196 C 
ATOM     11  O   UNL     1       2.122   1.458  -4.146  0.00  0.00    -0.290 OA
ATOM     12  C   UNL     1       0.554   0.163  -8.645  0.00  0.00    +0.018 C 
ENDROOT
BRANCH   1  14
ATOM     13  N   UNL     1      -0.010   0.011  -2.413  0.00  0.00    -0.284 N 
ATOM     14  C   UNL     1       0.095  -0.653  -3.581  0.00  0.00    +0.232 C 
ATOM     15  O   UNL     1       0.112  -1.866  -3.590  0.00  0.00    -0.274 OA
ATOM     16  H   UNL     1      -0.104   0.977  -2.411  0.00  0.00    +0.155 HD
BRANCH  13  19
ATOM     17  C   UNL     1      -1.263   1.190  -0.146  0.00  0.00    +0.047 C 
ATOM     18  C   UNL     1      -0.583  -0.153  -0.073  0.00  0.00    -0.011 A 
ATOM     19  C   UNL     1       0.017  -0.692  -1.204  0.00  0.00    +0.038 A 
ATOM     20  C   UNL     1       0.643  -1.929  -1.132  0.00  0.00    +0.023 A 
ATOM     21  C   UNL     1       0.667  -2.621   0.064  0.00  0.00    +0.003 A 
ATOM     22  C   UNL     1       0.069  -2.084   1.188  0.00  0.00    +0.020 A 
ATOM     23  C   UNL     1      -0.550  -0.848   1.122  0.00  0.00    +0.046 A 
ATOM     24 CL   UNL     1      -1.293  -0.173   2.538  0.00  0.00    -0.083 Cl
ENDBRANCH  13  19
ENDBRANCH   1  14
BRANCH   9  25
ATOM     25  O   UNL     1       3.420   2.668  -6.335  0.00  0.00    -0.409 OA
ATOM     26  H   UNL     1       4.041   3.184  -6.866  0.00  0.00    +0.328 HD
ENDBRANCH   9  25
TORSDOF 3
