REMARK  Name = ZINC08788932
REMARK  12 active torsions:
REMARK  status: ('A' for Active; 'I' for Inactive)
REMARK    1  A    between atoms: C_1  and  C_2
REMARK    2  A    between atoms: C_2  and  C_3
REMARK    3  A    between atoms: C_3  and  N_4
REMARK    4  A    between atoms: C_10  and  C_26
REMARK    5  A    between atoms: C_22  and  C_25
REMARK    6  A    between atoms: C_29  and  O_35
REMARK    7  A    between atoms: C_30  and  O_32
REMARK    8  A    between atoms: O_32  and  C_33
REMARK    9  A    between atoms: C_33  and  C_34
REMARK   10  A    between atoms: O_35  and  C_36
REMARK   11  A    between atoms: C_36  and  C_37
REMARK   12  A    between atoms: C_37  and  C_38
REMARK                            x       y       z     vdW  Elec       q    Type
REMARK                         _______ _______ _______ _____ _____    ______ ____
ROOT
ATOM      1  N   UNL     1       2.386   8.284   0.499  0.00  0.00    -0.291 N 
ATOM      2  C   UNL     1       1.640   7.917   1.691  0.00  0.00    +0.203 C 
ATOM      3  C   UNL     1       1.576   6.436   1.882  0.00  0.00    +0.234 C 
ATOM      4  O   UNL     1       0.948   6.013   2.830  0.00  0.00    -0.274 OA
ATOM      5  N   UNL     1       2.165   5.549   1.077  0.00  0.00    -0.280 N 
ATOM      6  C   UNL     1       1.879   4.112   1.256  0.00  0.00    +0.122 C 
ATOM      7  C   UNL     1       1.149   3.596   0.010  0.00  0.00    +0.069 C 
ATOM      8  C   UNL     1       1.843   4.117  -1.222  0.00  0.00    -0.008 A 
ATOM      9  C   UNL     1       1.740   3.634  -2.584  0.00  0.00    +0.004 A 
ATOM     10  C   UNL     1       1.015   2.590  -3.167  0.00  0.00    +0.010 A 
ATOM     11  C   UNL     1       1.159   2.416  -4.521  0.00  0.00    +0.001 A 
ATOM     12  C   UNL     1       1.980   3.229  -5.285  0.00  0.00    +0.002 A 
ATOM     13  C   UNL     1       2.709   4.268  -4.734  0.00  0.00    +0.026 A 
ATOM     14  C   UNL     1       2.584   4.468  -3.361  0.00  0.00    +0.047 A 
ATOM     15  N   UNL     1       3.148   5.378  -2.513  0.00  0.00    -0.356 N 
ATOM     16  H   UNL     1       3.772   6.073  -2.775  0.00  0.00    +0.166 HD
ATOM     17  C   UNL     1       2.701   5.161  -1.237  0.00  0.00    +0.054 A 
ATOM     18  C   UNL     1       3.076   5.940   0.001  0.00  0.00    +0.151 C 
ATOM     19  C   UNL     1       3.031   7.407  -0.269  0.00  0.00    +0.245 C 
ATOM     20  O   UNL     1       3.618   7.826  -1.245  0.00  0.00    -0.273 OA
ATOM     21  C   UNL     1       4.498   5.556   0.414  0.00  0.00    +0.048 C 
ENDROOT
BRANCH   7  22
ATOM     22  C   UNL     1       1.171   2.089   0.002  0.00  0.00    -0.035 A 
ATOM     23  C   UNL     1       2.379   1.417  -0.013  0.00  0.00    +0.008 A 
ATOM     24  C   UNL     1       2.405   0.035  -0.021  0.00  0.00    +0.050 A 
ATOM     25  C   UNL     1       1.218  -0.680  -0.013  0.00  0.00    +0.162 A 
ATOM     26  C   UNL     1       0.002  -0.004   0.002  0.00  0.00    +0.162 A 
ATOM     27  C   UNL     1      -0.017   1.381   0.010  0.00  0.00    +0.053 A 
BRANCH  26  28
ATOM     28  O   UNL     1      -1.165  -0.702   0.010  0.00  0.00    -0.489 OA
BRANCH  28  29
ATOM     29  C   UNL     1      -2.375   0.059   0.026  0.00  0.00    +0.226 C 
ATOM     30  C   UNL     1      -3.575  -0.891   0.033  0.00  0.00    +0.048 C 
ENDBRANCH  28  29
ENDBRANCH  26  28
BRANCH  25  31
ATOM     31  O   UNL     1       1.242  -2.040  -0.021  0.00  0.00    -0.488 OA
BRANCH  31  32
ATOM     32  C   UNL     1       2.526  -2.666  -0.037  0.00  0.00    +0.229 C 
BRANCH  32  33
ATOM     33  C   UNL     1       2.352  -4.186  -0.044  0.00  0.00    +0.038 C 
ATOM     34  C   UNL     1       3.727  -4.857  -0.060  0.00  0.00    +0.007 C 
ENDBRANCH  32  33
ENDBRANCH  31  32
ENDBRANCH  25  31
ENDBRANCH   7  22
BRANCH   1  35
ATOM     35  C   UNL     1       2.429   9.699   0.119  0.00  0.00    +0.108 C 
BRANCH  35  37
ATOM     36  C   UNL     1       1.300  11.491  -1.207  0.00  0.00    +0.005 C 
ATOM     37  C   UNL     1       1.255  10.014  -0.810  0.00  0.00    +0.016 C 
ENDBRANCH  35  37
ENDBRANCH   1  35
TORSDOF 8
