REMARK  Name = ZINC12462533
REMARK  8 active torsions:
REMARK  status: ('A' for Active; 'I' for Inactive)
REMARK    1  A    between atoms: C_1  and  C_2
REMARK    2  A    between atoms: C_5  and  C_7
REMARK    3  A    between atoms: C_9  and  C_29
REMARK    4  A    between atoms: C_10  and  N_28
REMARK    5  A    between atoms: C_22  and  S_24
REMARK    6  A    between atoms: S_24  and  C_25
REMARK    7  A    between atoms: C_25  and  C_26
REMARK    8  A    between atoms: C_25  and  C_27
REMARK                            x       y       z     vdW  Elec       q    Type
REMARK                         _______ _______ _______ _____ _____    ______ ____
ROOT
ATOM      1  C   UNL     1      -1.059   2.334   0.176  0.00  0.00    +0.104 C 
ATOM      2  C   UNL     1      -1.984   2.319   1.357  0.00  0.00    +0.077 C 
ATOM      3  C   UNL     1      -3.285   1.957   1.225  0.00  0.00    +0.108 C 
ATOM      4  N   UNL     1      -3.782   1.601  -0.009  0.00  0.00    -0.237 N 
ATOM      5  C   UNL     1      -3.129   1.974  -1.155  0.00  0.00    +0.026 C 
ATOM      6  C   UNL     1      -1.830   2.340  -1.120  0.00  0.00    +0.026 C 
ATOM      7  C   UNL     1      -1.158   2.739  -2.288  0.00  0.00    +0.162 C 
ATOM      8  O   UNL     1       0.013   3.056  -2.223  0.00  0.00    -0.292 OA
ATOM      9  C   UNL     1      -1.861   2.781  -3.617  0.00  0.00    +0.080 C 
ATOM     10  C   UNL     1      -3.352   3.044  -3.385  0.00  0.00    +0.014 C 
ATOM     11  C   UNL     1      -3.897   1.960  -2.454  0.00  0.00    +0.052 C 
ATOM     12  C   UNL     1      -4.957   0.858  -0.093  0.00  0.00    +0.194 A 
ATOM     13  N   UNL     1      -5.664   0.502  -1.154  0.00  0.00    -0.124 NA
ATOM     14  N   UNL     1      -6.719  -0.182  -1.055  0.00  0.00    -0.133 NA
ATOM     15  C   UNL     1      -7.184  -0.586   0.118  0.00  0.00    +0.160 A 
ATOM     16  S   UNL     1      -5.937   0.104   1.202  0.00  0.00    -0.024 S 
ENDROOT
BRANCH   1  21
ATOM     17  C   UNL     1       1.398  -2.769   0.292  0.00  0.00    +0.051 C 
ATOM     18  C   UNL     1       0.991  -1.318   0.275  0.00  0.00    -0.013 A 
ATOM     19  C   UNL     1       1.772  -0.211   0.313  0.00  0.00    +0.011 A 
ATOM     20  C   UNL     1       1.172   1.034   0.286  0.00  0.00    +0.012 A 
ATOM     21  C   UNL     1      -0.179   1.111   0.222  0.00  0.00    +0.003 A 
ATOM     22  S   UNL     1      -0.647  -0.612   0.198  0.00  0.00    -0.097 S 
ENDBRANCH   1  21
BRANCH   3  23
ATOM     23  N   UNL     1      -4.109   1.945   2.325  0.00  0.00    -0.345 N 
ATOM     24  H   UNL     1      -5.072   1.936   2.210  0.00  0.00    +0.144 HD
ATOM     25  H   UNL     1      -3.728   1.945   3.217  0.00  0.00    +0.144 HD
ENDBRANCH   3  23
BRANCH   2  26
ATOM     26  C   UNL     1      -1.484   2.694   2.646  0.00  0.00    +0.099 C 
ATOM     27  N   UNL     1      -1.089   2.991   3.669  0.00  0.00    -0.191 NA
ENDBRANCH   2  26
BRANCH  15  28
ATOM     28  S   UNL     1      -8.617  -1.537   0.502  0.00  0.00    -0.094 S 
BRANCH  28  29
ATOM     29  C   UNL     1      -9.369  -1.870  -1.115  0.00  0.00    +0.047 C 
ATOM     30  C   UNL     1      -8.430  -2.751  -1.943  0.00  0.00    +0.019 C 
ATOM     31  C   UNL     1     -10.704  -2.592  -0.918  0.00  0.00    +0.019 C 
ENDBRANCH  28  29
ENDBRANCH  15  28
TORSDOF 5
