REMARK  Name = ZINC15859642
REMARK  8 active torsions:
REMARK  status: ('A' for Active; 'I' for Inactive)
REMARK    1  A    between atoms: C_1  and  O_2
REMARK    2  A    between atoms: O_2  and  C_3
REMARK    3  A    between atoms: C_6  and  C_9
REMARK    4  A    between atoms: C_9  and  C_11
REMARK    5  A    between atoms: C_9  and  N_64
REMARK    6  A    between atoms: C_11  and  N_12
REMARK    7  A    between atoms: C_13  and  C_15
REMARK    8  A    between atoms: C_17  and  C_20
REMARK                            x       y       z     vdW  Elec       q    Type
REMARK                         _______ _______ _______ _____ _____    ______ ____
ROOT
ATOM      1  N   UNL     1      -4.364   0.254  -1.390  0.00  0.00    -0.311 N 
ATOM      2  C   UNL     1      -4.965  -0.082  -2.548  0.00  0.00    +0.266 C 
ATOM      3  O   UNL     1      -4.379   0.064  -3.602  0.00  0.00    -0.268 OA
ATOM      4  H   UNL     1      -4.832   0.138  -0.548  0.00  0.00    +0.149 HD
ENDROOT
BRANCH   2   5
ATOM      5  C   UNL     1      -6.344  -0.630  -2.536  0.00  0.00    +0.168 A 
ATOM      6  C   UNL     1      -7.113  -1.024  -3.662  0.00  0.00    +0.086 A 
ATOM      7  C   UNL     1      -8.291  -1.454  -3.118  0.00  0.00    +0.168 A 
ATOM      8  O   UNL     1      -8.174  -1.296  -1.787  0.00  0.00    -0.354 OA
ATOM      9  N   UNL     1      -7.096  -0.842  -1.484  0.00  0.00    -0.073 NA
BRANCH   7  10
ATOM     10  C   UNL     1      -9.464  -1.981  -3.848  0.00  0.00    +0.020 A 
ATOM     11  C   UNL     1      -9.437  -2.087  -5.239  0.00  0.00    +0.012 A 
ATOM     12  C   UNL     1     -10.537  -2.578  -5.905  0.00  0.00    +0.004 A 
ATOM     13  C   UNL     1     -11.673  -2.972  -5.208  0.00  0.00    -0.044 A 
ATOM     14  C   UNL     1     -11.704  -2.874  -3.833  0.00  0.00    -0.044 A 
ATOM     15  C   UNL     1     -10.601  -2.382  -3.152  0.00  0.00    +0.015 A 
ATOM     16  C   UNL     1     -12.900  -3.292  -3.018  0.00  0.00    +0.035 C 
ATOM     17  C   UNL     1     -14.143  -3.396  -3.899  0.00  0.00    +0.005 C 
ATOM     18  C   UNL     1     -13.802  -4.269  -5.113  0.00  0.00    +0.005 C 
ATOM     19  C   UNL     1     -12.838  -3.494  -6.009  0.00  0.00    +0.035 C 
ENDBRANCH   7  10
ENDBRANCH   2   5
BRANCH   1  20
ATOM     20  C   UNL     1      -3.002   0.795  -1.402  0.00  0.00    +0.094 C 
BRANCH  20  21
ATOM     21  C   UNL     1      -2.508   0.965   0.036  0.00  0.00    -0.020 C 
BRANCH  21  25
ATOM     22  C   UNL     1      -2.208  -2.870   1.896  0.00  0.00    +0.120 A 
ATOM     23  C   UNL     1      -3.310  -2.063   2.142  0.00  0.00    +0.046 A 
ATOM     24  C   UNL     1      -3.402  -0.822   1.543  0.00  0.00    +0.005 A 
ATOM     25  C   UNL     1      -2.401  -0.386   0.694  0.00  0.00    -0.059 A 
ATOM     26  C   UNL     1      -1.300  -1.187   0.452  0.00  0.00    +0.005 A 
ATOM     27  C   UNL     1      -1.203  -2.429   1.049  0.00  0.00    +0.046 A 
BRANCH  22  29
ATOM     28  C   UNL     1      -0.954  -4.869   2.186  0.00  0.00    +0.277 C 
ATOM     29  O   UNL     1      -2.115  -4.092   2.484  0.00  0.00    -0.495 OA
ENDBRANCH  22  29
ENDBRANCH  21  25
BRANCH  21  34
ATOM     30  C   UNL     1      -1.250   2.937  -0.640  0.00  0.00    -0.078 C 
ATOM     31  C   UNL     1       0.011   3.661  -0.105  0.00  0.00    -0.020 C 
ATOM     32  C   UNL     1       0.085   3.188   1.365  0.00  0.00    -0.020 C 
ATOM     33  C   UNL     1      -0.719   1.875   1.405  0.00  0.00    -0.078 C 
ATOM     34  N   UNL     1      -1.171   1.631   0.035  0.00  0.00    +0.385 N 
ATOM     35  H   UNL     1      -0.496   1.030  -0.452  0.00  0.00    -0.081 HD
ENDBRANCH  21  34
ENDBRANCH  20  21
ENDBRANCH   1  20
TORSDOF 7
