REMARK  Name = ZINC17062355
REMARK  4 active torsions:
REMARK  status: ('A' for Active; 'I' for Inactive)
REMARK    1  A    between atoms: C_3  and  C_11
REMARK    2  A    between atoms: C_4  and  N_8
REMARK    3  A    between atoms: N_13  and  C_14
REMARK    4  A    between atoms: C_14  and  C_15
REMARK                            x       y       z     vdW  Elec       q    Type
REMARK                         _______ _______ _______ _____ _____    ______ ____
ROOT
ATOM      1  C   UNL     1      -1.286   2.009   0.613  0.00  0.00    +0.246 C 
ATOM      2  O   UNL     1      -1.329   3.220   0.718  0.00  0.00    -0.270 OA
ATOM      3  N   UNL     1      -2.405   1.278   0.784  0.00  0.00    -0.311 N 
ATOM      4  H   UNL     1      -2.371   0.312   0.700  0.00  0.00    +0.149 HD
ENDROOT
BRANCH   1   7
ATOM      5  C   UNL     1       1.217  -0.650  -0.260  0.00  0.00    +0.021 A 
ATOM      6  C   UNL     1       0.021  -0.032   0.039  0.00  0.00    +0.017 A 
ATOM      7  C   UNL     1      -0.007   1.340   0.297  0.00  0.00    +0.067 A 
ATOM      8  C   UNL     1       1.177   2.078   0.251  0.00  0.00    +0.140 A 
ATOM      9  C   UNL     1       2.367   1.449  -0.049  0.00  0.00    +0.053 A 
ATOM     10  C   UNL     1       2.389   0.087  -0.305  0.00  0.00    +0.043 A 
ATOM     11 CL   UNL     1       3.890  -0.697  -0.682  0.00  0.00    -0.083 Cl
BRANCH   8  12
ATOM     12  N   UNL     1       1.156   3.533   0.523  0.00  0.00    +0.057 N 
ATOM     13  O   UNL     1       1.680   4.306  -0.258  0.00  0.00    -0.126 OA
ATOM     14  O   UNL     1       0.614   3.956   1.528  0.00  0.00    -0.126 OA
ENDBRANCH   8  12
ENDBRANCH   1   7
BRANCH   3  15
ATOM     15  C   UNL     1      -3.674   1.941   1.096  0.00  0.00    +0.111 C 
BRANCH  15  16
ATOM     16  C   UNL     1      -4.777   0.891   1.239  0.00  0.00    -0.013 C 
ATOM     17  C   UNL     1      -4.917   0.116  -0.073  0.00  0.00    +0.012 C 
ATOM     18  C   UNL     1      -6.020  -0.934   0.070  0.00  0.00    -0.010 C 
ATOM     19  C   UNL     1      -7.345  -0.241   0.396  0.00  0.00    +0.007 C 
ATOM     20  C   UNL     1      -7.205   0.534   1.708  0.00  0.00    -0.010 C 
ATOM     21  C   UNL     1      -6.101   1.584   1.565  0.00  0.00    +0.012 C 
ATOM     22  C   UNL     1      -6.845  -0.435   2.836  0.00  0.00    +0.007 C 
ATOM     23  C   UNL     1      -5.520  -1.128   2.510  0.00  0.00    -0.010 C 
ATOM     24  C   UNL     1      -5.660  -1.902   1.198  0.00  0.00    +0.007 C 
ATOM     25  C   UNL     1      -4.417  -0.077   2.367  0.00  0.00    +0.012 C 
ENDBRANCH  15  16
ENDBRANCH   3  15
TORSDOF 4
