REMARK  Name = ZINC14465509
REMARK  7 active torsions:
REMARK  status: ('A' for Active; 'I' for Inactive)
REMARK    1  A    between atoms: C_1  and  C_2
REMARK    2  A    between atoms: C_2  and  O_3
REMARK    3  A    between atoms: O_3  and  C_4
REMARK    4  A    between atoms: C_4  and  C_5
REMARK    5  A    between atoms: C_5  and  O_6
REMARK    6  A    between atoms: O_6  and  C_7
REMARK    7  A    between atoms: C_14  and  C_23
REMARK                            x       y       z     vdW  Elec       q    Type
REMARK                         _______ _______ _______ _____ _____    ______ ____
ROOT
ATOM      1  C   UNL     1      -2.712   4.805  -1.985  0.00  0.00    +0.142 A 
ATOM      2  C   UNL     1      -3.860   5.575  -2.027  0.00  0.00    +0.047 A 
ATOM      3  C   UNL     1      -4.722   5.581  -0.946  0.00  0.00    +0.004 A 
ATOM      4  C   UNL     1      -4.439   4.818   0.168  0.00  0.00    +0.006 A 
ATOM      5  C   UNL     1      -3.290   4.037   0.221  0.00  0.00    -0.016 A 
ATOM      6  C   UNL     1      -2.422   4.033  -0.856  0.00  0.00    +0.074 A 
ATOM      7  N   UNL     1      -1.246   3.279  -0.861  0.00  0.00    -0.334 N 
ATOM      8  C   UNL     1      -1.332   2.114   0.020  0.00  0.00    +0.105 C 
ATOM      9  C   UNL     1      -1.648   2.574   1.445  0.00  0.00    +0.029 C 
ATOM     10  C   UNL     1      -3.046   3.229   1.461  0.00  0.00    +0.049 C 
ATOM     11  C   UNL     1      -4.001   2.060   1.531  0.00  0.00    -0.023 C 
ATOM     12  C   UNL     1      -3.390   0.996   1.990  0.00  0.00    -0.030 C 
ATOM     13  C   UNL     1      -1.939   1.308   2.299  0.00  0.00    +0.033 C 
ATOM     14  H   UNL     1      -0.449   3.851  -0.627  0.00  0.00    +0.147 HD
ENDROOT
BRANCH   8  15
ATOM     15  C   UNL     1      -0.017   1.378   0.010  0.00  0.00    -0.027 A 
ATOM     16  C   UNL     1       1.171   2.086   0.002  0.00  0.00    +0.007 A 
ATOM     17  C   UNL     1       2.377   1.412  -0.013  0.00  0.00    +0.020 A 
ATOM     18  C   UNL     1       2.397   0.029  -0.021  0.00  0.00    +0.041 A 
ATOM     19  C   UNL     1       1.208  -0.679  -0.013  0.00  0.00    +0.020 A 
ATOM     20  C   UNL     1       0.002  -0.004   0.002  0.00  0.00    +0.007 A 
ATOM     21 CL   UNL     1       3.912  -0.818  -0.040  0.00  0.00    -0.084 Cl
ENDBRANCH   8  15
BRANCH   1  22
ATOM     22  O   UNL     1      -1.862   4.797  -3.046  0.00  0.00    -0.488 OA
BRANCH  22  23
ATOM     23  C   UNL     1      -2.217   5.608  -4.168  0.00  0.00    +0.257 C 
BRANCH  23  24
ATOM     24  C   UNL     1      -1.149   5.471  -5.255  0.00  0.00    +0.200 C 
BRANCH  24  25
ATOM     25  O   UNL     1      -1.138   4.130  -5.747  0.00  0.00    -0.377 OA
BRANCH  25  27
ATOM     26  C   UNL     1      -0.249   2.433  -7.220  0.00  0.00    +0.034 C 
ATOM     27  C   UNL     1      -0.171   3.894  -6.771  0.00  0.00    +0.156 C 
ENDBRANCH  25  27
ENDBRANCH  24  25
ENDBRANCH  23  24
ENDBRANCH  22  23
ENDBRANCH   1  22
TORSDOF 6
