REMARK  Name = ZINC12372123
REMARK  14 active torsions:
REMARK  status: ('A' for Active; 'I' for Inactive)
REMARK    1  A    between atoms: C_1  and  C_2
REMARK    2  A    between atoms: C_3  and  C_32
REMARK    3  A    between atoms: C_4  and  O_31
REMARK    4  A    between atoms: C_5  and  C_7
REMARK    5  A    between atoms: C_7  and  C_8
REMARK    6  A    between atoms: C_7  and  C_19
REMARK    7  A    between atoms: C_9  and  O_18
REMARK    8  A    between atoms: C_10  and  C_14
REMARK    9  A    between atoms: C_11  and  C_13
REMARK   10  A    between atoms: C_14  and  O_16
REMARK   11  A    between atoms: O_16  and  C_17
REMARK   12  A    between atoms: C_19  and  C_21
REMARK   13  A    between atoms: C_32  and  O_34
REMARK   14  A    between atoms: O_34  and  C_35
REMARK                            x       y       z     vdW  Elec       q    Type
REMARK                         _______ _______ _______ _____ _____    ______ ____
ROOT
ATOM      1  C   UNL     1       3.703  -2.197  -0.056  0.00  0.00    +0.141 C 
ENDROOT
BRANCH   1   6
ATOM      2  C   UNL     1       4.641  -3.451  -5.472  0.00  0.00    +0.052 C 
ATOM      3  C   UNL     1       4.151  -3.279  -4.057  0.00  0.00    +0.005 A 
ATOM      4  C   UNL     1       3.011  -3.801  -3.476  0.00  0.00    +0.110 A 
ATOM      5  C   UNL     1       2.776  -3.476  -2.089  0.00  0.00    +0.142 A 
ATOM      6  C   UNL     1       3.691  -2.691  -1.480  0.00  0.00    +0.048 A 
ATOM      7  S   UNL     1       4.876  -2.374  -2.771  0.00  0.00    -0.093 S 
BRANCH   5   8
ATOM      8  O   UNL     1       1.682  -3.940  -1.425  0.00  0.00    -0.505 OA
ATOM      9  H   UNL     1       0.913  -3.356  -1.478  0.00  0.00    +0.292 HD
ENDBRANCH   5   8
BRANCH   4  10
ATOM     10  C   UNL     1       2.081  -4.647  -4.234  0.00  0.00    +0.343 C 
ATOM     11  O   UNL     1       1.155  -4.143  -4.840  0.00  0.00    -0.245 OA
BRANCH  10  12
ATOM     12  O   UNL     1       2.253  -5.984  -4.259  0.00  0.00    -0.464 OA
ATOM     13  C   UNL     1       1.296  -6.758  -5.029  0.00  0.00    +0.280 C 
ENDBRANCH  10  12
ENDBRANCH   4  10
ENDBRANCH   1   6
BRANCH   1  14
ATOM     14  C   UNL     1       4.947  -2.690   0.636  0.00  0.00    +0.048 A 
ATOM     15  C   UNL     1       5.045  -3.474   1.731  0.00  0.00    +0.142 A 
ATOM     16  C   UNL     1       6.375  -3.798   2.188  0.00  0.00    +0.110 A 
ATOM     17  C   UNL     1       7.431  -3.277   1.464  0.00  0.00    +0.005 A 
ATOM     18  S   UNL     1       6.648  -2.385   0.203  0.00  0.00    -0.093 S 
ATOM     19  C   UNL     1       8.908  -3.450   1.709  0.00  0.00    +0.052 C 
BRANCH  16  20
ATOM     20  C   UNL     1       6.597  -4.643   3.369  0.00  0.00    +0.343 C 
ATOM     21  O   UNL     1       6.690  -5.849   3.244  0.00  0.00    -0.245 OA
BRANCH  20  22
ATOM     22  O   UNL     1       6.696  -4.082   4.590  0.00  0.00    -0.464 OA
ATOM     23  C   UNL     1       6.915  -4.978   5.712  0.00  0.00    +0.280 C 
ENDBRANCH  20  22
ENDBRANCH  16  20
BRANCH  15  24
ATOM     24  O   UNL     1       3.938  -3.938   2.374  0.00  0.00    -0.505 OA
ATOM     25  H   UNL     1       3.621  -4.790   2.045  0.00  0.00    +0.292 HD
ENDBRANCH  15  24
ENDBRANCH   1  14
BRANCH   1  26
ATOM     26  C   UNL     1       3.685  -0.690  -0.047  0.00  0.00    +0.176 C 
ATOM     27  O   UNL     1       4.729  -0.072  -0.056  0.00  0.00    -0.291 OA
BRANCH  26  28
ATOM     28  C   UNL     1       2.405   0.029  -0.027  0.00  0.00    +0.022 A 
ATOM     29  C   UNL     1       1.199  -0.682  -0.016  0.00  0.00    +0.015 A 
ATOM     30  C   UNL     1       0.002  -0.004   0.002  0.00  0.00    +0.050 A 
ATOM     31  C   UNL     1      -0.017   1.387   0.010  0.00  0.00    +0.162 A 
ATOM     32  C   UNL     1       1.179   2.102   0.002  0.00  0.00    +0.163 A 
ATOM     33  C   UNL     1       2.386   1.429  -0.017  0.00  0.00    +0.060 A 
ATOM     34  O   UNL     1       1.177   3.463   0.018  0.00  0.00    -0.485 OA
ATOM     35  C   UNL     1      -0.051   4.109  -0.338  0.00  0.00    +0.270 C 
ATOM     36  C   UNL     1      -1.195   3.411   0.411  0.00  0.00    +0.270 C 
ATOM     37  O   UNL     1      -1.212   2.034   0.019  0.00  0.00    -0.485 OA
ENDBRANCH  26  28
ENDBRANCH   1  26
TORSDOF 10
