REMARK  Name = ZINC09124607
REMARK  9 active torsions:
REMARK  status: ('A' for Active; 'I' for Inactive)
REMARK    1  A    between atoms: C_1  and  C_2
REMARK    2  A    between atoms: C_2  and  C_3
REMARK    3  A    between atoms: C_6  and  C_9
REMARK    4  A    between atoms: C_12  and  C_27
REMARK    5  A    between atoms: N_19  and  C_20
REMARK    6  A    between atoms: C_20  and  C_21
REMARK    7  A    between atoms: C_29  and  C_35
REMARK    8  A    between atoms: C_31  and  C_34
REMARK    9  A    between atoms: C_32  and  O_33
REMARK                            x       y       z     vdW  Elec       q    Type
REMARK                         _______ _______ _______ _____ _____    ______ ____
ROOT
ATOM      1  C   UNL     1      -5.419  -2.005   0.043  0.00  0.00    +0.142 C 
ATOM      2  C   UNL     1      -5.425  -3.485  -0.224  0.00  0.00    +0.035 A 
ATOM      3  C   UNL     1      -5.028  -4.724   0.168  0.00  0.00    +0.075 A 
ATOM      4  N   UNL     1      -5.525  -5.603  -0.751  0.00  0.00    -0.276 N 
ATOM      5  H   UNL     1      -5.400  -6.565  -0.726  0.00  0.00    +0.189 HD
ATOM      6  N   UNL     1      -6.184  -4.968  -1.654  0.00  0.00    -0.168 NA
ATOM      7  C   UNL     1      -6.173  -3.673  -1.409  0.00  0.00    +0.153 A 
ATOM      8  C   UNL     1      -6.625  -2.349  -1.872  0.00  0.00    +0.268 C 
ATOM      9  O   UNL     1      -7.295  -2.155  -2.868  0.00  0.00    -0.268 OA
ATOM     10  N   UNL     1      -6.193  -1.386  -1.039  0.00  0.00    -0.281 N 
ENDROOT
BRANCH   3  11
ATOM     11  C   UNL     1      -4.216  -5.056   1.359  0.00  0.00    +0.042 A 
ATOM     12  C   UNL     1      -2.940  -5.598   1.209  0.00  0.00    +0.017 A 
ATOM     13  C   UNL     1      -2.187  -5.905   2.323  0.00  0.00    -0.049 A 
ATOM     14  C   UNL     1      -2.694  -5.677   3.591  0.00  0.00    +0.010 A 
ATOM     15  C   UNL     1      -3.957  -5.141   3.752  0.00  0.00    -0.008 A 
ATOM     16  C   UNL     1      -4.723  -4.822   2.643  0.00  0.00    +0.129 A 
ATOM     17  C   UNL     1      -4.500  -4.898   5.137  0.00  0.00    +0.047 C 
ATOM     18  C   UNL     1      -0.808  -6.490   2.159  0.00  0.00    +0.044 C 
BRANCH  16  19
ATOM     19  O   UNL     1      -5.962  -4.289   2.800  0.00  0.00    -0.506 OA
ATOM     20  H   UNL     1      -6.669  -4.947   2.856  0.00  0.00    +0.292 HD
ENDBRANCH  16  19
ENDBRANCH   3  11
BRANCH   1  24
ATOM     21  C   UNL     1      -1.412  -0.526   0.013  0.00  0.00    -0.048 A 
ATOM     22  C   UNL     1      -2.051  -0.766   1.215  0.00  0.00    +0.004 A 
ATOM     23  C   UNL     1      -3.348  -1.244   1.225  0.00  0.00    +0.006 A 
ATOM     24  C   UNL     1      -4.006  -1.482   0.032  0.00  0.00    -0.022 A 
ATOM     25  C   UNL     1      -3.367  -1.241  -1.170  0.00  0.00    +0.006 A 
ATOM     26  C   UNL     1      -2.072  -0.758  -1.179  0.00  0.00    +0.004 A 
BRANCH  21  28
ATOM     27  C   UNL     1      -0.019   1.526   0.010  0.00  0.00    +0.009 C 
ATOM     28  C   UNL     1       0.002  -0.004   0.002  0.00  0.00    +0.032 C 
ENDBRANCH  21  28
ENDBRANCH   1  24
BRANCH  10  29
ATOM     29  C   UNL     1      -6.454   0.049  -1.186  0.00  0.00    +0.145 C 
BRANCH  29  30
ATOM     30  C   UNL     1      -5.357   0.676  -2.007  0.00  0.00    -0.012 A 
ATOM     31  C   UNL     1      -4.220   1.179  -1.393  0.00  0.00    +0.008 A 
ATOM     32  C   UNL     1      -3.237   1.748  -2.188  0.00  0.00    +0.020 A 
ATOM     33  C   UNL     1      -3.422   1.795  -3.557  0.00  0.00    +0.111 A 
ATOM     34  N   UNL     1      -4.517   1.307  -4.107  0.00  0.00    -0.263 NA
ATOM     35  C   UNL     1      -5.469   0.753  -3.382  0.00  0.00    +0.115 A 
ENDBRANCH  29  30
ENDBRANCH  10  29
TORSDOF 6
