REMARK  Name = ZINC45330730
REMARK  2 active torsions:
REMARK  status: ('A' for Active; 'I' for Inactive)
REMARK    1  A    between atoms: C_9  and  N_11
REMARK    2  A    between atoms: N_11  and  N_12
REMARK                            x       y       z     vdW  Elec       q    Type
REMARK                         _______ _______ _______ _____ _____    ______ ____
ROOT
ATOM      1  N   UNL     1       4.991  -3.914  -0.067  0.00  0.00    -0.177 NA
ATOM      2  C   UNL     1       6.130  -4.486  -0.177  0.00  0.00    +0.137 C 
ATOM      3  C   UNL     1       7.443  -3.821  -0.195  0.00  0.00    +0.014 A 
ATOM      4  C   UNL     1       7.891  -2.416  -0.103  0.00  0.00    +0.011 A 
ATOM      5  C   UNL     1       9.181  -2.143  -0.152  0.00  0.00    +0.001 A 
ATOM      6  C   UNL     1      10.197  -3.206  -0.296  0.00  0.00    +0.008 A 
ATOM      7  C   UNL     1       9.798  -4.453  -0.377  0.00  0.00    -0.017 A 
ATOM      8  C   UNL     1       8.361  -4.725  -0.320  0.00  0.00    +0.002 A 
ATOM      9  C   UNL     1       7.838  -6.088  -0.404  0.00  0.00    +0.032 A 
ATOM     10  C   UNL     1       8.699  -7.069  -0.533  0.00  0.00    +0.012 A 
ATOM     11  C   UNL     1      10.148  -6.820  -0.593  0.00  0.00    +0.001 A 
ATOM     12  C   UNL     1      10.687  -5.618  -0.524  0.00  0.00    +0.008 A 
ATOM     13  C   UNL     1       6.374  -5.947  -0.305  0.00  0.00    +0.214 C 
ATOM     14  O   UNL     1       5.551  -6.828  -0.327  0.00  0.00    -0.285 OA
ENDROOT
BRANCH   1  15
ATOM     15  N   UNL     1       4.899  -2.518  -0.137  0.00  0.00    -0.222 N 
ATOM     16  H   UNL     1       5.684  -1.990  -0.349  0.00  0.00    +0.176 HD
BRANCH  15  25
ATOM     17  C   UNL     1       0.065   1.380   0.700  0.00  0.00    +0.001 A 
ATOM     18  C   UNL     1       1.216   2.102   0.392  0.00  0.00    +0.002 A 
ATOM     19  C   UNL     1       2.401   1.470   0.166  0.00  0.00    +0.026 A 
ATOM     20  C   UNL     1       2.470   0.068   0.242  0.00  0.00    +0.048 A 
ATOM     21  C   UNL     1       1.297  -0.664   0.555  0.00  0.00    -0.002 A 
ATOM     22  C   UNL     1       0.094   0.020   0.782  0.00  0.00    +0.010 A 
ATOM     23  C   UNL     1       1.365  -2.071   0.632  0.00  0.00    +0.013 A 
ATOM     24  C   UNL     1       2.563  -2.674   0.401  0.00  0.00    +0.044 A 
ATOM     25  C   UNL     1       3.690  -1.894   0.095  0.00  0.00    +0.116 A 
ATOM     26  N   UNL     1       3.620  -0.577   0.025  0.00  0.00    -0.342 N 
ATOM     27  H   UNL     1       4.418  -0.068  -0.189  0.00  0.00    +0.167 HD
ENDBRANCH  15  25
ENDBRANCH   1  15
TORSDOF 2
