REMARK  Name = ZINC07041548
REMARK  4 active torsions:
REMARK  status: ('A' for Active; 'I' for Inactive)
REMARK    1  A    between atoms: C_1  and  C_2
REMARK    2  A    between atoms: C_3  and  C_11
REMARK    3  A    between atoms: N_13  and  N_14
REMARK    4  A    between atoms: C_15  and  C_16
REMARK                            x       y       z     vdW  Elec       q    Type
REMARK                         _______ _______ _______ _____ _____    ______ ____
ROOT
ATOM      1  C   UNL     1      -0.004  -0.381  -2.476  0.00  0.00    +0.282 C 
ATOM      2  O   UNL     1      -0.117   0.804  -2.738  0.00  0.00    -0.267 OA
ATOM      3  N   UNL     1       0.105  -1.283  -3.471  0.00  0.00    -0.202 N 
ATOM      4  H   UNL     1       0.118  -2.231  -3.267  0.00  0.00    +0.178 HD
ENDROOT
BRANCH   1   7
ATOM      5  C   UNL     1      -2.528  -0.801  -0.692  0.00  0.00    +0.068 C 
ATOM      6  C   UNL     1      -1.087  -1.007  -0.304  0.00  0.00    +0.069 A 
ATOM      7  C   UNL     1       0.012  -0.810  -1.125  0.00  0.00    +0.133 A 
ATOM      8  N   UNL     1       1.127  -1.115  -0.366  0.00  0.00    -0.295 N 
ATOM      9  C   UNL     1       2.457  -1.102  -0.645  0.00  0.00    +0.093 A 
ATOM     10  C   UNL     1       3.363  -1.453   0.296  0.00  0.00    +0.018 A 
ATOM     11  C   UNL     1       2.935  -1.835   1.575  0.00  0.00    +0.005 A 
ATOM     12  C   UNL     1       1.604  -1.850   1.864  0.00  0.00    +0.047 A 
ATOM     13  C   UNL     1       0.678  -1.481   0.871  0.00  0.00    +0.138 A 
ATOM     14  N   UNL     1      -0.651  -1.402   0.882  0.00  0.00    -0.232 NA
ENDBRANCH   1   7
BRANCH   3  15
ATOM     15  N   UNL     1       0.198  -0.852  -4.801  0.00  0.00    -0.187 NA
ATOM     16  C   UNL     1       0.303  -1.722  -5.760  0.00  0.00    +0.140 C 
BRANCH  16  17
ATOM     17  C   UNL     1       0.401  -1.269  -7.157  0.00  0.00    +0.020 A 
ATOM     18  C   UNL     1       0.509  -2.056  -8.261  0.00  0.00    +0.093 A 
ATOM     19  N   UNL     1       0.575  -1.275  -9.377  0.00  0.00    -0.360 N 
ATOM     20  H   UNL     1       0.655  -1.610 -10.284  0.00  0.00    +0.165 HD
ATOM     21  C   UNL     1       0.512   0.058  -9.032  0.00  0.00    +0.047 A 
ATOM     22  C   UNL     1       0.395   0.126  -7.633  0.00  0.00    +0.008 A 
ATOM     23  C   UNL     1       0.305   1.363  -7.000  0.00  0.00    +0.010 A 
ATOM     24  C   UNL     1       0.329   2.517  -7.751  0.00  0.00    +0.001 A 
ATOM     25  C   UNL     1       0.442   2.452  -9.132  0.00  0.00    +0.002 A 
ATOM     26  C   UNL     1       0.538   1.235  -9.772  0.00  0.00    +0.026 A 
ENDBRANCH  16  17
ENDBRANCH   3  15
TORSDOF 3
