REMARK  Name = ZINC09828941
REMARK  14 active torsions:
REMARK  status: ('A' for Active; 'I' for Inactive)
REMARK    1  A    between atoms: C_1  and  C_2
REMARK    2  A    between atoms: C_2  and  O_3
REMARK    3  A    between atoms: O_3  and  C_4
REMARK    4  A    between atoms: C_4  and  C_5
REMARK    5  A    between atoms: C_4  and  O_32
REMARK    6  A    between atoms: C_5  and  N_6
REMARK    7  A    between atoms: C_7  and  C_9
REMARK    8  A    between atoms: N_11  and  C_12
REMARK    9  A    between atoms: C_12  and  C_13
REMARK   10  A    between atoms: C_13  and  C_15
REMARK   11  A    between atoms: C_13  and  N_67
REMARK   12  A    between atoms: N_22  and  C_25
REMARK   13  A    between atoms: O_32  and  C_33
REMARK   14  A    between atoms: C_33  and  C_34
REMARK                            x       y       z     vdW  Elec       q    Type
REMARK                         _______ _______ _______ _____ _____    ______ ____
ROOT
ATOM      1  C   UNL     1       2.068  -0.998   2.052  0.00  0.00    +0.017 C 
ENDROOT
BRANCH   1   7
ATOM      2  C   UNL     1       3.849  -2.228   3.138  0.00  0.00    -0.059 C 
ATOM      3  C   UNL     1       4.926  -2.142   4.222  0.00  0.00    +0.086 C 
ATOM      4  N   UNL     1       4.289  -1.916   5.527  0.00  0.00    -0.331 N 
ATOM      5  C   UNL     1       3.505  -0.673   5.519  0.00  0.00    +0.086 C 
ATOM      6  C   UNL     1       2.428  -0.759   4.435  0.00  0.00    -0.059 C 
ATOM      7  N   UNL     1       3.083  -0.964   3.126  0.00  0.00    +0.389 N 
ATOM      8  H   UNL     1       3.728  -0.184   2.950  0.00  0.00    -0.081 HD
BRANCH   4   9
ATOM      9  C   UNL     1       5.239  -1.903   6.553  0.00  0.00    +0.065 A 
ATOM     10  C   UNL     1       4.833  -1.777   7.875  0.00  0.00    +0.026 A 
ATOM     11  C   UNL     1       5.773  -1.768   8.887  0.00  0.00    +0.002 A 
ATOM     12  C   UNL     1       7.118  -1.877   8.585  0.00  0.00    +0.003 A 
ATOM     13  C   UNL     1       7.528  -1.998   7.270  0.00  0.00    +0.040 A 
ATOM     14  C   UNL     1       6.592  -2.012   6.252  0.00  0.00    +0.144 A 
ATOM     15  F   UNL     1       6.992  -2.129   4.967  0.00  0.00    -0.204 F 
ENDBRANCH   4   9
ENDBRANCH   1   7
BRANCH   1  16
ATOM     16  C   UNL     1       1.105  -2.137   2.272  0.00  0.00    +0.093 A 
ATOM     17  C   UNL     1       0.736  -3.043   1.350  0.00  0.00    +0.043 A 
ATOM     18  C   UNL     1      -0.172  -3.924   1.982  0.00  0.00    +0.041 A 
ATOM     19  C   UNL     1      -0.309  -3.498   3.251  0.00  0.00    +0.195 A 
ATOM     20  O   UNL     1       0.467  -2.415   3.421  0.00  0.00    -0.469 OA
ENDBRANCH   1  16
BRANCH   1  21
ATOM     21  C   UNL     1       1.300   0.326   2.051  0.00  0.00    +0.097 C 
BRANCH  21  24
ATOM     22  C   UNL     1       1.803   2.708   1.976  0.00  0.00    +0.299 C 
ATOM     23  O   UNL     1       0.625   2.933   2.167  0.00  0.00    -0.265 OA
ATOM     24  N   UNL     1       2.243   1.437   1.902  0.00  0.00    -0.309 N 
ATOM     25  H   UNL     1       3.184   1.257   1.750  0.00  0.00    +0.149 HD
BRANCH  22  27
ATOM     26  N   UNL     1       2.325   5.114   1.898  0.00  0.00    -0.303 N 
ATOM     27  C   UNL     1       2.765   3.842   1.824  0.00  0.00    +0.299 C 
ATOM     28  O   UNL     1       3.942   3.618   1.633  0.00  0.00    -0.265 OA
ATOM     29  H   UNL     1       1.383   5.293   2.050  0.00  0.00    +0.149 HD
BRANCH  26  30
ATOM     30  C   UNL     1       3.267   6.225   1.748  0.00  0.00    +0.166 C 
BRANCH  30  31
ATOM     31  C   UNL     1       2.516   7.552   1.873  0.00  0.00    +0.267 C 
BRANCH  31  32
ATOM     32  O   UNL     1       1.519   7.632   0.852  0.00  0.00    -0.350 OA
BRANCH  32  34
ATOM     33  C   UNL     1       0.022   8.938  -0.524  0.00  0.00    +0.034 C 
ATOM     34  C   UNL     1       1.184   8.968   0.471  0.00  0.00    +0.159 C 
ENDBRANCH  32  34
ENDBRANCH  31  32
BRANCH  31  35
ATOM     35  O   UNL     1       1.891   7.627   3.156  0.00  0.00    -0.350 OA
BRANCH  35  36
ATOM     36  C   UNL     1       1.447   8.938   3.511  0.00  0.00    +0.159 C 
ATOM     37  C   UNL     1       0.946   8.933   4.956  0.00  0.00    +0.034 C 
ENDBRANCH  35  36
ENDBRANCH  31  35
ENDBRANCH  30  31
ENDBRANCH  26  30
ENDBRANCH  22  27
ENDBRANCH  21  24
ENDBRANCH   1  21
TORSDOF 12
