REMARK  Name = ZINC09679413
REMARK  5 active torsions:
REMARK  status: ('A' for Active; 'I' for Inactive)
REMARK    1  A    between atoms: C_7  and  C_11
REMARK    2  A    between atoms: C_11  and  C_12
REMARK    3  A    between atoms: C_12  and  N_13
REMARK    4  A    between atoms: N_27  and  C_30
REMARK    5  A    between atoms: C_33  and  N_36
REMARK                            x       y       z     vdW  Elec       q    Type
REMARK                         _______ _______ _______ _____ _____    ______ ____
ROOT
ATOM      1  N   UNL     1      -1.372  -0.511   0.012  0.00  0.00    -0.328 N 
ATOM      2  C   UNL     1      -1.606  -1.870   0.007  0.00  0.00    +0.131 A 
ATOM      3  C   UNL     1      -2.928  -2.380   0.017  0.00  0.00    +0.038 A 
ATOM      4  C   UNL     1      -4.047  -1.540   0.032  0.00  0.00    +0.013 A 
ATOM      5  C   UNL     1      -5.297  -2.086   0.041  0.00  0.00    +0.001 A 
ATOM      6  C   UNL     1      -5.474  -3.466   0.035  0.00  0.00    +0.002 A 
ATOM      7  C   UNL     1      -4.405  -4.312   0.020  0.00  0.00    +0.026 A 
ATOM      8  C   UNL     1      -3.106  -3.784   0.011  0.00  0.00    +0.052 A 
ATOM      9  N   UNL     1      -2.021  -4.573  -0.004  0.00  0.00    -0.327 N 
ATOM     10  C   UNL     1      -0.812  -4.045  -0.013  0.00  0.00    +0.198 A 
ATOM     11  N   UNL     1      -0.600  -2.732  -0.013  0.00  0.00    -0.201 NA
ATOM     12  N   UNL     1       0.281  -4.892  -0.028  0.00  0.00    -0.298 N 
ATOM     13  C   UNL     1       1.154  -4.606  -1.175  0.00  0.00    +0.127 C 
ATOM     14  C   UNL     1       2.388  -5.508  -1.111  0.00  0.00    +0.124 C 
ATOM     15  N   UNL     1       1.964  -6.915  -1.115  0.00  0.00    -0.327 N 
ATOM     16  C   UNL     1       1.091  -7.202   0.032  0.00  0.00    +0.124 C 
ATOM     17  C   UNL     1      -0.143  -6.299  -0.031  0.00  0.00    +0.127 C 
ATOM     18  H   UNL     1      -2.218   0.192   0.024  0.00  0.00    +0.147 HD
ATOM     19  H   UNL     1      -2.136  -5.667  -0.009  0.00  0.00    +0.169 HD
ENDROOT
BRANCH  15  20
ATOM     20  C   UNL     1       3.068  -7.771  -1.130  0.00  0.00    +0.030 A 
ATOM     21  C   UNL     1       3.220  -8.728  -0.134  0.00  0.00    +0.025 A 
ATOM     22  C   UNL     1       4.310  -9.576  -0.156  0.00  0.00    +0.034 A 
ATOM     23  C   UNL     1       5.254  -9.466  -1.160  0.00  0.00    +0.126 A 
ATOM     24  C   UNL     1       5.108  -8.511  -2.149  0.00  0.00    +0.034 A 
ATOM     25  C   UNL     1       4.018  -7.664  -2.137  0.00  0.00    +0.025 A 
BRANCH  23  26
ATOM     26  N   UNL     1       6.423 -10.374  -1.176  0.00  0.00    +0.056 N 
ATOM     27  O   UNL     1       7.256 -10.279  -2.061  0.00  0.00    -0.126 OA
ATOM     28  O   UNL     1       6.553 -11.215  -0.306  0.00  0.00    -0.126 OA
ENDBRANCH  23  26
ENDBRANCH  15  20
BRANCH   1  29
ATOM     29  C   UNL     1       0.002  -0.004   0.002  0.00  0.00    +0.107 C 
BRANCH  29  30
ATOM     30  C   UNL     1      -0.019   1.526   0.010  0.00  0.00    +0.056 C 
BRANCH  30  37
ATOM     31  C   UNL     1       3.061   2.374  -3.421  0.00  0.00    +0.001 A 
ATOM     32  C   UNL     1       4.272   2.862  -2.951  0.00  0.00    +0.002 A 
ATOM     33  C   UNL     1       4.478   3.053  -1.602  0.00  0.00    +0.026 A 
ATOM     34  C   UNL     1       3.463   2.753  -0.700  0.00  0.00    +0.047 A 
ATOM     35  C   UNL     1       2.237   2.259  -1.180  0.00  0.00    +0.003 A 
ATOM     36  C   UNL     1       2.050   2.074  -2.551  0.00  0.00    +0.010 A 
ATOM     37  C   UNL     1       1.395   2.047  -0.000  0.00  0.00    -0.021 A 
ATOM     38  C   UNL     1       2.120   2.412   1.069  0.00  0.00    +0.087 A 
ATOM     39  N   UNL     1       3.360   2.831   0.671  0.00  0.00    -0.360 N 
ATOM     40  H   UNL     1       4.211   3.192   1.267  0.00  0.00    +0.165 HD
ENDBRANCH  30  37
ENDBRANCH  29  30
ENDBRANCH   1  29
TORSDOF 5
