REMARK  Name = ZINC39691349
REMARK  7 active torsions:
REMARK  status: ('A' for Active; 'I' for Inactive)
REMARK    1  A    between atoms: C_10  and  C_11
REMARK    2  A    between atoms: C_11  and  C_12
REMARK    3  A    between atoms: N_14  and  C_15
REMARK    4  A    between atoms: C_15  and  C_16
REMARK    5  A    between atoms: C_16  and  N_17
REMARK    6  A    between atoms: C_18  and  C_20
REMARK    7  A    between atoms: C_31  and  C_33
REMARK                            x       y       z     vdW  Elec       q    Type
REMARK                         _______ _______ _______ _____ _____    ______ ____
ROOT
ATOM      1  N   UNL     1       8.882   4.226   3.846  0.00  0.00    -0.314 N 
ATOM      2  C   UNL     1       9.631   3.380   4.582  0.00  0.00    +0.218 C 
ATOM      3  O   UNL     1       9.988   2.321   4.111  0.00  0.00    -0.275 OA
ATOM      4  H   UNL     1       8.597   5.073   4.223  0.00  0.00    +0.149 HD
ENDROOT
BRANCH   2   5
ATOM      5  C   UNL     1      10.024   3.750   5.988  0.00  0.00    +0.100 C 
ATOM      6  C   UNL     1      10.168   2.482   6.859  0.00  0.00    +0.121 C 
ATOM      7  N   UNL     1      11.612   2.154   6.808  0.00  0.00    -0.295 N 
ATOM      8  C   UNL     1      12.291   3.471   6.871  0.00  0.00    +0.115 C 
ATOM      9  C   UNL     1      11.418   4.399   6.002  0.00  0.00    -0.004 C 
ATOM     10  C   UNL     1      11.979   4.474   4.585  0.00  0.00    -0.010 C 
ATOM     11  C   UNL     1      13.341   5.174   4.617  0.00  0.00    -0.082 C 
ATOM     12  N   UNL     1      13.188   6.522   5.177  0.00  0.00    +0.379 N 
ATOM     13  C   UNL     1      12.736   6.437   6.571  0.00  0.00    -0.082 C 
ATOM     14  C   UNL     1      11.348   5.791   6.622  0.00  0.00    -0.010 C 
ATOM     15  C   UNL     1      12.180   0.935   6.723  0.00  0.00    +0.265 C 
ATOM     16  O   UNL     1      11.485  -0.051   6.578  0.00  0.00    -0.268 OA
ATOM     17  H   UNL     1      14.074   7.002   5.141  0.00  0.00    -0.086 HD
ATOM     18  H   UNL     1      12.508   7.034   4.635  0.00  0.00    -0.086 HD
BRANCH  15  19
ATOM     19  C   UNL     1      13.653   0.797   6.806  0.00  0.00    +0.126 A 
ATOM     20  C   UNL     1      14.243  -0.448   6.602  0.00  0.00    +0.033 A 
ATOM     21  C   UNL     1      15.622  -0.562   6.683  0.00  0.00    +0.004 A 
ATOM     22  C   UNL     1      16.363   0.575   6.965  0.00  0.00    +0.020 A 
ATOM     23  C   UNL     1      15.710   1.782   7.157  0.00  0.00    +0.111 A 
ATOM     24  N   UNL     1      14.400   1.862   7.069  0.00  0.00    -0.250 NA
ENDBRANCH  15  19
ENDBRANCH   2   5
BRANCH   1  25
ATOM     25  C   UNL     1       8.500   3.866   2.478  0.00  0.00    +0.123 C 
BRANCH  25  26
ATOM     26  C   UNL     1       7.659   4.991   1.871  0.00  0.00    +0.123 C 
BRANCH  26  29
ATOM     27  C   UNL     1       6.529   5.477  -0.232  0.00  0.00    +0.217 C 
ATOM     28  O   UNL     1       6.172   6.536   0.238  0.00  0.00    -0.275 OA
ATOM     29  N   UNL     1       7.277   4.631   0.503  0.00  0.00    -0.314 N 
ATOM     30  H   UNL     1       7.563   3.784   0.127  0.00  0.00    +0.149 HD
BRANCH  27  31
ATOM     31  C   UNL     1       6.136   5.106  -1.639  0.00  0.00    +0.131 C 
BRANCH  31  41
ATOM     32  C   UNL     1       7.124   9.506  -4.061  0.00  0.00    +0.001 A 
ATOM     33  C   UNL     1       7.907   8.491  -3.513  0.00  0.00    +0.001 A 
ATOM     34  C   UNL     1       7.335   7.411  -2.914  0.00  0.00    +0.009 A 
ATOM     35  C   UNL     1       5.934   7.314  -2.847  0.00  0.00    -0.014 A 
ATOM     36  C   UNL     1       5.139   8.346  -3.405  0.00  0.00    -0.018 A 
ATOM     37  C   UNL     1       5.766   9.446  -4.015  0.00  0.00    +0.008 A 
ATOM     38  C   UNL     1       3.739   8.249  -3.337  0.00  0.00    +0.008 A 
ATOM     39  C   UNL     1       3.166   7.169  -2.738  0.00  0.00    +0.001 A 
ATOM     40  C   UNL     1       3.949   6.155  -2.190  0.00  0.00    +0.005 A 
ATOM     41  C   UNL     1       5.308   6.214  -2.237  0.00  0.00    -0.031 A 
ENDBRANCH  31  41
ENDBRANCH  27  31
ENDBRANCH  26  29
ENDBRANCH  25  26
ENDBRANCH   1  25
TORSDOF 7
