REMARK  Name = ZINC33034220
REMARK  11 active torsions:
REMARK  status: ('A' for Active; 'I' for Inactive)
REMARK    1  A    between atoms: C_1  and  C_2
REMARK    2  A    between atoms: C_2  and  C_3
REMARK    3  A    between atoms: C_3  and  N_4
REMARK    4  A    between atoms: C_5  and  C_7
REMARK    5  A    between atoms: C_10  and  N_26
REMARK    6  A    between atoms: C_11  and  N_13
REMARK    7  A    between atoms: N_13  and  S_14
REMARK    8  A    between atoms: S_14  and  C_17
REMARK    9  A    between atoms: C_19  and  C_25
REMARK   10  A    between atoms: C_20  and  C_24
REMARK   11  A    between atoms: C_22  and  C_23
REMARK                            x       y       z     vdW  Elec       q    Type
REMARK                         _______ _______ _______ _____ _____    ______ ____
ROOT
ATOM      1  C   UNL     1      -0.532   5.449  -0.953  0.00  0.00    +0.039 A 
ATOM      2  C   UNL     1      -1.796   5.905  -1.335  0.00  0.00    +0.015 A 
ATOM      3  C   UNL     1      -2.777   5.004  -1.686  0.00  0.00    +0.026 A 
ATOM      4  C   UNL     1      -2.514   3.639  -1.660  0.00  0.00    +0.052 A 
ATOM      5  C   UNL     1      -1.251   3.177  -1.278  0.00  0.00    +0.070 A 
ATOM      6  C   UNL     1      -0.266   4.077  -0.920  0.00  0.00    +0.039 A 
ENDROOT
BRANCH   4   7
ATOM      7  N   UNL     1      -3.509   2.731  -2.015  0.00  0.00    -0.332 N 
ATOM      8  C   UNL     1      -4.810   3.402  -2.150  0.00  0.00    +0.086 C 
ATOM      9  C   UNL     1      -5.887   2.361  -2.462  0.00  0.00    -0.063 C 
ATOM     10  N   UNL     1      -5.534   1.649  -3.699  0.00  0.00    +0.381 N 
ATOM     11  C   UNL     1      -4.233   0.979  -3.564  0.00  0.00    -0.063 C 
ATOM     12  C   UNL     1      -3.156   2.020  -3.252  0.00  0.00    +0.086 C 
ATOM     13  H   UNL     1      -6.301   0.892  -3.918  0.00  0.00    -0.086 HD
ATOM     14  H   UNL     1      -5.478   2.366  -4.531  0.00  0.00    -0.086 HD
ENDBRANCH   4   7
BRANCH   1  16
ATOM     15  N   UNL     1       0.260   7.737  -0.604  0.00  0.00    -0.311 N 
ATOM     16  C   UNL     1       0.519   6.415  -0.578  0.00  0.00    +0.244 C 
ATOM     17  O   UNL     1       1.619   6.017  -0.245  0.00  0.00    -0.270 OA
ATOM     18  H   UNL     1      -0.735   8.096  -0.905  0.00  0.00    +0.149 HD
BRANCH  15  19
ATOM     19  C   UNL     1       1.303   8.695  -0.232  0.00  0.00    +0.104 C 
BRANCH  19  21
ATOM     20  C   UNL     1       1.843  11.120   0.042  0.00  0.00    +0.005 C 
ATOM     21  C   UNL     1       0.753  10.118  -0.346  0.00  0.00    +0.015 C 
ENDBRANCH  19  21
ENDBRANCH  15  19
ENDBRANCH   1  16
BRANCH   5  22
ATOM     22  N   UNL     1      -0.987   1.802  -1.252  0.00  0.00    -0.214 N 
ATOM     23  H   UNL     1      -1.777   1.095  -0.957  0.00  0.00    +0.174 HD
BRANCH  22  24
ATOM     24  S   UNL     1       0.515   1.239  -1.666  0.00  0.00    +0.073 S 
ATOM     25  O   UNL     1       0.455  -0.178  -1.581  0.00  0.00    -0.150 OA
ATOM     26  O   UNL     1       0.887   1.916  -2.859  0.00  0.00    -0.150 OA
BRANCH  24  27
ATOM     27  C   UNL     1       1.634   1.772  -0.414  0.00  0.00    +0.112 A 
ATOM     28  C   UNL     1       2.659   2.645  -0.729  0.00  0.00    +0.032 A 
ATOM     29  C   UNL     1       3.534   3.066   0.255  0.00  0.00    -0.046 A 
ATOM     30  C   UNL     1       3.391   2.607   1.551  0.00  0.00    -0.047 A 
ATOM     31  C   UNL     1       2.369   1.730   1.864  0.00  0.00    +0.009 A 
ATOM     32  C   UNL     1       1.491   1.312   0.882  0.00  0.00    -0.024 A 
ATOM     33  C   UNL     1       0.378   0.356   1.223  0.00  0.00    +0.046 C 
ATOM     34  C   UNL     1       4.348   3.063   2.622  0.00  0.00    +0.044 C 
ATOM     35  C   UNL     1       4.647   4.023  -0.087  0.00  0.00    +0.044 C 
ENDBRANCH  24  27
ENDBRANCH  22  24
ENDBRANCH   5  22
TORSDOF 7
