REMARK  Name = ZINC02136575
REMARK  11 active torsions:
REMARK  status: ('A' for Active; 'I' for Inactive)
REMARK    1  A    between atoms: C_1  and  C_2
REMARK    2  A    between atoms: C_2  and  C_4
REMARK    3  A    between atoms: C_2  and  C_34
REMARK    4  A    between atoms: C_4  and  N_5
REMARK    5  A    between atoms: C_6  and  C_8
REMARK    6  A    between atoms: C_8  and  C_10
REMARK    7  A    between atoms: C_8  and  N_14
REMARK    8  A    between atoms: C_10  and  C_11
REMARK    9  A    between atoms: C_11  and  C_12
REMARK   10  A    between atoms: C_11  and  C_13
REMARK   11  A    between atoms: C_17  and  C_33
REMARK                            x       y       z     vdW  Elec       q    Type
REMARK                         _______ _______ _______ _____ _____    ______ ____
ROOT
ATOM      1  N   UNL     1       5.407  -0.555   3.247  0.00  0.00    -0.212 N 
ATOM      2  C   UNL     1       5.945   0.288   4.155  0.00  0.00    +0.253 C 
ATOM      3  O   UNL     1       5.755   1.482   4.250  0.00  0.00    -0.272 OA
ATOM      4  C   UNL     1       6.832  -0.568   5.026  0.00  0.00    +0.153 C 
ATOM      5  C   UNL     1       6.433  -0.482   6.480  0.00  0.00    +0.053 A 
ATOM      6  C   UNL     1       6.129  -1.569   7.225  0.00  0.00    -0.015 A 
ATOM      7  C   UNL     1       5.817  -1.083   8.557  0.00  0.00    +0.003 A 
ATOM      8  C   UNL     1       5.447  -1.737   9.737  0.00  0.00    +0.010 A 
ATOM      9  C   UNL     1       5.220  -0.948  10.837  0.00  0.00    +0.001 A 
ATOM     10  C   UNL     1       5.346   0.431  10.793  0.00  0.00    +0.002 A 
ATOM     11  C   UNL     1       5.712   1.103   9.639  0.00  0.00    +0.026 A 
ATOM     12  C   UNL     1       5.950   0.327   8.507  0.00  0.00    +0.047 A 
ATOM     13  N   UNL     1       6.322   0.654   7.235  0.00  0.00    -0.356 N 
ATOM     14  H   UNL     1       6.483   1.555   6.914  0.00  0.00    +0.166 HD
ATOM     15  C   UNL     1       6.101  -2.999   6.749  0.00  0.00    +0.056 C 
ATOM     16  C   UNL     1       6.818  -3.126   5.396  0.00  0.00    +0.115 C 
ATOM     17  N   UNL     1       6.479  -1.943   4.601  0.00  0.00    -0.266 N 
ATOM     18  C   UNL     1       5.765  -1.828   3.482  0.00  0.00    +0.313 C 
ATOM     19  O   UNL     1       5.477  -2.762   2.759  0.00  0.00    -0.252 OA
ATOM     20  C   UNL     1       8.316  -0.260   4.811  0.00  0.00    +0.048 C 
ENDROOT
BRANCH   1  21
ATOM     21  C   UNL     1       4.536  -0.135   2.147  0.00  0.00    +0.171 C 
BRANCH  21  23
ATOM     22  N   UNL     1       2.202  -0.508   1.419  0.00  0.00    -0.313 N 
ATOM     23  C   UNL     1       3.174  -0.756   2.319  0.00  0.00    +0.234 C 
ATOM     24  O   UNL     1       2.953  -1.479   3.267  0.00  0.00    -0.274 OA
ATOM     25  H   UNL     1       2.379   0.070   0.660  0.00  0.00    +0.149 HD
BRANCH  22  26
ATOM     26  C   UNL     1       0.878  -1.113   1.585  0.00  0.00    +0.112 C 
BRANCH  26  28
ATOM     27  C   UNL     1      -0.263   0.837   0.518  0.00  0.00    +0.014 C 
ATOM     28  C   UNL     1      -0.032  -0.673   0.436  0.00  0.00    +0.033 C 
BRANCH  28  29
ATOM     29  C   UNL     1      -1.353  -1.390   0.540  0.00  0.00    -0.043 A 
ATOM     30  C   UNL     1      -2.142  -1.228   1.664  0.00  0.00    +0.004 A 
ATOM     31  C   UNL     1      -3.354  -1.885   1.759  0.00  0.00    +0.000 A 
ATOM     32  C   UNL     1      -3.778  -2.704   0.729  0.00  0.00    +0.000 A 
ATOM     33  C   UNL     1      -2.991  -2.865  -0.395  0.00  0.00    +0.000 A 
ATOM     34  C   UNL     1      -1.780  -2.205  -0.492  0.00  0.00    +0.004 A 
ENDBRANCH  28  29
ENDBRANCH  26  28
ENDBRANCH  22  26
ENDBRANCH  21  23
BRANCH  21  35
ATOM     35  C   UNL     1       5.140  -0.589   0.816  0.00  0.00    +0.035 C 
BRANCH  35  36
ATOM     36  C   UNL     1       6.492   0.097   0.609  0.00  0.00    -0.015 C 
ATOM     37  C   UNL     1       7.162  -0.465  -0.646  0.00  0.00    +0.007 C 
ATOM     38  C   UNL     1       6.279   1.603   0.443  0.00  0.00    +0.007 C 
ENDBRANCH  35  36
ENDBRANCH  21  35
ENDBRANCH   1  21
TORSDOF 7
