REMARK  Name = ZINC58870680
REMARK  6 active torsions:
REMARK  status: ('A' for Active; 'I' for Inactive)
REMARK    1  A    between atoms: C_1  and  C_2
REMARK    2  A    between atoms: C_2  and  C_24
REMARK    3  A    between atoms: N_3  and  N_4
REMARK    4  A    between atoms: C_5  and  S_7
REMARK    5  A    between atoms: S_7  and  C_8
REMARK    6  A    between atoms: N_13  and  C_16
REMARK                            x       y       z     vdW  Elec       q    Type
REMARK                         _______ _______ _______ _____ _____    ______ ____
ROOT
ATOM      1  N   UNL     1      -0.323   0.838   2.506  0.00  0.00    -0.259 N 
ATOM      2  C   UNL     1      -0.245  -0.030   3.495  0.00  0.00    +0.146 C 
ATOM      3  N   UNL     1      -0.305  -1.376   3.233  0.00  0.00    -0.338 N 
ATOM      4  H   UNL     1      -0.405  -1.689   2.320  0.00  0.00    +0.144 HD
ATOM      5  H   UNL     1      -0.247  -2.015   3.961  0.00  0.00    +0.144 HD
ATOM      6  H   UNL     1      -0.281   1.790   2.691  0.00  0.00    +0.191 HD
ENDROOT
BRANCH   1   9
ATOM      7  C   UNL     1      -0.468   2.760   0.601  0.00  0.00    +0.068 C 
ATOM      8  C   UNL     1      -0.534   1.283   0.313  0.00  0.00    +0.065 C 
ATOM      9  N   UNL     1      -0.456   0.423   1.292  0.00  0.00    -0.177 NA
BRANCH   8  10
ATOM     10  C   UNL     1      -0.686   0.809  -1.072  0.00  0.00    -0.002 A 
ATOM     11  C   UNL     1      -0.764   1.727  -2.124  0.00  0.00    +0.011 A 
ATOM     12  C   UNL     1      -0.906   1.275  -3.419  0.00  0.00    +0.020 A 
ATOM     13  C   UNL     1      -0.973  -0.084  -3.679  0.00  0.00    +0.041 A 
ATOM     14  C   UNL     1      -0.896  -0.999  -2.642  0.00  0.00    +0.020 A 
ATOM     15  C   UNL     1      -0.748  -0.562  -1.343  0.00  0.00    +0.011 A 
ATOM     16 CL   UNL     1      -1.153  -0.643  -5.313  0.00  0.00    -0.084 Cl
ENDBRANCH   8  10
ENDBRANCH   1   9
BRANCH   2  17
ATOM     17  S   UNL     1      -0.063   0.537   5.153  0.00  0.00    -0.078 S 
BRANCH  17  18
ATOM     18  C   UNL     1      -0.001  -0.987   6.135  0.00  0.00    +0.149 C 
ATOM     19  C   UNL     1       0.230  -0.664   7.625  0.00  0.00    +0.120 C 
ATOM     20  C   UNL     1      -1.009  -1.209   8.302  0.00  0.00    +0.228 C 
ATOM     21  O   UNL     1      -1.236  -1.163   9.492  0.00  0.00    -0.275 OA
ATOM     22  N   UNL     1      -1.814  -1.750   7.379  0.00  0.00    -0.209 N 
ATOM     23  C   UNL     1      -1.345  -1.683   6.123  0.00  0.00    +0.240 C 
ATOM     24  O   UNL     1      -1.907  -2.108   5.137  0.00  0.00    -0.274 OA
BRANCH  22  25
ATOM     25  C   UNL     1      -3.045  -2.340   7.698  0.00  0.00    +0.045 A 
ATOM     26  C   UNL     1      -3.220  -3.709   7.546  0.00  0.00    +0.025 A 
ATOM     27  C   UNL     1      -4.433  -4.289   7.861  0.00  0.00    +0.023 A 
ATOM     28  C   UNL     1      -5.475  -3.507   8.327  0.00  0.00    +0.059 A 
ATOM     29  C   UNL     1      -5.304  -2.141   8.480  0.00  0.00    +0.061 A 
ATOM     30  C   UNL     1      -4.089  -1.557   8.171  0.00  0.00    +0.045 A 
ATOM     31 CL   UNL     1      -6.613  -1.162   9.065  0.00  0.00    -0.082 Cl
ATOM     32 CL   UNL     1      -6.999  -4.238   8.722  0.00  0.00    -0.082 Cl
ENDBRANCH  22  25
ENDBRANCH  17  18
ENDBRANCH   2  17
TORSDOF 5
