REMARK  Name = ZINC14079265
REMARK  9 active torsions:
REMARK  status: ('A' for Active; 'I' for Inactive)
REMARK    1  A    between atoms: C_1  and  O_2
REMARK    2  A    between atoms: O_2  and  C_3
REMARK    3  A    between atoms: C_6  and  C_9
REMARK    4  A    between atoms: C_9  and  C_11
REMARK    5  A    between atoms: C_9  and  N_67
REMARK    6  A    between atoms: C_11  and  N_12
REMARK    7  A    between atoms: C_13  and  C_15
REMARK    8  A    between atoms: N_17  and  C_26
REMARK    9  A    between atoms: C_19  and  C_20
REMARK                            x       y       z     vdW  Elec       q    Type
REMARK                         _______ _______ _______ _____ _____    ______ ____
ROOT
ATOM      1  N   UNL     1      -2.939  -1.420   1.992  0.00  0.00    -0.312 N 
ATOM      2  C   UNL     1      -2.231  -0.495   1.315  0.00  0.00    +0.248 C 
ATOM      3  O   UNL     1      -2.579   0.671   1.333  0.00  0.00    -0.270 OA
ATOM      4  H   UNL     1      -2.662  -2.349   1.978  0.00  0.00    +0.149 HD
ENDROOT
BRANCH   2   5
ATOM      5  C   UNL     1      -1.035  -0.894   0.554  0.00  0.00    +0.082 A 
ATOM      6  C   UNL     1      -0.517  -2.168   0.438  0.00  0.00    +0.128 A 
ATOM      7  N   UNL     1       0.576  -2.099  -0.343  0.00  0.00    -0.239 N 
ATOM      8  N   UNL     1       0.779  -0.777  -0.749  0.00  0.00    -0.166 NA
ATOM      9  C   UNL     1      -0.159  -0.018  -0.230  0.00  0.00    +0.107 A 
BRANCH   9  10
ATOM     10  C   UNL     1      -0.309   1.446  -0.409  0.00  0.00    +0.021 A 
ATOM     11  C   UNL     1       0.818   2.269  -0.505  0.00  0.00    +0.013 A 
ATOM     12  C   UNL     1       0.625   3.629  -0.672  0.00  0.00    +0.020 A 
ATOM     13  C   UNL     1      -0.664   4.127  -0.737  0.00  0.00    +0.111 A 
ATOM     14  N   UNL     1      -1.708   3.326  -0.644  0.00  0.00    -0.263 NA
ATOM     15  C   UNL     1      -1.574   2.024  -0.490  0.00  0.00    +0.120 A 
ENDBRANCH   9  10
BRANCH   7  16
ATOM     16  C   UNL     1       1.383  -3.187  -0.699  0.00  0.00    +0.065 A 
ATOM     17  C   UNL     1       1.081  -4.459  -0.234  0.00  0.00    +0.028 A 
ATOM     18  C   UNL     1       1.876  -5.531  -0.591  0.00  0.00    +0.002 A 
ATOM     19  C   UNL     1       2.979  -5.335  -1.403  0.00  0.00    +0.000 A 
ATOM     20  C   UNL     1       3.285  -4.068  -1.863  0.00  0.00    +0.002 A 
ATOM     21  C   UNL     1       2.491  -2.993  -1.514  0.00  0.00    +0.028 A 
ENDBRANCH   7  16
ENDBRANCH   2   5
BRANCH   1  22
ATOM     22  C   UNL     1      -4.129  -1.022   2.749  0.00  0.00    +0.094 C 
BRANCH  22  23
ATOM     23  C   UNL     1      -4.822  -2.269   3.302  0.00  0.00    -0.020 C 
BRANCH  23  29
ATOM     24  C   UNL     1      -5.556  -0.977   5.213  0.00  0.00    -0.078 C 
ATOM     25  C   UNL     1      -6.793  -0.464   5.955  0.00  0.00    -0.019 C 
ATOM     26  C   UNL     1      -7.578  -1.654   6.513  0.00  0.00    -0.004 C 
ATOM     27  C   UNL     1      -7.958  -2.589   5.362  0.00  0.00    -0.019 C 
ATOM     28  C   UNL     1      -6.688  -3.041   4.638  0.00  0.00    -0.078 C 
ATOM     29  N   UNL     1      -5.991  -1.852   4.103  0.00  0.00    +0.385 N 
ATOM     30  H   UNL     1      -6.638  -1.329   3.501  0.00  0.00    -0.081 HD
ENDBRANCH  23  29
BRANCH  23  34
ATOM     31  C   UNL     1      -6.165  -4.708   0.060  0.00  0.00    +0.120 A 
ATOM     32  C   UNL     1      -4.990  -5.023   0.726  0.00  0.00    +0.046 A 
ATOM     33  C   UNL     1      -4.558  -4.233   1.774  0.00  0.00    +0.005 A 
ATOM     34  C   UNL     1      -5.296  -3.129   2.159  0.00  0.00    -0.059 A 
ATOM     35  C   UNL     1      -6.470  -2.816   1.500  0.00  0.00    +0.005 A 
ATOM     36  C   UNL     1      -6.904  -3.599   0.448  0.00  0.00    +0.046 A 
BRANCH  31  38
ATOM     37  C   UNL     1      -7.812  -5.099  -1.610  0.00  0.00    +0.277 C 
ATOM     38  O   UNL     1      -6.593  -5.484  -0.970  0.00  0.00    -0.495 OA
ENDBRANCH  31  38
ENDBRANCH  23  34
ENDBRANCH  22  23
ENDBRANCH   1  22
TORSDOF 8
