REMARK  Name = ZINC00729277
REMARK  15 active torsions:
REMARK  status: ('A' for Active; 'I' for Inactive)
REMARK    1  A    between atoms: C_1  and  C_2
REMARK    2  A    between atoms: C_2  and  C_3
REMARK    3  A    between atoms: C_3  and  C_4
REMARK    4  A    between atoms: C_5  and  C_25
REMARK    5  A    between atoms: C_6  and  C_14
REMARK    6  A    between atoms: C_8  and  C_12
REMARK    7  A    between atoms: C_9  and  N_11
REMARK    8  A    between atoms: C_17  and  O_23
REMARK    9  A    between atoms: C_18  and  C_22
REMARK   10  A    between atoms: C_19  and  O_20
REMARK   11  A    between atoms: O_20  and  C_21
REMARK   12  A    between atoms: O_23  and  C_24
REMARK   13  A    between atoms: C_25  and  O_27
REMARK   14  A    between atoms: O_27  and  C_28
REMARK   15  A    between atoms: C_28  and  C_29
REMARK                            x       y       z     vdW  Elec       q    Type
REMARK                         _______ _______ _______ _____ _____    ______ ____
ROOT
ATOM      1  C   UNL     1       1.238  -2.453  -0.986  0.00  0.00    +0.118 C 
ATOM      2  C   UNL     1       0.118  -2.829  -1.617  0.00  0.00    +0.087 C 
ATOM      3  C   UNL     1      -0.282  -4.277  -1.697  0.00  0.00    +0.108 C 
ATOM      4  C   UNL     1       0.487  -5.079  -0.683  0.00  0.00    +0.098 C 
ATOM      5  C   UNL     1       1.600  -4.573  -0.098  0.00  0.00    +0.198 C 
ATOM      6  O   UNL     1       2.057  -3.342  -0.402  0.00  0.00    -0.445 OA
ENDROOT
BRANCH   3   7
ATOM      7  C   UNL     1       0.014  -4.802  -3.078  0.00  0.00    +0.008 A 
ATOM      8  C   UNL     1       1.288  -4.687  -3.602  0.00  0.00    +0.012 A 
ATOM      9  C   UNL     1       1.563  -5.168  -4.867  0.00  0.00    +0.046 A 
ATOM     10  C   UNL     1       0.560  -5.768  -5.616  0.00  0.00    +0.126 A 
ATOM     11  C   UNL     1      -0.718  -5.885  -5.093  0.00  0.00    +0.033 A 
ATOM     12  C   UNL     1      -0.990  -5.407  -3.820  0.00  0.00    +0.131 A 
ATOM     13  C   UNL     1      -1.808  -6.537  -5.903  0.00  0.00    +0.051 C 
BRANCH  12  14
ATOM     14  O   UNL     1      -2.241  -5.526  -3.302  0.00  0.00    -0.494 OA
ATOM     15  C   UNL     1      -3.154  -4.456  -3.558  0.00  0.00    +0.277 C 
ENDBRANCH  12  14
BRANCH  10  16
ATOM     16  O   UNL     1       0.831  -6.241  -6.861  0.00  0.00    -0.495 OA
ATOM     17  C   UNL     1       2.170  -6.086  -7.336  0.00  0.00    +0.277 C 
ENDBRANCH  10  16
ENDBRANCH   3   7
BRANCH   5  18
ATOM     18  N   UNL     1       2.278  -5.332   0.823  0.00  0.00    -0.328 N 
ATOM     19  H   UNL     1       1.960  -6.220   1.048  0.00  0.00    +0.145 HD
ATOM     20  H   UNL     1       3.075  -4.980   1.249  0.00  0.00    +0.145 HD
ENDBRANCH   5  18
BRANCH   4  21
ATOM     21  C   UNL     1       0.039  -6.393  -0.333  0.00  0.00    +0.101 C 
ATOM     22  N   UNL     1      -0.317  -7.435  -0.055  0.00  0.00    -0.191 NA
ENDBRANCH   4  21
BRANCH   2  23
ATOM     23  C   UNL     1      -0.704  -1.846  -2.220  0.00  0.00    +0.339 C 
ATOM     24  O   UNL     1      -1.710  -1.462  -1.651  0.00  0.00    -0.245 OA
BRANCH  23  25
ATOM     25  O   UNL     1      -0.373  -1.334  -3.424  0.00  0.00    -0.462 OA
BRANCH  25  26
ATOM     26  C   UNL     1      -1.184  -0.268  -3.921  0.00  0.00    +0.229 C 
ATOM     27  C   UNL     1      -0.734   0.098  -5.337  0.00  0.00    +0.048 C 
ENDBRANCH  25  26
ENDBRANCH  23  25
ENDBRANCH   2  23
BRANCH   1  28
ATOM     28  C   UNL     1       1.593  -0.990  -0.936  0.00  0.00    +0.075 C 
BRANCH  28  30
ATOM     29  C   UNL     1       1.379   1.117   0.391  0.00  0.00    +0.004 C 
ATOM     30  C   UNL     1       1.018  -0.369   0.340  0.00  0.00    +0.004 C 
ENDBRANCH  28  30
ENDBRANCH   1  28
TORSDOF 10
