REMARK  Name = ZINC63162427
REMARK  10 active torsions:
REMARK  status: ('A' for Active; 'I' for Inactive)
REMARK    1  A    between atoms: C_1  and  C_2
REMARK    2  A    between atoms: C_2  and  C_3
REMARK    3  A    between atoms: C_6  and  C_9
REMARK    4  A    between atoms: C_9  and  C_10
REMARK    5  A    between atoms: C_9  and  N_27
REMARK    6  A    between atoms: C_10  and  N_11
REMARK    7  A    between atoms: N_14  and  C_15
REMARK    8  A    between atoms: C_17  and  C_23
REMARK    9  A    between atoms: N_27  and  C_28
REMARK   10  A    between atoms: N_27  and  C_29
REMARK                            x       y       z     vdW  Elec       q    Type
REMARK                         _______ _______ _______ _____ _____    ______ ____
ROOT
ATOM      1  N   UNL     1       2.289   0.206  -6.263  0.00  0.00    -0.300 N 
ATOM      2  C   UNL     1       2.559   1.287  -7.022  0.00  0.00    +0.304 C 
ATOM      3  O   UNL     1       3.708   1.549  -7.320  0.00  0.00    -0.253 OA
ATOM      4  N   UNL     1       1.555   2.078  -7.450  0.00  0.00    -0.265 N 
ATOM      5  H   UNL     1       1.372  -0.003  -6.026  0.00  0.00    +0.150 HD
ATOM      6  H   UNL     1       0.634   1.830  -7.273  0.00  0.00    +0.157 HD
ENDROOT
BRANCH   4   7
ATOM      7  C   UNL     1       1.842   3.258  -8.150  0.00  0.00    +0.100 A 
ATOM      8  C   UNL     1       1.307   3.474  -9.391  0.00  0.00    +0.042 A 
ATOM      9  C   UNL     1       1.609   4.663 -10.069  0.00  0.00    +0.073 A 
ATOM     10  C   UNL     1       2.422   5.581  -9.497  0.00  0.00    +0.098 A 
ATOM     11  N   UNL     1       2.955   5.368  -8.265  0.00  0.00    -0.327 N 
ATOM     12  H   UNL     1       3.535   6.038  -7.871  0.00  0.00    +0.168 HD
ATOM     13  C   UNL     1       2.681   4.240  -7.582  0.00  0.00    +0.270 A 
ATOM     14  O   UNL     1       3.162   4.065  -6.474  0.00  0.00    -0.266 OA
BRANCH   9  15
ATOM     15  C   UNL     1       1.030   4.918 -11.437  0.00  0.00    +0.419 C 
ATOM     16  F   UNL     1       1.472   6.160 -11.906  0.00  0.00    -0.166 F 
ATOM     17  F   UNL     1       1.446   3.912 -12.315  0.00  0.00    -0.166 F 
ATOM     18  F   UNL     1      -0.367   4.920 -11.358  0.00  0.00    -0.166 F 
ENDBRANCH   9  15
ENDBRANCH   4   7
BRANCH   1  19
ATOM     19  C   UNL     1       3.381  -0.653  -5.798  0.00  0.00    +0.095 C 
BRANCH  19  20
ATOM     20  C   UNL     1       2.799  -1.865  -5.068  0.00  0.00    -0.021 C 
BRANCH  20  24
ATOM     21  C   UNL     1       0.640  -0.555  -1.623  0.00  0.00    -0.048 A 
ATOM     22  C   UNL     1      -0.039  -0.882  -2.781  0.00  0.00    +0.004 A 
ATOM     23  C   UNL     1       0.659  -1.306  -3.896  0.00  0.00    +0.002 A 
ATOM     24  C   UNL     1       2.038  -1.402  -3.853  0.00  0.00    -0.059 A 
ATOM     25  C   UNL     1       2.717  -1.075  -2.694  0.00  0.00    +0.002 A 
ATOM     26  C   UNL     1       2.019  -0.647  -1.581  0.00  0.00    +0.004 A 
BRANCH  21  28
ATOM     27  C   UNL     1      -0.275   1.429  -0.450  0.00  0.00    +0.009 C 
ATOM     28  C   UNL     1      -0.121  -0.093  -0.407  0.00  0.00    +0.032 C 
ENDBRANCH  21  28
ENDBRANCH  20  24
BRANCH  20  29
ATOM     29  N   UNL     1       3.891  -2.756  -4.652  0.00  0.00    +0.382 N 
ATOM     30  C   UNL     1       3.329  -3.963  -4.030  0.00  0.00    -0.096 C 
ATOM     31  C   UNL     1       4.688  -3.136  -5.826  0.00  0.00    -0.096 C 
ATOM     32  H   UNL     1       4.480  -2.278  -3.986  0.00  0.00    -0.082 HD
ENDBRANCH  20  29
ENDBRANCH  19  20
ENDBRANCH   1  19
TORSDOF 7
