REMARK  Name = ZINC15676070
REMARK  5 active torsions:
REMARK  status: ('A' for Active; 'I' for Inactive)
REMARK    1  A    between atoms: C_1  and  C_2
REMARK    2  A    between atoms: C_2  and  C_4
REMARK    3  A    between atoms: C_7  and  N_10
REMARK    4  A    between atoms: C_22  and  C_24
REMARK    5  A    between atoms: C_26  and  C_29
REMARK                            x       y       z     vdW  Elec       q    Type
REMARK                         _______ _______ _______ _____ _____    ______ ____
ROOT
ATOM      1  N   UNL     1      -4.829  -2.882   0.033  0.00  0.00    -0.269 N 
ATOM      2  C   UNL     1      -4.814  -4.226  -0.071  0.00  0.00    +0.307 C 
ATOM      3  O   UNL     1      -3.755  -4.822  -0.080  0.00  0.00    -0.252 OA
ATOM      4  N   UNL     1      -5.973  -4.907  -0.165  0.00  0.00    -0.267 N 
ATOM      5  C   UNL     1      -7.260  -4.197  -0.272  0.00  0.00    +0.165 C 
ATOM      6  C   UNL     1      -8.230  -4.883   0.661  0.00  0.00    +0.054 A 
ATOM      7  C   UNL     1      -7.985  -6.071   1.256  0.00  0.00    +0.040 A 
ATOM      8  N   UNL     1      -9.079  -6.369   2.011  0.00  0.00    -0.349 N 
ATOM      9  H   UNL     1      -9.204  -7.162   2.556  0.00  0.00    +0.166 HD
ATOM     10  C   UNL     1      -9.957  -5.352   1.856  0.00  0.00    +0.171 A 
ATOM     11  N   UNL     1      -9.438  -4.467   1.046  0.00  0.00    -0.348 N 
ATOM     12  C   UNL     1      -6.721  -6.873   1.088  0.00  0.00    +0.087 C 
ATOM     13  C   UNL     1      -5.983  -6.378  -0.168  0.00  0.00    +0.172 C 
ATOM     14  H   UNL     1      -5.668  -2.416   0.179  0.00  0.00    +0.156 HD
ATOM     15  H   UNL     1      -9.863  -3.640   0.768  0.00  0.00    +0.166 HD
ENDROOT
BRANCH   1  19
ATOM     16  C   UNL     1      -1.285  -0.734  -0.267  0.00  0.00    +0.017 A 
ATOM     17  C   UNL     1      -2.486  -0.176  -0.724  0.00  0.00    +0.013 A 
ATOM     18  C   UNL     1      -3.648  -0.886  -0.624  0.00  0.00    +0.024 A 
ATOM     19  C   UNL     1      -3.641  -2.162  -0.068  0.00  0.00    +0.035 A 
ATOM     20  C   UNL     1      -2.450  -2.720   0.389  0.00  0.00    +0.024 A 
ATOM     21  C   UNL     1      -1.282  -2.020   0.287  0.00  0.00    +0.013 A 
BRANCH  16  23
ATOM     22  C   UNL     1      -0.039   1.409  -0.969  0.00  0.00    +0.091 C 
ATOM     23  C   UNL     1      -0.033   0.026  -0.372  0.00  0.00    +0.160 C 
ATOM     24  O   UNL     1       1.007  -0.461   0.020  0.00  0.00    -0.292 OA
ENDBRANCH  16  23
ENDBRANCH   1  19
BRANCH  13  25
ATOM     25  C   UNL     1      -6.693  -6.874  -1.402  0.00  0.00    +0.249 A 
ATOM     26  N   UNL     1      -6.286  -7.837  -2.179  0.00  0.00    -0.190 NA
ATOM     27  C   UNL     1      -7.160  -8.017  -3.185  0.00  0.00    +0.202 A 
ATOM     28  N   UNL     1      -8.139  -7.156  -3.049  0.00  0.00    -0.056 NA
ATOM     29  O   UNL     1      -7.851  -6.402  -1.881  0.00  0.00    -0.336 OA
BRANCH  27  30
ATOM     30  C   UNL     1      -7.037  -9.023  -4.269  0.00  0.00    +0.023 A 
ATOM     31  C   UNL     1      -5.945  -9.888  -4.298  0.00  0.00    +0.014 A 
ATOM     32  C   UNL     1      -5.834 -10.822  -5.308  0.00  0.00    +0.039 A 
ATOM     33  C   UNL     1      -6.807 -10.900  -6.292  0.00  0.00    +0.123 A 
ATOM     34  C   UNL     1      -7.894 -10.041  -6.267  0.00  0.00    +0.039 A 
ATOM     35  C   UNL     1      -8.015  -9.108  -5.258  0.00  0.00    +0.014 A 
ATOM     36  F   UNL     1      -6.694 -11.816  -7.278  0.00  0.00    -0.205 F 
ENDBRANCH  27  30
ENDBRANCH  13  25
TORSDOF 4
