REMARK  Name = ZINC22932322
REMARK  7 active torsions:
REMARK  status: ('A' for Active; 'I' for Inactive)
REMARK    1  A    between atoms: C_1  and  C_2
REMARK    2  A    between atoms: C_5  and  C_30
REMARK    3  A    between atoms: C_10  and  C_12
REMARK    4  A    between atoms: C_12  and  N_13
REMARK    5  A    between atoms: N_16  and  C_19
REMARK    6  A    between atoms: C_19  and  C_20
REMARK    7  A    between atoms: N_22  and  C_23
REMARK                            x       y       z     vdW  Elec       q    Type
REMARK                         _______ _______ _______ _____ _____    ______ ____
ROOT
ATOM      1  N   UNL     1      -3.311   3.332   3.324  0.00  0.00    -0.298 NA
ATOM      2  C   UNL     1      -1.953   3.646   3.788  0.00  0.00    +0.066 C 
ATOM      3  C   UNL     1      -0.939   3.198   2.732  0.00  0.00    -0.063 C 
ATOM      4  N   UNL     1      -1.090   1.756   2.493  0.00  0.00    +0.387 N 
ATOM      5  C   UNL     1      -2.448   1.442   2.029  0.00  0.00    -0.063 C 
ATOM      6  C   UNL     1      -3.462   1.890   3.084  0.00  0.00    +0.066 C 
ATOM      7  H   UNL     1      -0.928   1.234   3.448  0.00  0.00    -0.081 HD
ENDROOT
BRANCH   1   8
ATOM      8  C   UNL     1      -4.318   3.815   4.277  0.00  0.00    +0.180 C 
BRANCH   8  16
ATOM      9  C   UNL     1      -6.563   5.086   8.555  0.00  0.00    +0.009 C 
ATOM     10  C   UNL     1      -5.591   5.734   7.567  0.00  0.00    +0.004 C 
ATOM     11  C   UNL     1      -5.734   7.257   7.635  0.00  0.00    +0.009 C 
ATOM     12  C   UNL     1      -4.739   7.907   6.670  0.00  0.00    +0.004 C 
ATOM     13  C   UNL     1      -5.052   7.456   5.240  0.00  0.00    +0.111 C 
ATOM     14  N   UNL     1      -5.060   5.988   5.199  0.00  0.00    -0.300 N 
ATOM     15  C   UNL     1      -5.918   5.259   6.143  0.00  0.00    +0.111 C 
ATOM     16  C   UNL     1      -4.299   5.322   4.308  0.00  0.00    +0.230 C 
ATOM     17  O   UNL     1      -3.599   5.935   3.530  0.00  0.00    -0.274 OA
ATOM     18  C   UNL     1      -3.317   7.483   7.040  0.00  0.00    +0.009 C 
ENDBRANCH   8  16
ENDBRANCH   1   8
BRANCH   4  19
ATOM     19  C   UNL     1      -0.082   1.273   1.539  0.00  0.00    +0.019 C 
BRANCH  19  20
ATOM     20  C   UNL     1      -0.106  -0.234   1.504  0.00  0.00    +0.201 C 
ATOM     21  O   UNL     1      -0.885  -0.844   2.205  0.00  0.00    -0.278 OA
ATOM     22  N   UNL     1       0.739  -0.902   0.695  0.00  0.00    -0.286 N 
ATOM     23  H   UNL     1       1.385  -0.349  -0.004  0.00  0.00    +0.155 HD
BRANCH  22  24
ATOM     24  C   UNL     1       0.795  -2.300   0.743  0.00  0.00    +0.047 A 
ATOM     25  C   UNL     1      -0.326  -3.029   1.115  0.00  0.00    +0.024 A 
ATOM     26  C   UNL     1      -0.269  -4.408   1.157  0.00  0.00    +0.002 A 
ATOM     27  C   UNL     1       0.907  -5.063   0.839  0.00  0.00    +0.001 A 
ATOM     28  C   UNL     1       2.027  -4.340   0.473  0.00  0.00    +0.016 A 
ATOM     29  C   UNL     1       1.975  -2.960   0.424  0.00  0.00    +0.035 A 
ATOM     30  I   UNL     1       3.673  -1.865  -0.130  0.00  0.00    -0.042 I 
ENDBRANCH  22  24
ENDBRANCH  19  20
ENDBRANCH   4  19
TORSDOF 5
