REMARK  Name = ZINC66413610
REMARK  4 active torsions:
REMARK  status: ('A' for Active; 'I' for Inactive)
REMARK    1  A    between atoms: C_1  and  C_2
REMARK    2  A    between atoms: C_2  and  C_3
REMARK    3  A    between atoms: C_6  and  C_28
REMARK    4  A    between atoms: N_17  and  C_20
REMARK                            x       y       z     vdW  Elec       q    Type
REMARK                         _______ _______ _______ _____ _____    ______ ____
ROOT
ATOM      1  C   UNL     1       3.631  -1.507   0.413  0.00  0.00    +0.232 C 
ATOM      2  O   UNL     1       4.459  -0.838  -0.167  0.00  0.00    -0.274 OA
ATOM      3  N   UNL     1       3.109  -2.598  -0.182  0.00  0.00    -0.215 N 
ATOM      4  C   UNL     1       3.462  -3.086  -1.522  0.00  0.00    +0.134 C 
ATOM      5  C   UNL     1       2.593  -4.342  -1.716  0.00  0.00    +0.082 C 
ATOM      6  C   UNL     1       1.805  -4.453  -0.430  0.00  0.00    +0.041 C 
ATOM      7  N   UNL     1       2.154  -3.443   0.380  0.00  0.00    -0.264 N 
ATOM      8  C   UNL     1       0.880  -5.437  -0.136  0.00  0.00    +0.118 C 
ATOM      9  C   UNL     1       0.573  -6.516  -1.093  0.00  0.00    +0.258 C 
ATOM     10  N   UNL     1      -0.340  -7.442  -0.738  0.00  0.00    -0.235 N 
ATOM     11  H   UNL     1      -0.554  -8.159  -1.356  0.00  0.00    +0.159 HD
ATOM     12  C   UNL     1      -0.960  -7.396   0.450  0.00  0.00    +0.320 C 
ATOM     13  O   UNL     1      -1.772  -8.262   0.709  0.00  0.00    -0.251 OA
ATOM     14  N   UNL     1      -0.731  -6.446   1.367  0.00  0.00    -0.190 N 
ATOM     15  C   UNL     1       0.161  -5.458   1.151  0.00  0.00    +0.265 C 
ATOM     16  O   UNL     1       0.364  -4.604   1.993  0.00  0.00    -0.269 OA
ATOM     17  O   UNL     1       1.129  -6.568  -2.174  0.00  0.00    -0.270 OA
ATOM     18  H   UNL     1       1.779  -3.313   1.265  0.00  0.00    +0.170 HD
ENDROOT
BRANCH   4  19
ATOM     19  C   UNL     1       4.925  -3.440  -1.585  0.00  0.00    +0.000 A 
ATOM     20  C   UNL     1       5.711  -3.773  -0.548  0.00  0.00    +0.089 A 
ATOM     21  N   UNL     1       6.981  -4.030  -0.989  0.00  0.00    -0.360 N 
ATOM     22  H   UNL     1       7.725  -4.290  -0.423  0.00  0.00    +0.165 HD
ATOM     23  C   UNL     1       7.045  -3.864  -2.354  0.00  0.00    +0.047 A 
ATOM     24  C   UNL     1       5.758  -3.494  -2.788  0.00  0.00    +0.005 A 
ATOM     25  C   UNL     1       5.521  -3.262  -4.144  0.00  0.00    +0.010 A 
ATOM     26  C   UNL     1       6.539  -3.399  -5.045  0.00  0.00    +0.001 A 
ATOM     27  C   UNL     1       7.809  -3.768  -4.622  0.00  0.00    +0.002 A 
ATOM     28  C   UNL     1       8.068  -3.993  -3.288  0.00  0.00    +0.026 A 
ENDBRANCH   4  19
BRANCH  14  29
ATOM     29  C   UNL     1      -1.429  -6.484   2.582  0.00  0.00    +0.047 A 
ATOM     30  C   UNL     1      -2.648  -5.829   2.704  0.00  0.00    +0.024 A 
ATOM     31  C   UNL     1      -3.334  -5.867   3.901  0.00  0.00    +0.003 A 
ATOM     32  C   UNL     1      -2.810  -6.557   4.979  0.00  0.00    +0.020 A 
ATOM     33  C   UNL     1      -1.597  -7.211   4.861  0.00  0.00    +0.043 A 
ATOM     34  C   UNL     1      -0.908  -7.181   3.663  0.00  0.00    +0.044 A 
ATOM     35 CL   UNL     1      -0.941  -8.075   6.217  0.00  0.00    -0.083 Cl
ENDBRANCH  14  29
BRANCH   1  37
ATOM     36  C   UNL     1       3.925   0.147   2.237  0.00  0.00    +0.013 C 
ATOM     37  C   UNL     1       3.184  -1.118   1.799  0.00  0.00    +0.094 C 
ENDBRANCH   1  37
TORSDOF 3
