REMARK  Name = ZINC29493012
REMARK  8 active torsions:
REMARK  status: ('A' for Active; 'I' for Inactive)
REMARK    1  A    between atoms: C_3  and  C_9
REMARK    2  A    between atoms: N_11  and  C_12
REMARK    3  A    between atoms: C_12  and  C_13
REMARK    4  A    between atoms: C_13  and  C_14
REMARK    5  A    between atoms: C_14  and  O_16
REMARK    6  A    between atoms: O_16  and  C_17
REMARK    7  A    between atoms: C_17  and  C_18
REMARK    8  A    between atoms: N_20  and  C_21
REMARK                            x       y       z     vdW  Elec       q    Type
REMARK                         _______ _______ _______ _____ _____    ______ ____
ROOT
ATOM      1  O   UNL     1       4.890   0.852  -0.061  0.00  0.00    -0.455 OA
ENDROOT
BRANCH   1   2
ATOM      2  C   UNL     1       3.718   1.507  -0.057  0.00  0.00    +0.309 C 
ATOM      3  O   UNL     1       3.701   2.715  -0.055  0.00  0.00    -0.251 OA
BRANCH   2   4
ATOM      4  C   UNL     1       2.424   0.735  -0.054  0.00  0.00    +0.139 C 
BRANCH   4   5
ATOM      5  C   UNL     1       1.247   1.713  -0.049  0.00  0.00    +0.115 C 
BRANCH   5   8
ATOM      6  C   UNL     1      -1.188   1.621  -0.047  0.00  0.00    +0.247 C 
ATOM      7  O   UNL     1      -1.205   2.836  -0.045  0.00  0.00    -0.270 OA
ATOM      8  N   UNL     1      -0.011   0.963  -0.046  0.00  0.00    -0.311 N 
ATOM      9  H   UNL     1       0.004  -0.137  -0.043  0.00  0.00    +0.149 HD
BRANCH   6  12
ATOM     10  C   UNL     1      -3.626  -1.232  -0.054  0.00  0.00    +0.039 A 
ATOM     11  C   UNL     1      -2.439  -0.532  -0.052  0.00  0.00    +0.019 A 
ATOM     12  C   UNL     1      -2.455   0.865  -0.050  0.00  0.00    +0.072 A 
ATOM     13  C   UNL     1      -3.679   1.545  -0.045  0.00  0.00    +0.138 A 
ATOM     14  C   UNL     1      -4.861   0.830  -0.053  0.00  0.00    +0.077 A 
ATOM     15  C   UNL     1      -4.836  -0.555  -0.054  0.00  0.00    +0.126 A 
ATOM     16  F   UNL     1      -5.995  -1.248  -0.056  0.00  0.00    -0.205 F 
ATOM     17  F   UNL     1      -3.703   2.895  -0.038  0.00  0.00    -0.205 F 
ENDBRANCH   6  12
ENDBRANCH   5   8
ENDBRANCH   4   5
ENDBRANCH   2   4
ENDBRANCH   1   2
BRANCH   1  18
ATOM     18  C   UNL     1       6.096   1.660  -0.064  0.00  0.00    +0.328 C 
BRANCH  18  19
ATOM     19  C   UNL     1       7.304   0.758  -0.069  0.00  0.00    +0.255 C 
ATOM     20  O   UNL     1       7.162  -0.446  -0.070  0.00  0.00    -0.272 OA
ATOM     21  N   UNL     1       8.542   1.291  -0.073  0.00  0.00    -0.282 N 
ATOM     22  H   UNL     1       8.672   2.381  -0.146  0.00  0.00    +0.155 HD
BRANCH  21  23
ATOM     23  C   UNL     1       9.664   0.456   0.018  0.00  0.00    +0.051 A 
ATOM     24  C   UNL     1       9.648  -0.796  -0.580  0.00  0.00    +0.073 A 
ATOM     25  C   UNL     1      10.758  -1.622  -0.491  0.00  0.00    +0.164 A 
ATOM     26  C   UNL     1      11.888  -1.193   0.197  0.00  0.00    +0.163 A 
ATOM     27  C   UNL     1      11.901   0.059   0.794  0.00  0.00    +0.066 A 
ATOM     28  C   UNL     1      10.795   0.884   0.701  0.00  0.00    +0.043 A 
ATOM     29 BR   UNL     1      10.820   2.592   1.511  0.00  0.00    -0.048 Br
ATOM     30  O   UNL     1      12.989  -1.988   0.291  0.00  0.00    -0.485 OA
ATOM     31  C   UNL     1      12.805  -3.379   0.004  0.00  0.00    +0.270 C 
ATOM     32  C   UNL     1      11.984  -3.498  -1.287  0.00  0.00    +0.270 C 
ATOM     33  O   UNL     1      10.725  -2.849  -1.079  0.00  0.00    -0.485 OA
ENDBRANCH  21  23
ENDBRANCH  18  19
ENDBRANCH   1  18
TORSDOF 8
