REMARK  Name = ZINC21581280
REMARK  13 active torsions:
REMARK  status: ('A' for Active; 'I' for Inactive)
REMARK    1  A    between atoms: C_1  and  C_2
REMARK    2  A    between atoms: C_2  and  C_3
REMARK    3  A    between atoms: C_3  and  C_4
REMARK    4  A    between atoms: C_4  and  N_5
REMARK    5  A    between atoms: C_6  and  N_30
REMARK    6  A    between atoms: C_7  and  N_14
REMARK    7  A    between atoms: N_14  and  C_15
REMARK    8  A    between atoms: C_15  and  C_16
REMARK    9  A    between atoms: C_17  and  C_19
REMARK   10  A    between atoms: C_19  and  N_20
REMARK   11  A    between atoms: N_20  and  C_21
REMARK   12  A    between atoms: N_20  and  C_22
REMARK   13  A    between atoms: C_22  and  C_23
REMARK                            x       y       z     vdW  Elec       q    Type
REMARK                         _______ _______ _______ _____ _____    ______ ____
ROOT
ATOM      1  N   UNL     1      -0.862   0.873  -4.741  0.00  0.00    -0.266 N 
ATOM      2  C   UNL     1      -1.064   1.544  -3.589  0.00  0.00    +0.203 C 
ATOM      3  O   UNL     1      -1.929   2.393  -3.525  0.00  0.00    -0.277 OA
ENDROOT
BRANCH   1   6
ATOM      4  N   UNL     1      -3.868   0.991  -6.851  0.00  0.00    -0.280 N 
ATOM      5  C   UNL     1      -3.059   0.771  -5.761  0.00  0.00    +0.127 A 
ATOM      6  C   UNL     1      -1.718   1.087  -5.842  0.00  0.00    +0.140 A 
ATOM      7  C   UNL     1      -1.220   1.631  -7.041  0.00  0.00    +0.277 A 
ATOM      8  O   UNL     1      -0.041   1.924  -7.139  0.00  0.00    -0.266 OA
ATOM      9  N   UNL     1      -2.055   1.822  -8.082  0.00  0.00    -0.273 N 
ATOM     10  H   UNL     1      -1.672   2.238  -9.025  0.00  0.00    +0.173 HD
ATOM     11  C   UNL     1      -3.359   1.508  -7.983  0.00  0.00    +0.331 A 
ATOM     12  O   UNL     1      -4.091   1.695  -8.936  0.00  0.00    -0.246 OA
BRANCH   5  13
ATOM     13  N   UNL     1      -3.579   0.243  -4.604  0.00  0.00    -0.343 N 
ATOM     14  H   UNL     1      -2.926   0.069  -3.736  0.00  0.00    +0.144 HD
ATOM     15  H   UNL     1      -4.649  -0.007  -4.546  0.00  0.00    +0.144 HD
ENDBRANCH   5  13
BRANCH   4  16
ATOM     16  C   UNL     1      -5.294   0.661  -6.778  0.00  0.00    +0.128 C 
BRANCH  16  17
ATOM     17  C   UNL     1      -6.074   1.877  -6.273  0.00  0.00    +0.021 C 
BRANCH  17  19
ATOM     18  C   UNL     1      -8.342   2.749  -5.692  0.00  0.00    +0.004 C 
ATOM     19  C   UNL     1      -7.562   1.533  -6.197  0.00  0.00    -0.002 C 
ENDBRANCH  17  19
ENDBRANCH  16  17
ENDBRANCH   4  16
ENDBRANCH   1   6
BRANCH   1  20
ATOM     20  C   UNL     1       0.246  -0.079  -4.850  0.00  0.00    +0.110 C 
ATOM     21  C   UNL     1      -0.246  -1.480  -4.481  0.00  0.00    +0.025 C 
ENDBRANCH   1  20
BRANCH   2  22
ATOM     22  C   UNL     1      -0.215   1.241  -2.381  0.00  0.00    +0.019 C 
BRANCH  22  23
ATOM     23  N   UNL     1      -0.630   2.100  -1.263  0.00  0.00    +0.386 N 
ATOM     24  C   UNL     1      -0.340   3.511  -1.548  0.00  0.00    -0.095 C 
ATOM     25  H   UNL     1      -1.718   1.996  -1.143  0.00  0.00    -0.081 HD
BRANCH  23  26
ATOM     26  C   UNL     1       0.006   1.675  -0.009  0.00  0.00    -0.043 C 
BRANCH  26  27
ATOM     27  C   UNL     1      -0.621   2.410   1.147  0.00  0.00    -0.064 A 
ATOM     28  C   UNL     1      -0.095   3.618   1.565  0.00  0.00    +0.003 A 
ATOM     29  C   UNL     1      -0.673   4.295   2.622  0.00  0.00    +0.015 A 
ATOM     30  C   UNL     1      -1.772   3.759   3.268  0.00  0.00    +0.018 A 
ATOM     31  C   UNL     1      -2.296   2.548   2.852  0.00  0.00    +0.015 A 
ATOM     32  C   UNL     1      -1.720   1.874   1.792  0.00  0.00    +0.003 A 
ATOM     33 BR   UNL     1      -2.560   4.682   4.718  0.00  0.00    -0.050 Br
ENDBRANCH  26  27
ENDBRANCH  23  26
ENDBRANCH  22  23
ENDBRANCH   2  22
TORSDOF 10
