REMARK  Name = ZINC10891845
REMARK  11 active torsions:
REMARK  status: ('A' for Active; 'I' for Inactive)
REMARK    1  A    between atoms: C_1  and  C_2
REMARK    2  A    between atoms: C_2  and  C_3
REMARK    3  A    between atoms: C_2  and  C_4
REMARK    4  A    between atoms: C_4  and  C_6
REMARK    5  A    between atoms: C_4  and  N_17
REMARK    6  A    between atoms: N_8  and  C_9
REMARK    7  A    between atoms: C_14  and  C_15
REMARK    8  A    between atoms: C_14  and  C_16
REMARK    9  A    between atoms: C_14  and  N_57
REMARK   10  A    between atoms: N_17  and  S_18
REMARK   11  A    between atoms: S_18  and  C_21
REMARK                            x       y       z     vdW  Elec       q    Type
REMARK                         _______ _______ _______ _____ _____    ______ ____
ROOT
ATOM      1  C   UNL     1       1.253   1.978   0.068  0.00  0.00    +0.165 C 
ENDROOT
BRANCH   1   2
ATOM      2  C   UNL     1      -0.068   1.297   0.316  0.00  0.00    +0.232 C 
ATOM      3  O   UNL     1      -0.113   0.093   0.453  0.00  0.00    -0.274 OA
ATOM      4  N   UNL     1      -1.200   2.026   0.380  0.00  0.00    -0.311 N 
ATOM      5  H   UNL     1      -1.164   2.989   0.271  0.00  0.00    +0.149 HD
BRANCH   4   6
ATOM      6  C   UNL     1      -2.485   1.363   0.616  0.00  0.00    +0.069 C 
ATOM      7  C   UNL     1      -3.060   0.873  -0.716  0.00  0.00    +0.003 C 
ATOM      8  C   UNL     1      -4.430   0.236  -0.472  0.00  0.00    -0.077 C 
ATOM      9  C   UNL     1      -4.822   1.675   1.438  0.00  0.00    -0.077 C 
ATOM     10  C   UNL     1      -3.464   2.355   1.250  0.00  0.00    +0.003 C 
ATOM     11  N   UNL     1      -5.331   1.249   0.117  0.00  0.00    +0.381 N 
ATOM     12  H   UNL     1      -5.367   2.065  -0.505  0.00  0.00    -0.081 HD
BRANCH  11  13
ATOM     13  C   UNL     1      -6.693   0.692   0.257  0.00  0.00    -0.075 C 
ATOM     14  C   UNL     1      -7.186   0.234  -1.117  0.00  0.00    -0.014 C 
ATOM     15  C   UNL     1      -6.691  -0.497   1.220  0.00  0.00    -0.014 C 
ENDBRANCH  11  13
ENDBRANCH   4   6
ENDBRANCH   1   2
BRANCH   1  17
ATOM     16  C   UNL     1       2.501   3.501  -1.470  0.00  0.00    +0.009 C 
ATOM     17  C   UNL     1       1.204   2.713  -1.273  0.00  0.00    +0.010 C 
ATOM     18  C   UNL     1       1.047   1.698  -2.406  0.00  0.00    +0.009 C 
ENDBRANCH   1  17
BRANCH   1  19
ATOM     19  N   UNL     1       2.321   0.976   0.036  0.00  0.00    -0.178 NA
ATOM     20  H   UNL     1       2.313   0.280  -0.640  0.00  0.00    +0.149 HD
BRANCH  19  21
ATOM     21  S   UNL     1       3.541   1.029   1.155  0.00  0.00    +0.059 S 
ATOM     22  O   UNL     1       4.390  -0.077   0.883  0.00  0.00    -0.153 OA
ATOM     23  O   UNL     1       4.016   2.368   1.174  0.00  0.00    -0.153 OA
BRANCH  21  24
ATOM     24  C   UNL     1       2.814   0.731   2.732  0.00  0.00    +0.105 A 
ATOM     25  C   UNL     1       2.354   1.790   3.493  0.00  0.00    +0.030 A 
ATOM     26  C   UNL     1       1.779   1.556   4.728  0.00  0.00    +0.022 A 
ATOM     27  C   UNL     1       1.674   0.263   5.208  0.00  0.00    +0.041 A 
ATOM     28  C   UNL     1       2.139  -0.796   4.449  0.00  0.00    +0.022 A 
ATOM     29  C   UNL     1       2.709  -0.562   3.211  0.00  0.00    +0.030 A 
ATOM     30 CL   UNL     1       0.957  -0.031   6.761  0.00  0.00    -0.084 Cl
ENDBRANCH  21  24
ENDBRANCH  19  21
ENDBRANCH   1  19
TORSDOF 7
