REMARK  Name = ZINC32889200
REMARK  6 active torsions:
REMARK  status: ('A' for Active; 'I' for Inactive)
REMARK    1  A    between atoms: C_1  and  C_2
REMARK    2  A    between atoms: C_2  and  C_4
REMARK    3  A    between atoms: C_2  and  N_13
REMARK    4  A    between atoms: C_14  and  C_16
REMARK    5  A    between atoms: C_20  and  C_27
REMARK    6  A    between atoms: C_23  and  C_26
REMARK                            x       y       z     vdW  Elec       q    Type
REMARK                         _______ _______ _______ _____ _____    ______ ____
ROOT
ATOM      1  N   UNL     1      -1.372  -0.511   0.012  0.00  0.00    -0.308 N 
ATOM      2  C   UNL     1      -2.051  -0.643  -1.145  0.00  0.00    +0.220 C 
ATOM      3  O   UNL     1      -1.524  -0.341  -2.194  0.00  0.00    -0.275 OA
ATOM      4  H   UNL     1      -1.794  -0.752   0.852  0.00  0.00    +0.149 HD
ENDROOT
BRANCH   2   5
ATOM      5  C   UNL     1      -3.465  -1.164  -1.134  0.00  0.00    +0.048 C 
ATOM      6  C   UNL     1      -4.344  -0.237  -0.293  0.00  0.00    +0.019 C 
ATOM      7  C   UNL     1      -5.779  -0.766  -0.282  0.00  0.00    -0.009 C 
ATOM      8  C   UNL     1      -6.315  -0.817  -1.714  0.00  0.00    +0.010 C 
ATOM      9  C   UNL     1      -5.436  -1.745  -2.555  0.00  0.00    -0.030 C 
ATOM     10  C   UNL     1      -4.000  -1.215  -2.566  0.00  0.00    +0.023 C 
ATOM     11  C   UNL     1      -5.456  -3.151  -1.953  0.00  0.00    +0.013 C 
ATOM     12  C   UNL     1      -4.920  -3.100  -0.521  0.00  0.00    -0.030 C 
ATOM     13  C   UNL     1      -5.800  -2.173   0.320  0.00  0.00    +0.010 C 
ATOM     14  C   UNL     1      -3.485  -2.571  -0.532  0.00  0.00    +0.023 C 
ATOM     15  C   UNL     1      -4.940  -4.507   0.082  0.00  0.00    +0.011 C 
ATOM     16  C   UNL     1      -5.971  -1.796  -3.988  0.00  0.00    +0.011 C 
ENDBRANCH   2   5
BRANCH   1  18
ATOM     17  C   UNL     1      -0.019   1.526   0.010  0.00  0.00    +0.033 C 
ATOM     18  C   UNL     1       0.002  -0.004   0.002  0.00  0.00    +0.100 C 
BRANCH  18  19
ATOM     19  C   UNL     1       0.731  -0.503   1.223  0.00  0.00    -0.024 A 
ATOM     20  C   UNL     1       0.079  -0.558   2.441  0.00  0.00    +0.009 A 
ATOM     21  C   UNL     1       0.744  -1.016   3.564  0.00  0.00    +0.050 A 
ATOM     22  C   UNL     1       2.065  -1.420   3.470  0.00  0.00    +0.166 A 
ATOM     23  C   UNL     1       2.722  -1.365   2.243  0.00  0.00    +0.167 A 
ATOM     24  C   UNL     1       2.048  -0.911   1.121  0.00  0.00    +0.055 A 
ATOM     25  O   UNL     1       4.000  -1.813   2.412  0.00  0.00    -0.453 OA
ATOM     26  C   UNL     1       4.243  -1.757   3.830  0.00  0.00    +0.466 C 
ATOM     27  O   UNL     1       2.932  -1.903   4.408  0.00  0.00    -0.453 OA
ENDBRANCH  18  19
ENDBRANCH   1  18
TORSDOF 3
