REMARK  Name = ZINC12006831
REMARK  9 active torsions:
REMARK  status: ('A' for Active; 'I' for Inactive)
REMARK    1  A    between atoms: C_1  and  C_2
REMARK    2  A    between atoms: C_2  and  C_3
REMARK    3  A    between atoms: C_12  and  N_21
REMARK    4  A    between atoms: C_14  and  C_16
REMARK    5  A    between atoms: C_22  and  C_24
REMARK    6  A    between atoms: C_24  and  C_25
REMARK    7  A    between atoms: C_24  and  C_26
REMARK    8  A    between atoms: C_24  and  O_27
REMARK    9  A    between atoms: O_27  and  C_28
REMARK                            x       y       z     vdW  Elec       q    Type
REMARK                         _______ _______ _______ _____ _____    ______ ____
ROOT
ATOM      1  C   UNL     1      -4.449   5.111  -0.705  0.00  0.00    +0.050 A 
ATOM      2  C   UNL     1      -4.141   6.416  -0.957  0.00  0.00    +0.093 A 
ATOM      3  C   UNL     1      -2.808   6.753  -1.258  0.00  0.00    +0.253 A 
ATOM      4  O   UNL     1      -2.497   7.910  -1.489  0.00  0.00    -0.268 OA
ATOM      5  N   UNL     1      -1.881   5.772  -1.283  0.00  0.00    -0.291 N 
ATOM      6  H   UNL     1      -0.956   5.982  -1.484  0.00  0.00    +0.172 HD
ATOM      7  C   UNL     1      -2.249   4.488  -1.028  0.00  0.00    +0.234 A 
ATOM      8  N   UNL     1      -3.497   4.180  -0.747  0.00  0.00    -0.217 NA
ATOM      9  N   UNL     1      -1.295   3.490  -1.060  0.00  0.00    -0.184 N 
ATOM     10  C   UNL     1      -1.514   2.162  -0.827  0.00  0.00    +0.132 A 
ATOM     11  C   UNL     1      -0.325   1.520  -0.951  0.00  0.00    +0.077 A 
ATOM     12  C   UNL     1       0.653   2.483  -1.279  0.00  0.00    +0.130 A 
ATOM     13  N   UNL     1       0.066   3.661  -1.343  0.00  0.00    -0.159 NA
ENDROOT
BRANCH  12  14
ATOM     14  C   UNL     1       2.088   2.216  -1.511  0.00  0.00    +0.155 A 
ATOM     15  C   UNL     1       3.030   3.142  -1.833  0.00  0.00    +0.051 A 
ATOM     16  C   UNL     1       4.252   2.452  -1.955  0.00  0.00    +0.042 A 
ATOM     17  C   UNL     1       3.997   1.151  -1.714  0.00  0.00    +0.196 A 
ATOM     18  O   UNL     1       2.688   1.012  -1.446  0.00  0.00    -0.461 OA
ENDBRANCH  12  14
BRANCH  10  19
ATOM     19  N   UNL     1      -2.738   1.573  -0.515  0.00  0.00    -0.267 N 
ATOM     20  C   UNL     1      -2.811   0.244  -0.304  0.00  0.00    +0.262 C 
ATOM     21  O   UNL     1      -1.813  -0.440  -0.386  0.00  0.00    -0.271 OA
ATOM     22  H   UNL     1      -3.536   2.119  -0.449  0.00  0.00    +0.156 HD
BRANCH  20  23
ATOM     23  C   UNL     1      -4.135  -0.393   0.034  0.00  0.00    +0.180 C 
ATOM     24  C   UNL     1      -4.679   0.217   1.327  0.00  0.00    +0.065 C 
ATOM     25  C   UNL     1      -5.126  -0.144  -1.105  0.00  0.00    +0.065 C 
BRANCH  23  26
ATOM     26  O   UNL     1      -3.955  -1.800   0.209  0.00  0.00    -0.477 OA
BRANCH  26  27
ATOM     27  C   UNL     1      -3.109  -2.196   1.197  0.00  0.00    +0.122 A 
ATOM     28  C   UNL     1      -2.378  -1.252   1.905  0.00  0.00    +0.047 A 
ATOM     29  C   UNL     1      -1.523  -1.656   2.912  0.00  0.00    +0.023 A 
ATOM     30  C   UNL     1      -1.387  -3.001   3.207  0.00  0.00    +0.041 A 
ATOM     31  C   UNL     1      -2.111  -3.943   2.499  0.00  0.00    +0.023 A 
ATOM     32  C   UNL     1      -2.971  -3.543   1.495  0.00  0.00    +0.047 A 
ATOM     33 CL   UNL     1      -0.307  -3.506   4.469  0.00  0.00    -0.084 Cl
ENDBRANCH  26  27
ENDBRANCH  23  26
ENDBRANCH  20  23
ENDBRANCH  10  19
BRANCH   1  35
ATOM     34  C   UNL     1      -6.577   4.263  -1.655  0.00  0.00    +0.010 C 
ATOM     35  C   UNL     1      -5.868   4.722  -0.380  0.00  0.00    +0.052 C 
ENDBRANCH   1  35
TORSDOF 6
