REMARK  Name = ZINC44737090
REMARK  7 active torsions:
REMARK  status: ('A' for Active; 'I' for Inactive)
REMARK    1  A    between atoms: C_1  and  C_2
REMARK    2  A    between atoms: C_10  and  C_12
REMARK    3  A    between atoms: C_12  and  C_13
REMARK    4  A    between atoms: C_12  and  N_14
REMARK    5  A    between atoms: C_15  and  C_17
REMARK    6  A    between atoms: C_27  and  C_29
REMARK    7  A    between atoms: C_34  and  C_35
REMARK                            x       y       z     vdW  Elec       q    Type
REMARK                         _______ _______ _______ _____ _____    ______ ____
ROOT
ATOM      1  C   UNL     1      -1.379  -8.648   1.654  0.00  0.00    +0.100 C 
ATOM      2  C   UNL     1      -0.469  -9.123   0.499  0.00  0.00    +0.121 C 
ATOM      3  N   UNL     1       0.012 -10.458   0.926  0.00  0.00    -0.296 N 
ATOM      4  C   UNL     1      -1.167 -11.086   1.571  0.00  0.00    +0.115 C 
ATOM      5  C   UNL     1      -1.835  -9.940   2.352  0.00  0.00    -0.004 C 
ATOM      6  C   UNL     1      -1.366  -9.950   3.804  0.00  0.00    -0.010 C 
ATOM      7  C   UNL     1      -1.879 -11.218   4.492  0.00  0.00    -0.082 C 
ATOM      8  N   UNL     1      -3.345 -11.251   4.430  0.00  0.00    +0.379 N 
ATOM      9  C   UNL     1      -3.786 -11.335   3.032  0.00  0.00    -0.082 C 
ATOM     10  C   UNL     1      -3.353 -10.072   2.282  0.00  0.00    -0.010 C 
ATOM     11  C   UNL     1       1.243 -10.982   0.766  0.00  0.00    +0.247 C 
ATOM     12  O   UNL     1       1.458 -12.136   1.082  0.00  0.00    -0.270 OA
ATOM     13  H   UNL     1      -3.684 -12.055   4.937  0.00  0.00    -0.086 HD
ATOM     14  H   UNL     1      -3.717 -10.412   4.849  0.00  0.00    -0.086 HD
ENDROOT
BRANCH  11  15
ATOM     15  C   UNL     1       2.332 -10.155   0.204  0.00  0.00    +0.049 A 
ATOM     16  C   UNL     1       2.060  -9.232  -0.807  0.00  0.00    +0.013 A 
ATOM     17  C   UNL     1       3.080  -8.462  -1.327  0.00  0.00    +0.001 A 
ATOM     18  C   UNL     1       4.371  -8.604  -0.848  0.00  0.00    +0.001 A 
ATOM     19  C   UNL     1       4.647  -9.517   0.155  0.00  0.00    +0.013 A 
ATOM     20  C   UNL     1       3.634 -10.289   0.687  0.00  0.00    +0.067 A 
BRANCH  20  21
ATOM     21  C   UNL     1       3.935 -11.279   1.782  0.00  0.00    +0.418 C 
ATOM     22  F   UNL     1       5.298 -11.230   2.094  0.00  0.00    -0.166 F 
ATOM     23  F   UNL     1       3.186 -10.958   2.920  0.00  0.00    -0.166 F 
ATOM     24  F   UNL     1       3.601 -12.567   1.352  0.00  0.00    -0.166 F 
ENDBRANCH  20  21
ENDBRANCH  11  15
BRANCH   1  26
ATOM     25  N   UNL     1      -1.240  -6.845   3.342  0.00  0.00    -0.305 N 
ATOM     26  C   UNL     1      -0.603  -7.780   2.611  0.00  0.00    +0.219 C 
ATOM     27  O   UNL     1       0.596  -7.924   2.723  0.00  0.00    -0.275 OA
ATOM     28  H   UNL     1      -2.199  -6.730   3.252  0.00  0.00    +0.149 HD
BRANCH  25  29
ATOM     29  C   UNL     1      -0.485  -6.002   4.272  0.00  0.00    +0.136 C 
ATOM     30  C   UNL     1       0.097  -4.805   3.517  0.00  0.00    +0.036 C 
BRANCH  29  40
ATOM     31  C   UNL     1      -3.898  -3.469  10.381  0.00  0.00    +0.044 C 
ATOM     32  C   UNL     1      -3.646  -3.980   8.986  0.00  0.00    -0.048 A 
ATOM     33  C   UNL     1      -4.710  -4.142   8.109  0.00  0.00    +0.005 A 
ATOM     34  C   UNL     1      -4.502  -4.604   6.840  0.00  0.00    +0.030 A 
ATOM     35  C   UNL     1      -3.208  -4.916   6.416  0.00  0.00    +0.089 A 
ATOM     36  C   UNL     1      -2.131  -4.751   7.303  0.00  0.00    +0.067 A 
ATOM     37  C   UNL     1      -2.360  -4.276   8.587  0.00  0.00    +0.031 A 
ATOM     38  N   UNL     1      -1.002  -5.135   6.607  0.00  0.00    -0.340 N 
ATOM     39  H   UNL     1      -0.092  -5.138   6.943  0.00  0.00    +0.167 HD
ATOM     40  C   UNL     1      -1.402  -5.510   5.362  0.00  0.00    +0.128 A 
ATOM     41  N   UNL     1      -2.692  -5.383   5.250  0.00  0.00    -0.231 NA
ENDBRANCH  29  40
ENDBRANCH  25  29
ENDBRANCH   1  26
TORSDOF 5
