REMARK  Name = ZINC66276053
REMARK  8 active torsions:
REMARK  status: ('A' for Active; 'I' for Inactive)
REMARK    1  A    between atoms: C_1  and  C_2
REMARK    2  A    between atoms: C_3  and  C_8
REMARK    3  A    between atoms: C_4  and  C_7
REMARK    4  A    between atoms: C_8  and  S_9
REMARK    5  A    between atoms: S_9  and  C_10
REMARK    6  A    between atoms: C_10  and  C_11
REMARK    7  A    between atoms: C_11  and  O_12
REMARK    8  A    between atoms: O_12  and  C_13
REMARK                            x       y       z     vdW  Elec       q    Type
REMARK                         _______ _______ _______ _____ _____    ______ ____
ROOT
ATOM      1  C   UNL     1       1.510   0.435  -4.865  0.00  0.00    +0.110 C 
ENDROOT
BRANCH   1   2
ATOM      2  S   UNL     1       1.699  -0.133  -3.152  0.00  0.00    -0.153 S 
BRANCH   2   3
ATOM      3  C   UNL     1      -0.005  -0.348  -2.571  0.00  0.00    +0.109 C 
BRANCH   3   6
ATOM      4  C   UNL     1      -0.018   1.503   0.010  0.00  0.00    +0.069 C 
ATOM      5  C   UNL     1       0.002  -0.004   0.002  0.00  0.00    +0.085 A 
ATOM      6  C   UNL     1       0.008  -0.824  -1.141  0.00  0.00    +0.027 A 
ATOM      7  C   UNL     1       0.027  -2.108  -0.735  0.00  0.00    +0.138 A 
ATOM      8  O   UNL     1       0.034  -2.119   0.606  0.00  0.00    -0.359 OA
ATOM      9  N   UNL     1       0.023  -0.775   1.052  0.00  0.00    -0.083 NA
ATOM     10  C   UNL     1       0.039  -3.320  -1.631  0.00  0.00    +0.089 C 
ENDBRANCH   3   6
ENDBRANCH   2   3
ENDBRANCH   1   2
BRANCH   1  11
ATOM     11  C   UNL     1       2.892   0.658  -5.484  0.00  0.00    +0.239 C 
BRANCH  11  12
ATOM     12  O   UNL     1       2.743   1.105  -6.833  0.00  0.00    -0.491 OA
BRANCH  12  13
ATOM     13  C   UNL     1       3.883   1.351  -7.530  0.00  0.00    +0.121 A 
ATOM     14  C   UNL     1       5.119   1.161  -6.931  0.00  0.00    +0.047 A 
ATOM     15  C   UNL     1       6.277   1.412  -7.641  0.00  0.00    +0.023 A 
ATOM     16  C   UNL     1       6.204   1.853  -8.951  0.00  0.00    +0.041 A 
ATOM     17  C   UNL     1       4.972   2.044  -9.551  0.00  0.00    +0.023 A 
ATOM     18  C   UNL     1       3.812   1.788  -8.845  0.00  0.00    +0.047 A 
ATOM     19 CL   UNL     1       7.660   2.168  -9.842  0.00  0.00    -0.084 Cl
ENDBRANCH  12  13
ENDBRANCH  11  12
ENDBRANCH   1  11
TORSDOF 6
