REMARK  Name = ZINC08880817
REMARK  12 active torsions:
REMARK  status: ('A' for Active; 'I' for Inactive)
REMARK    1  A    between atoms: C_1  and  C_2
REMARK    2  A    between atoms: C_2  and  C_3
REMARK    3  A    between atoms: C_3  and  C_5
REMARK    4  A    between atoms: C_3  and  N_59
REMARK    5  A    between atoms: C_8  and  S_17
REMARK    6  A    between atoms: N_9  and  C_10
REMARK    7  A    between atoms: C_10  and  C_11
REMARK    8  A    between atoms: S_17  and  C_18
REMARK    9  A    between atoms: C_18  and  C_19
REMARK   10  A    between atoms: C_22  and  N_25
REMARK   11  A    between atoms: C_30  and  N_59
REMARK   12  A    between atoms: C_31  and  N_59
REMARK                            x       y       z     vdW  Elec       q    Type
REMARK                         _______ _______ _______ _____ _____    ______ ____
ROOT
ATOM      1  C   UNL     1      -2.798  -0.759   1.467  0.00  0.00    +0.121 A 
ATOM      2  N   UNL     1      -3.433  -0.170   2.440  0.00  0.00    -0.135 NA
ATOM      3  N   UNL     1      -4.255   0.698   1.969  0.00  0.00    -0.123 NA
ATOM      4  C   UNL     1      -4.184   0.714   0.658  0.00  0.00    +0.192 A 
ATOM      5  N   UNL     1      -3.249  -0.213   0.297  0.00  0.00    -0.303 N 
ENDROOT
BRANCH   1   6
ATOM      6  C   UNL     1      -1.756  -1.840   1.605  0.00  0.00    +0.000 C 
BRANCH   6   9
ATOM      7  C   UNL     1      -3.544  -3.355   2.214  0.00  0.00    -0.096 C 
ATOM      8  C   UNL     1      -1.245  -3.936   2.704  0.00  0.00    -0.096 C 
ATOM      9  N   UNL     1      -2.218  -2.828   2.602  0.00  0.00    +0.383 N 
ATOM     10  H   UNL     1      -2.297  -2.368   3.517  0.00  0.00    -0.082 HD
ENDBRANCH   6   9
BRANCH   6  12
ATOM     11  C   UNL     1      -0.661  -0.570   3.457  0.00  0.00    +0.002 C 
ATOM     12  C   UNL     1      -0.443  -1.223   2.091  0.00  0.00    -0.011 C 
ENDBRANCH   6  12
ENDBRANCH   1   6
BRANCH   5  13
ATOM     13  C   UNL     1      -2.822  -0.556  -1.062  0.00  0.00    +0.160 C 
BRANCH  13  14
ATOM     14  C   UNL     1      -1.663   0.321  -1.461  0.00  0.00    -0.028 A 
ATOM     15  C   UNL     1      -0.368  -0.085  -1.200  0.00  0.00    +0.005 A 
ATOM     16  C   UNL     1       0.696   0.717  -1.571  0.00  0.00    +0.000 A 
ATOM     17  C   UNL     1       0.463   1.927  -2.198  0.00  0.00    +0.000 A 
ATOM     18  C   UNL     1      -0.833   2.334  -2.454  0.00  0.00    +0.000 A 
ATOM     19  C   UNL     1      -1.896   1.533  -2.083  0.00  0.00    +0.005 A 
ENDBRANCH  13  14
ENDBRANCH   5  13
BRANCH   4  20
ATOM     20  S   UNL     1      -5.119   1.737  -0.430  0.00  0.00    -0.081 S 
BRANCH  20  21
ATOM     21  C   UNL     1      -6.105   2.659   0.776  0.00  0.00    +0.112 C 
BRANCH  21  22
ATOM     22  C   UNL     1      -7.008   3.626   0.053  0.00  0.00    -0.037 A 
ATOM     23  C   UNL     1      -6.569   4.909  -0.217  0.00  0.00    +0.006 A 
ATOM     24  C   UNL     1      -7.393   5.795  -0.883  0.00  0.00    +0.028 A 
ATOM     25  C   UNL     1      -8.666   5.400  -1.273  0.00  0.00    +0.065 A 
ATOM     26  C   UNL     1      -9.104   4.112  -0.995  0.00  0.00    +0.028 A 
ATOM     27  C   UNL     1      -8.274   3.229  -0.333  0.00  0.00    +0.006 A 
BRANCH  25  28
ATOM     28  N   UNL     1      -9.506   6.299  -1.944  0.00  0.00    -0.240 N 
ATOM     29  C   UNL     1      -9.206   7.577  -2.269  0.00  0.00    +0.114 A 
ATOM     30  C   UNL     1     -10.277   8.101  -2.909  0.00  0.00    +0.041 A 
ATOM     31  C   UNL     1     -11.268   7.115  -2.969  0.00  0.00    +0.135 A 
ATOM     32  N   UNL     1     -10.807   6.035  -2.391  0.00  0.00    -0.175 NA
ENDBRANCH  25  28
ENDBRANCH  21  22
ENDBRANCH  20  21
ENDBRANCH   4  20
TORSDOF 9
