REMARK  Name = ZINC63611336
REMARK  8 active torsions:
REMARK  status: ('A' for Active; 'I' for Inactive)
REMARK    1  A    between atoms: C_1  and  C_2
REMARK    2  A    between atoms: C_7  and  N_8
REMARK    3  A    between atoms: C_9  and  C_11
REMARK    4  A    between atoms: C_11  and  N_17
REMARK    5  A    between atoms: N_17  and  C_18
REMARK    6  A    between atoms: C_18  and  C_19
REMARK    7  A    between atoms: C_24  and  C_26
REMARK    8  A    between atoms: C_26  and  C_27
REMARK                            x       y       z     vdW  Elec       q    Type
REMARK                         _______ _______ _______ _____ _____    ______ ____
ROOT
ATOM      1  N   UNL     1       1.127   1.339   4.677  0.00  0.00    -0.280 N 
ATOM      2  C   UNL     1       0.542   2.490   5.062  0.00  0.00    +0.219 C 
ATOM      3  O   UNL     1      -0.559   2.469   5.571  0.00  0.00    -0.275 OA
ENDROOT
BRANCH   1   4
ATOM      4  C   UNL     1       0.400   0.072   4.793  0.00  0.00    +0.114 C 
ATOM      5  C   UNL     1      -0.750   0.233   5.788  0.00  0.00    +0.035 C 
ATOM      6  C   UNL     1      -0.189   0.626   7.157  0.00  0.00    +0.003 C 
ATOM      7  C   UNL     1       0.763  -0.465   7.650  0.00  0.00    +0.000 C 
ATOM      8  C   UNL     1       1.913  -0.627   6.654  0.00  0.00    +0.003 C 
ATOM      9  C   UNL     1       1.352  -1.020   5.286  0.00  0.00    +0.035 C 
BRANCH   4  11
ATOM     10  N   UNL     1      -0.636   0.633   2.618  0.00  0.00    -0.283 N 
ATOM     11  C   UNL     1      -0.152  -0.315   3.445  0.00  0.00    +0.241 C 
ATOM     12  O   UNL     1      -0.162  -1.479   3.105  0.00  0.00    -0.273 OA
ATOM     13  H   UNL     1      -0.544   1.571   2.848  0.00  0.00    +0.155 HD
BRANCH  10  20
ATOM     14  C   UNL     1      -0.963   2.613   0.601  0.00  0.00    +0.045 C 
ATOM     15  C   UNL     1      -1.451   1.199   0.416  0.00  0.00    -0.029 A 
ATOM     16  C   UNL     1      -2.072   0.830  -0.761  0.00  0.00    +0.005 A 
ATOM     17  C   UNL     1      -2.520  -0.467  -0.931  0.00  0.00    +0.000 A 
ATOM     18  C   UNL     1      -2.347  -1.399   0.075  0.00  0.00    +0.002 A 
ATOM     19  C   UNL     1      -1.726  -1.037   1.254  0.00  0.00    +0.023 A 
ATOM     20  C   UNL     1      -1.271   0.264   1.427  0.00  0.00    +0.036 A 
ENDBRANCH  10  20
ENDBRANCH   4  11
ENDBRANCH   1   4
BRANCH   1  21
ATOM     21  C   UNL     1       2.491   1.354   4.143  0.00  0.00    +0.183 C 
BRANCH  21  22
ATOM     22  C   UNL     1       2.443   1.529   2.647  0.00  0.00    +0.122 A 
ATOM     23  C   UNL     1       2.555   2.696   1.987  0.00  0.00    +0.046 A 
ATOM     24  C   UNL     1       2.454   2.400   0.609  0.00  0.00    +0.041 A 
ATOM     25  C   UNL     1       2.286   1.069   0.508  0.00  0.00    +0.195 A 
ATOM     26  O   UNL     1       2.285   0.546   1.745  0.00  0.00    -0.466 OA
ENDBRANCH  21  22
ENDBRANCH   1  21
BRANCH   2  27
ATOM     27  C   UNL     1       1.255   3.802   4.862  0.00  0.00    +0.124 C 
BRANCH  27  28
ATOM     28  C   UNL     1       0.378   4.943   5.381  0.00  0.00    +0.112 C 
ATOM     29  C   UNL     1       1.052   6.274   5.130  0.00  0.00    +0.007 C 
ATOM     30  C   UNL     1       1.240   6.834   6.346  0.00  0.00    -0.004 A 
ATOM     31  C   UNL     1       1.836   8.105   6.774  0.00  0.00    +0.010 A 
ATOM     32  C   UNL     1       1.885   8.396   8.094  0.00  0.00    +0.001 A 
ATOM     33  C   UNL     1       1.382   7.515   9.062  0.00  0.00    +0.002 A 
ATOM     34  C   UNL     1       0.820   6.329   8.746  0.00  0.00    +0.026 A 
ATOM     35  C   UNL     1       0.716   5.922   7.388  0.00  0.00    +0.043 A 
ATOM     36  N   UNL     1       0.221   4.838   6.836  0.00  0.00    -0.377 N 
ATOM     37  H   UNL     1      -0.181   4.094   7.310  0.00  0.00    +0.160 HD
ENDBRANCH  27  28
ENDBRANCH   2  27
TORSDOF 7
