REMARK  Name = ZINC13635784
REMARK  9 active torsions:
REMARK  status: ('A' for Active; 'I' for Inactive)
REMARK    1  A    between atoms: C_1  and  C_2
REMARK    2  A    between atoms: C_2  and  C_3
REMARK    3  A    between atoms: C_3  and  C_4
REMARK    4  A    between atoms: C_3  and  C_5
REMARK    5  A    between atoms: C_3  and  C_6
REMARK    6  A    between atoms: C_12  and  C_16
REMARK    7  A    between atoms: N_18  and  N_19
REMARK    8  A    between atoms: C_20  and  C_21
REMARK    9  A    between atoms: C_20  and  C_22
REMARK                            x       y       z     vdW  Elec       q    Type
REMARK                         _______ _______ _______ _____ _____    ______ ____
ROOT
ATOM      1  C   UNL     1       0.739  -2.027  -1.265  0.00  0.00    -0.001 C 
ATOM      2  C   UNL     1      -0.698  -2.557  -1.254  0.00  0.00    +0.010 C 
ATOM      3  C   UNL     1      -0.687  -4.072  -1.010  0.00  0.00    +0.055 C 
ATOM      4  C   UNL     1       0.290  -4.700  -1.970  0.00  0.00    +0.040 A 
ATOM      5  C   UNL     1       1.240  -4.005  -2.644  0.00  0.00    +0.006 A 
ATOM      6  C   UNL     1       1.928  -4.950  -3.425  0.00  0.00    +0.152 A 
ATOM      7  N   UNL     1       1.368  -6.123  -3.180  0.00  0.00    -0.169 NA
ATOM      8  N   UNL     1       0.409  -5.988  -2.329  0.00  0.00    -0.281 N 
ATOM      9  H   UNL     1      -0.145  -6.712  -1.997  0.00  0.00    +0.189 HD
ATOM     10  C   UNL     1       1.458  -2.522  -2.528  0.00  0.00    +0.043 C 
ENDROOT
BRANCH   6  11
ATOM     11  C   UNL     1       3.055  -4.684  -4.340  0.00  0.00    +0.284 C 
ATOM     12  O   UNL     1       3.476  -3.551  -4.474  0.00  0.00    -0.267 OA
ATOM     13  N   UNL     1       3.618  -5.698  -5.028  0.00  0.00    -0.201 N 
ATOM     14  H   UNL     1       3.283  -6.602  -4.921  0.00  0.00    +0.178 HD
BRANCH  13  15
ATOM     15  N   UNL     1       4.688  -5.446  -5.897  0.00  0.00    -0.181 NA
ATOM     16  C   UNL     1       5.231  -6.425  -6.560  0.00  0.00    +0.098 C 
ATOM     17  C   UNL     1       4.710  -7.829  -6.394  0.00  0.00    +0.071 C 
BRANCH  16  18
ATOM     18  C   UNL     1       6.351  -6.161  -7.469  0.00  0.00    +0.150 A 
ATOM     19  C   UNL     1       6.921  -4.944  -7.707  0.00  0.00    +0.051 A 
ATOM     20  C   UNL     1       7.953  -5.156  -8.640  0.00  0.00    +0.042 A 
ATOM     21  C   UNL     1       7.966  -6.475  -8.924  0.00  0.00    +0.196 A 
ATOM     22  O   UNL     1       7.001  -7.079  -8.212  0.00  0.00    -0.462 OA
ENDBRANCH  16  18
ENDBRANCH  13  15
ENDBRANCH   6  11
BRANCH   1  23
ATOM     23  C   UNL     1       0.718  -0.497  -1.257  0.00  0.00    -0.032 C 
ATOM     24  C   UNL     1      -0.022   0.009  -2.496  0.00  0.00    +0.011 C 
ATOM     25  C   UNL     1       2.154   0.032  -1.268  0.00  0.00    +0.011 C 
BRANCH  23  27
ATOM     26  C   UNL     1      -0.019   1.526   0.010  0.00  0.00    +0.004 C 
ATOM     27  C   UNL     1       0.002  -0.004   0.002  0.00  0.00    +0.003 C 
ENDBRANCH  23  27
ENDBRANCH   1  23
TORSDOF 5
