REMARK  Name = ZINC08639830
REMARK  10 active torsions:
REMARK  status: ('A' for Active; 'I' for Inactive)
REMARK    1  A    between atoms: C_1  and  C_2
REMARK    2  A    between atoms: C_2  and  C_4
REMARK    3  A    between atoms: C_2  and  S_13
REMARK    4  A    between atoms: N_6  and  C_7
REMARK    5  A    between atoms: C_7  and  C_8
REMARK    6  A    between atoms: S_13  and  C_14
REMARK    7  A    between atoms: N_27  and  C_28
REMARK    8  A    between atoms: C_28  and  C_29
REMARK    9  A    between atoms: C_29  and  O_30
REMARK   10  A    between atoms: O_30  and  C_31
REMARK                            x       y       z     vdW  Elec       q    Type
REMARK                         _______ _______ _______ _____ _____    ______ ____
ROOT
ATOM      1  C   UNL     1      -3.119   1.620   0.762  0.00  0.00    +0.173 A 
ATOM      2  N   UNL     1      -4.331   1.103   0.805  0.00  0.00    -0.216 NA
ATOM      3  C   UNL     1      -4.555  -0.053   1.418  0.00  0.00    +0.117 A 
ATOM      4  C   UNL     1      -3.528  -0.781   2.041  0.00  0.00    +0.076 A 
ATOM      5  C   UNL     1      -3.929  -2.037   2.676  0.00  0.00    -0.023 A 
ATOM      6  C   UNL     1      -5.233  -2.372   2.602  0.00  0.00    -0.004 A 
ATOM      7  S   UNL     1      -5.995  -1.053   1.696  0.00  0.00    -0.073 S 
ATOM      8  C   UNL     1      -5.890  -3.595   3.167  0.00  0.00    +0.043 C 
ATOM      9  C   UNL     1      -4.796  -4.609   3.529  0.00  0.00    +0.005 C 
ATOM     10  C   UNL     1      -3.699  -3.888   4.319  0.00  0.00    +0.005 C 
ATOM     11  C   UNL     1      -2.931  -2.942   3.395  0.00  0.00    +0.037 C 
ATOM     12  C   UNL     1      -2.223  -0.198   1.975  0.00  0.00    +0.263 A 
ATOM     13  O   UNL     1      -1.269  -0.758   2.488  0.00  0.00    -0.267 OA
ATOM     14  N   UNL     1      -2.062   0.977   1.338  0.00  0.00    -0.285 N 
ENDROOT
BRANCH   1  15
ATOM     15  S   UNL     1      -2.860   3.160  -0.054  0.00  0.00    -0.075 S 
BRANCH  15  17
ATOM     16  C   UNL     1      -4.991   2.465  -1.616  0.00  0.00    +0.029 C 
ATOM     17  C   UNL     1      -4.549   3.517  -0.596  0.00  0.00    +0.137 C 
BRANCH  17  18
ATOM     18  C   UNL     1      -4.595   4.883  -1.231  0.00  0.00    +0.227 C 
ATOM     19  O   UNL     1      -3.592   5.357  -1.722  0.00  0.00    -0.275 OA
ATOM     20  N   UNL     1      -5.750   5.577  -1.254  0.00  0.00    -0.307 N 
ATOM     21  H   UNL     1      -6.551   5.198  -0.862  0.00  0.00    +0.149 HD
BRANCH  20  22
ATOM     22  C   UNL     1      -5.794   6.905  -1.872  0.00  0.00    +0.178 C 
BRANCH  22  23
ATOM     23  C   UNL     1      -7.190   7.462  -1.766  0.00  0.00    +0.122 A 
ATOM     24  C   UNL     1      -7.665   8.207  -0.751  0.00  0.00    +0.046 A 
ATOM     25  C   UNL     1      -9.010   8.511  -1.060  0.00  0.00    +0.041 A 
ATOM     26  C   UNL     1      -9.278   7.932  -2.245  0.00  0.00    +0.195 A 
ATOM     27  O   UNL     1      -8.170   7.303  -2.670  0.00  0.00    -0.466 OA
ENDBRANCH  22  23
ENDBRANCH  20  22
ENDBRANCH  17  18
ENDBRANCH  15  17
ENDBRANCH   1  15
BRANCH  14  28
ATOM     28  C   UNL     1      -0.729   1.579   1.267  0.00  0.00    +0.155 C 
BRANCH  28  29
ATOM     29  C   UNL     1      -0.013   1.086   0.008  0.00  0.00    +0.181 C 
BRANCH  29  30
ATOM     30  O   UNL     1      -0.704   1.559  -1.150  0.00  0.00    -0.381 OA
ATOM     31  C   UNL     1      -0.114   1.152  -2.386  0.00  0.00    +0.194 C 
ENDBRANCH  29  30
ENDBRANCH  28  29
ENDBRANCH  14  28
TORSDOF 8
