REMARK  Name = ZINC35004534
REMARK  13 active torsions:
REMARK  status: ('A' for Active; 'I' for Inactive)
REMARK    1  A    between atoms: C_1  and  C_2
REMARK    2  A    between atoms: C_2  and  C_3
REMARK    3  A    between atoms: C_3  and  C_4
REMARK    4  A    between atoms: C_4  and  N_5
REMARK    5  A    between atoms: C_13  and  C_15
REMARK    6  A    between atoms: C_16  and  C_18
REMARK    7  A    between atoms: C_18  and  C_20
REMARK    8  A    between atoms: C_18  and  N_25
REMARK    9  A    between atoms: C_20  and  C_22
REMARK   10  A    between atoms: C_20  and  C_23
REMARK   11  A    between atoms: C_23  and  C_24
REMARK   12  A    between atoms: N_28  and  C_29
REMARK   13  A    between atoms: C_34  and  C_35
REMARK                            x       y       z     vdW  Elec       q    Type
REMARK                         _______ _______ _______ _____ _____    ______ ____
ROOT
ATOM      1  C   UNL     1       3.265  -4.324  -8.728  0.00  0.00    +0.163 C 
ENDROOT
BRANCH   1  12
ATOM      2  N   UNL     1       2.949  -2.143  -2.449  0.00  0.00    -0.299 N 
ATOM      3  C   UNL     1       3.084  -3.470  -2.646  0.00  0.00    +0.303 C 
ATOM      4  O   UNL     1       2.974  -4.237  -1.709  0.00  0.00    -0.253 OA
ATOM      5  N   UNL     1       3.340  -3.945  -3.880  0.00  0.00    -0.280 N 
ATOM      6  C   UNL     1       3.591  -3.026  -4.999  0.00  0.00    +0.128 C 
ATOM      7  C   UNL     1       2.608  -3.350  -6.130  0.00  0.00    +0.127 C 
ATOM      8  N   UNL     1       2.642  -4.797  -6.382  0.00  0.00    -0.297 N 
ATOM      9  C   UNL     1       2.391  -5.717  -5.263  0.00  0.00    +0.130 C 
ATOM     10  C   UNL     1       3.380  -5.393  -4.131  0.00  0.00    +0.092 C 
ATOM     11  C   UNL     1       4.794  -5.803  -4.546  0.00  0.00    +0.030 C 
ATOM     12  C   UNL     1       2.899  -5.272  -7.617  0.00  0.00    +0.236 C 
ATOM     13  O   UNL     1       2.835  -6.464  -7.833  0.00  0.00    -0.274 OA
ATOM     14  H   UNL     1       3.108  -1.526  -3.180  0.00  0.00    +0.150 HD
BRANCH   2  15
ATOM     15  C   UNL     1       2.561  -1.634  -1.131  0.00  0.00    +0.106 C 
BRANCH  15  16
ATOM     16  C   UNL     1       2.479  -0.107  -1.179  0.00  0.00    +0.018 C 
BRANCH  16  18
ATOM     17  C   UNL     1       1.992   1.952   0.150  0.00  0.00    +0.004 C 
ATOM     18  C   UNL     1       2.074   0.425   0.198  0.00  0.00    -0.002 C 
ENDBRANCH  16  18
ENDBRANCH  15  16
ENDBRANCH   2  15
ENDBRANCH   1  12
BRANCH   1  19
ATOM     19  N   UNL     1       3.763  -5.085  -9.876  0.00  0.00    -0.288 N 
ATOM     20  C   UNL     1       4.691  -4.546 -10.692  0.00  0.00    +0.304 C 
ATOM     21  O   UNL     1       5.182  -3.466 -10.423  0.00  0.00    -0.252 OA
ATOM     22  N   UNL     1       5.074  -5.203 -11.805  0.00  0.00    -0.269 N 
ATOM     23  H   UNL     1       3.425  -5.978 -10.049  0.00  0.00    +0.151 HD
ATOM     24  H   UNL     1       4.635  -6.031 -12.054  0.00  0.00    +0.156 HD
BRANCH  22  25
ATOM     25  C   UNL     1       6.105  -4.690 -12.600  0.00  0.00    +0.046 A 
ATOM     26  C   UNL     1       6.262  -3.317 -12.735  0.00  0.00    +0.024 A 
ATOM     27  C   UNL     1       7.281  -2.814 -13.520  0.00  0.00    +0.002 A 
ATOM     28  C   UNL     1       8.143  -3.676 -14.172  0.00  0.00    +0.001 A 
ATOM     29  C   UNL     1       7.989  -5.043 -14.040  0.00  0.00    +0.014 A 
ATOM     30  C   UNL     1       6.976  -5.553 -13.251  0.00  0.00    +0.076 A 
BRANCH  30  31
ATOM     31  C   UNL     1       6.812  -7.043 -13.103  0.00  0.00    +0.419 C 
ATOM     32  F   UNL     1       7.800  -7.697 -13.847  0.00  0.00    -0.166 F 
ATOM     33  F   UNL     1       6.935  -7.394 -11.754  0.00  0.00    -0.166 F 
ATOM     34  F   UNL     1       5.549  -7.423 -13.570  0.00  0.00    -0.166 F 
ENDBRANCH  30  31
ENDBRANCH  22  25
ENDBRANCH   1  19
BRANCH   1  35
ATOM     35  C   UNL     1       2.029  -3.524  -9.145  0.00  0.00    +0.015 C 
ATOM     36  C   UNL     1       2.436  -2.439 -10.144  0.00  0.00    +0.010 C 
BRANCH  35  37
ATOM     37  C   UNL     1       1.010  -4.462  -9.796  0.00  0.00    +0.002 C 
ATOM     38  C   UNL     1       0.298  -5.274  -8.712  0.00  0.00    +0.004 C 
ENDBRANCH  35  37
ENDBRANCH   1  35
TORSDOF 9
