REMARK  Name = ZINC14620814
REMARK  10 active torsions:
REMARK  status: ('A' for Active; 'I' for Inactive)
REMARK    1  A    between atoms: C_1  and  C_2
REMARK    2  A    between atoms: C_2  and  C_3
REMARK    3  A    between atoms: C_6  and  C_9
REMARK    4  A    between atoms: C_15  and  C_17
REMARK    5  A    between atoms: C_17  and  C_19
REMARK    6  A    between atoms: C_17  and  S_20
REMARK    7  A    between atoms: S_20  and  C_21
REMARK    8  A    between atoms: C_21  and  C_22
REMARK    9  A    between atoms: C_28  and  C_34
REMARK   10  A    between atoms: C_29  and  C_33
REMARK                            x       y       z     vdW  Elec       q    Type
REMARK                         _______ _______ _______ _____ _____    ______ ____
ROOT
ATOM      1  C   UNL     1       0.002  -0.004   0.002  0.00  0.00    +0.080 A 
ATOM      2  C   UNL     1      -1.169  -0.710   0.009  0.00  0.00    +0.076 A 
ATOM      3  S   UNL     1      -0.545  -2.386  -0.005  0.00  0.00    -0.060 S 
ATOM      4  C   UNL     1       1.195  -1.976  -0.020  0.00  0.00    +0.165 A 
ATOM      5  N   UNL     1       1.155  -0.657  -0.018  0.00  0.00    -0.225 NA
ATOM      6  N   UNL     1       2.297  -2.822  -0.035  0.00  0.00    -0.264 N 
ATOM      7  C   UNL     1       2.121  -4.158  -0.041  0.00  0.00    +0.231 C 
ATOM      8  O   UNL     1       1.001  -4.622  -0.032  0.00  0.00    -0.274 OA
ATOM      9  H   UNL     1       3.193  -2.451  -0.042  0.00  0.00    +0.157 HD
ENDROOT
BRANCH   1  13
ATOM     10  C   UNL     1      -0.056   4.247   0.025  0.00  0.00    -0.048 A 
ATOM     11  C   UNL     1       1.153   3.575   0.010  0.00  0.00    +0.004 A 
ATOM     12  C   UNL     1       1.178   2.195   0.003  0.00  0.00    +0.010 A 
ATOM     13  C   UNL     1      -0.018   1.479   0.010  0.00  0.00    +0.001 A 
ATOM     14  C   UNL     1      -1.233   2.162   0.020  0.00  0.00    +0.010 A 
ATOM     15  C   UNL     1      -1.246   3.542   0.033  0.00  0.00    +0.004 A 
BRANCH  10  17
ATOM     16  C   UNL     1      -0.097   6.271  -1.406  0.00  0.00    +0.009 C 
ATOM     17  C   UNL     1      -0.076   5.754   0.033  0.00  0.00    +0.032 C 
ENDBRANCH  10  17
ENDBRANCH   1  13
BRANCH   7  18
ATOM     18  C   UNL     1       3.317  -5.076  -0.057  0.00  0.00    +0.130 C 
ATOM     19  C   UNL     1       3.812  -5.294   1.374  0.00  0.00    +0.029 C 
BRANCH  18  20
ATOM     20  S   UNL     1       2.845  -6.670  -0.784  0.00  0.00    -0.141 S 
BRANCH  20  21
ATOM     21  C   UNL     1       4.406  -7.590  -0.871  0.00  0.00    +0.144 C 
BRANCH  21  22
ATOM     22  C   UNL     1       4.153  -8.952  -1.465  0.00  0.00    +0.121 A 
ATOM     23  N   UNL     1       5.191  -9.812  -1.629  0.00  0.00    -0.310 N 
ATOM     24  H   UNL     1       6.082  -9.537  -1.361  0.00  0.00    +0.170 HD
ATOM     25  C   UNL     1       5.009 -11.040  -2.149  0.00  0.00    +0.260 A 
ATOM     26  O   UNL     1       5.951 -11.801  -2.284  0.00  0.00    -0.267 OA
ATOM     27  C   UNL     1       3.690 -11.435  -2.548  0.00  0.00    +0.075 A 
ATOM     28  C   UNL     1       3.241 -12.684  -3.132  0.00  0.00    -0.026 A 
ATOM     29  C   UNL     1       1.941 -12.839  -3.430  0.00  0.00    -0.008 A 
ATOM     30  S   UNL     1       1.217 -11.286  -2.937  0.00  0.00    -0.073 S 
ATOM     31  C   UNL     1       2.681 -10.476  -2.345  0.00  0.00    +0.116 A 
ATOM     32  N   UNL     1       2.940  -9.283  -1.818  0.00  0.00    -0.226 NA
ATOM     33  C   UNL     1       1.257 -14.037  -4.037  0.00  0.00    +0.052 C 
ATOM     34  C   UNL     1       4.222 -13.796  -3.402  0.00  0.00    +0.045 C 
ENDBRANCH  21  22
ENDBRANCH  20  21
ENDBRANCH  18  20
ENDBRANCH   7  18
TORSDOF 6
