REMARK  Name = ZINC39723599
REMARK  7 active torsions:
REMARK  status: ('A' for Active; 'I' for Inactive)
REMARK    1  A    between atoms: C_1  and  C_2
REMARK    2  A    between atoms: C_2  and  S_3
REMARK    3  A    between atoms: S_3  and  C_4
REMARK    4  A    between atoms: C_10  and  C_12
REMARK    5  A    between atoms: C_12  and  S_13
REMARK    6  A    between atoms: S_13  and  C_14
REMARK    7  A    between atoms: C_20  and  C_22
REMARK                            x       y       z     vdW  Elec       q    Type
REMARK                         _______ _______ _______ _____ _____    ______ ____
ROOT
ATOM      1  C   UNL     1       0.198 -11.351  -0.140  0.00  0.00    +0.160 A 
ATOM      2  N   UNL     1       0.813 -11.874  -1.191  0.00  0.00    -0.133 NA
ATOM      3  N   UNL     1       0.917 -13.121  -1.350  0.00  0.00    -0.125 NA
ATOM      4  C   UNL     1       0.419 -13.983  -0.478  0.00  0.00    +0.189 A 
ATOM      5  S   UNL     1      -0.277 -12.848   0.719  0.00  0.00    -0.024 S 
ATOM      6  N   UNL     1       0.437 -15.375  -0.486  0.00  0.00    -0.263 N 
ATOM      7  C   UNL     1       1.031 -16.036  -1.500  0.00  0.00    +0.225 C 
ATOM      8  O   UNL     1       1.550 -15.417  -2.405  0.00  0.00    -0.275 OA
ATOM      9  H   UNL     1       0.021 -15.870   0.237  0.00  0.00    +0.157 HD
ENDROOT
BRANCH   7  10
ATOM     10  C   UNL     1       1.050 -17.543  -1.509  0.00  0.00    +0.048 C 
ATOM     11  C   UNL     1      -0.386 -18.071  -1.516  0.00  0.00    +0.019 C 
ATOM     12  C   UNL     1      -0.367 -19.601  -1.525  0.00  0.00    -0.009 C 
ATOM     13  C   UNL     1       0.364 -20.094  -2.775  0.00  0.00    +0.007 C 
ATOM     14  C   UNL     1       1.800 -19.566  -2.769  0.00  0.00    -0.009 C 
ATOM     15  C   UNL     1       1.780 -18.036  -2.760  0.00  0.00    +0.019 C 
ATOM     16  C   UNL     1       2.525 -20.074  -1.521  0.00  0.00    +0.007 C 
ATOM     17  C   UNL     1       1.794 -19.581  -0.271  0.00  0.00    -0.009 C 
ATOM     18  C   UNL     1       0.358 -20.109  -0.277  0.00  0.00    +0.007 C 
ATOM     19  C   UNL     1       1.775 -18.051  -0.261  0.00  0.00    +0.019 C 
ENDBRANCH   7  10
BRANCH   1  20
ATOM     20  S   UNL     1      -0.068  -9.663   0.292  0.00  0.00    -0.088 S 
BRANCH  20  21
ATOM     21  C   UNL     1       0.699  -8.736  -1.065  0.00  0.00    +0.172 C 
BRANCH  21  28
ATOM     22  C   UNL     1       0.792  -2.345  -1.354  0.00  0.00    +0.160 A 
ATOM     23  N   UNL     1       0.261  -3.108  -0.410  0.00  0.00    -0.133 NA
ATOM     24  N   UNL     1       0.307  -4.368  -0.467  0.00  0.00    -0.125 NA
ATOM     25  C   UNL     1       0.889  -5.003  -1.471  0.00  0.00    +0.189 A 
ATOM     26  S   UNL     1       1.427  -3.607  -2.454  0.00  0.00    -0.024 S 
ATOM     27  N   UNL     1       1.036  -6.369  -1.700  0.00  0.00    -0.263 N 
ATOM     28  C   UNL     1       0.540  -7.258  -0.817  0.00  0.00    +0.229 C 
ATOM     29  O   UNL     1      -0.035  -6.869   0.178  0.00  0.00    -0.275 OA
ATOM     30  H   UNL     1       1.495  -6.681  -2.496  0.00  0.00    +0.157 HD
BRANCH  22  31
ATOM     31  S   UNL     1       0.851  -0.589  -1.490  0.00  0.00    -0.097 S 
BRANCH  31  33
ATOM     32  C   UNL     1      -0.019   1.526   0.010  0.00  0.00    +0.016 C 
ATOM     33  C   UNL     1       0.002  -0.004   0.002  0.00  0.00    +0.073 C 
ENDBRANCH  31  33
ENDBRANCH  22  31
ENDBRANCH  21  28
ENDBRANCH  20  21
ENDBRANCH   1  20
TORSDOF 6
