REMARK  Name = ZINC21155928
REMARK  4 active torsions:
REMARK  status: ('A' for Active; 'I' for Inactive)
REMARK    1  A    between atoms: C_8  and  N_12
REMARK    2  A    between atoms: C_9  and  O_10
REMARK    3  A    between atoms: C_13  and  C_15
REMARK    4  A    between atoms: N_22  and  C_23
REMARK                            x       y       z     vdW  Elec       q    Type
REMARK                         _______ _______ _______ _____ _____    ______ ____
ROOT
ATOM      1  C   UNL     1      -2.388  -0.989   2.922  0.00  0.00    +0.001 A 
ATOM      2  C   UNL     1      -1.851  -2.234   3.216  0.00  0.00    +0.004 A 
ATOM      3  C   UNL     1      -0.890  -2.795   2.402  0.00  0.00    +0.047 A 
ATOM      4  C   UNL     1      -0.450  -2.113   1.275  0.00  0.00    +0.141 A 
ATOM      5  C   UNL     1      -0.988  -0.851   0.980  0.00  0.00    +0.042 A 
ATOM      6  C   UNL     1      -1.965  -0.296   1.809  0.00  0.00    +0.013 A 
ATOM      7  C   UNL     1      -0.519  -0.138  -0.220  0.00  0.00    +0.075 A 
ATOM      8  C   UNL     1       0.447  -0.751  -0.999  0.00  0.00    +0.139 A 
ATOM      9  C   UNL     1       0.935  -2.017  -0.627  0.00  0.00    +0.309 A 
ATOM     10  O   UNL     1       0.491  -2.652   0.469  0.00  0.00    -0.424 OA
ATOM     11  N   UNL     1      -1.023   1.104  -0.554  0.00  0.00    -0.380 N 
ATOM     12  H   UNL     1      -0.463   2.014  -0.288  0.00  0.00    +0.160 HD
ENDROOT
BRANCH  11  13
ATOM     13  C   UNL     1      -2.308   0.981  -1.254  0.00  0.00    +0.079 C 
ATOM     14  C   UNL     1      -2.056   0.696  -2.736  0.00  0.00    +0.024 C 
ATOM     15  C   UNL     1      -3.395   0.568  -3.466  0.00  0.00    +0.002 C 
ATOM     16  C   UNL     1      -4.181   1.872  -3.323  0.00  0.00    +0.000 C 
ATOM     17  C   UNL     1      -4.433   2.157  -1.841  0.00  0.00    +0.002 C 
ATOM     18  C   UNL     1      -3.094   2.286  -1.112  0.00  0.00    +0.024 C 
ENDBRANCH  11  13
BRANCH   8  19
ATOM     19  N   UNL     1       0.935  -0.114  -2.152  0.00  0.00    -0.274 N 
ATOM     20  C   UNL     1       1.030  -0.798  -3.310  0.00  0.00    +0.250 C 
ATOM     21  O   UNL     1       0.785  -1.988  -3.336  0.00  0.00    -0.270 OA
ATOM     22  H   UNL     1       1.239   0.942  -2.110  0.00  0.00    +0.155 HD
BRANCH  20  23
ATOM     23  C   UNL     1       1.434  -0.100  -4.549  0.00  0.00    +0.051 A 
ATOM     24  C   UNL     1       1.826   1.239  -4.503  0.00  0.00    +0.014 A 
ATOM     25  C   UNL     1       2.206   1.883  -5.662  0.00  0.00    +0.001 A 
ATOM     26  C   UNL     1       2.189   1.209  -6.870  0.00  0.00    +0.001 A 
ATOM     27  C   UNL     1       1.797  -0.116  -6.925  0.00  0.00    +0.016 A 
ATOM     28  C   UNL     1       1.419  -0.775  -5.771  0.00  0.00    +0.030 A 
ATOM     29 BR   UNL     1       0.881  -2.587  -5.847  0.00  0.00    -0.050 Br
ENDBRANCH  20  23
ENDBRANCH   8  19
BRANCH   9  30
ATOM     30  O   UNL     1       1.786  -2.551  -1.318  0.00  0.00    -0.479 OA
ATOM     31  H   UNL     1       2.178  -3.540  -1.040  0.00  0.00    +0.295 HD
ENDBRANCH   9  30
TORSDOF 4
