REMARK  Name = ZINC08951912
REMARK  6 active torsions:
REMARK  status: ('A' for Active; 'I' for Inactive)
REMARK    1  A    between atoms: C_4  and  C_7
REMARK    2  A    between atoms: C_9  and  C_17
REMARK    3  A    between atoms: N_19  and  N_20
REMARK    4  A    between atoms: C_21  and  C_22
REMARK    5  A    between atoms: C_21  and  C_28
REMARK    6  A    between atoms: C_31  and  N_34
REMARK                            x       y       z     vdW  Elec       q    Type
REMARK                         _______ _______ _______ _____ _____    ______ ____
ROOT
ATOM      1  C   UNL     1       5.123   1.718  -0.356  0.00  0.00    +0.264 C 
ATOM      2  O   UNL     1       6.011   2.527  -0.547  0.00  0.00    -0.268 OA
ATOM      3  N   UNL     1       3.864   2.140  -0.127  0.00  0.00    -0.202 N 
ATOM      4  H   UNL     1       3.156   1.494   0.026  0.00  0.00    +0.178 HD
ENDROOT
BRANCH   1   7
ATOM      5  C   UNL     1       4.751  -2.041  -0.297  0.00  0.00    +0.072 A 
ATOM      6  C   UNL     1       4.419  -0.679  -0.268  0.00  0.00    +0.042 A 
ATOM      7  C   UNL     1       5.426   0.271  -0.375  0.00  0.00    +0.050 A 
ATOM      8  C   UNL     1       6.799  -0.218  -0.501  0.00  0.00    +0.013 A 
ATOM      9  C   UNL     1       7.881   0.662  -0.609  0.00  0.00    +0.011 A 
ATOM     10  C   UNL     1       9.146   0.164  -0.725  0.00  0.00    +0.001 A 
ATOM     11  C   UNL     1       9.373  -1.211  -0.737  0.00  0.00    +0.002 A 
ATOM     12  C   UNL     1       8.343  -2.094  -0.633  0.00  0.00    +0.028 A 
ATOM     13  C   UNL     1       7.024  -1.618  -0.513  0.00  0.00    +0.072 A 
ATOM     14  N   UNL     1       5.994  -2.459  -0.411  0.00  0.00    -0.247 NA
BRANCH   5  18
ATOM     15  C   UNL     1       1.638  -4.920   0.012  0.00  0.00    +0.000 A 
ATOM     16  C   UNL     1       2.952  -5.336  -0.108  0.00  0.00    +0.001 A 
ATOM     17  C   UNL     1       3.966  -4.406  -0.209  0.00  0.00    +0.010 A 
ATOM     18  C   UNL     1       3.666  -3.045  -0.189  0.00  0.00    +0.000 A 
ATOM     19  C   UNL     1       2.340  -2.632  -0.062  0.00  0.00    +0.010 A 
ATOM     20  C   UNL     1       1.333  -3.571   0.032  0.00  0.00    +0.001 A 
ENDBRANCH   5  18
ENDBRANCH   1   7
BRANCH   3  21
ATOM     21  N   UNL     1       3.578   3.511  -0.109  0.00  0.00    -0.179 NA
ATOM     22  C   UNL     1       2.341   3.919   0.002  0.00  0.00    +0.096 C 
BRANCH  22  23
ATOM     23  C   UNL     1       1.231   2.941  -0.058  0.00  0.00    +0.002 A 
ATOM     24  C   UNL     1       1.278   1.883  -0.967  0.00  0.00    +0.010 A 
ATOM     25  C   UNL     1       0.240   0.975  -1.018  0.00  0.00    +0.001 A 
ATOM     26  C   UNL     1      -0.847   1.115  -0.174  0.00  0.00    +0.000 A 
ATOM     27  C   UNL     1      -0.897   2.159   0.733  0.00  0.00    +0.001 A 
ATOM     28  C   UNL     1       0.134   3.073   0.794  0.00  0.00    +0.010 A 
ENDBRANCH  22  23
BRANCH  22  29
ATOM     29  C   UNL     1       2.050   5.358   0.188  0.00  0.00    +0.003 A 
ATOM     30  C   UNL     1       0.730   5.811   0.196  0.00  0.00    +0.012 A 
ATOM     31  C   UNL     1       0.466   7.153   0.376  0.00  0.00    +0.033 A 
ATOM     32  C   UNL     1       1.506   8.051   0.536  0.00  0.00    +0.126 A 
ATOM     33  C   UNL     1       2.817   7.609   0.524  0.00  0.00    +0.033 A 
ATOM     34  C   UNL     1       3.095   6.269   0.351  0.00  0.00    +0.012 A 
BRANCH  32  35
ATOM     35  N   UNL     1       1.215   9.490   0.723  0.00  0.00    +0.056 N 
ATOM     36  O   UNL     1       2.129  10.283   0.866  0.00  0.00    -0.126 OA
ATOM     37  O   UNL     1       0.062   9.882   0.735  0.00  0.00    -0.126 OA
ENDBRANCH  32  35
ENDBRANCH  22  29
ENDBRANCH   3  21
TORSDOF 6
