REMARK  Name = ZINC58929018
REMARK  2 active torsions:
REMARK  status: ('A' for Active; 'I' for Inactive)
REMARK    1  A    between atoms: C_5  and  C_7
REMARK    2  A    between atoms: C_17  and  N_24
REMARK                            x       y       z     vdW  Elec       q    Type
REMARK                         _______ _______ _______ _____ _____    ______ ____
ROOT
ATOM      1  C   UNL     1       1.228  -2.186  -0.022  0.00  0.00    +0.108 C 
ATOM      2  C   UNL     1       1.403  -2.657  -1.451  0.00  0.00    +0.029 C 
ATOM      3  C   UNL     1       2.926  -2.757  -1.743  0.00  0.00    +0.033 C 
ATOM      4  C   UNL     1       3.273  -4.192  -1.416  0.00  0.00    -0.030 C 
ATOM      5  C   UNL     1       2.197  -4.937  -1.377  0.00  0.00    -0.023 C 
ATOM      6  C   UNL     1       0.959  -4.099  -1.683  0.00  0.00    +0.051 C 
ATOM      7  C   UNL     1      -0.233  -4.516  -0.890  0.00  0.00    +0.012 A 
ATOM      8  C   UNL     1      -0.917  -5.668  -1.256  0.00  0.00    +0.132 A 
ATOM      9  C   UNL     1      -2.032  -6.075  -0.553  0.00  0.00    +0.034 A 
ATOM     10  C   UNL     1      -2.482  -5.336   0.527  0.00  0.00    +0.024 A 
ATOM     11  C   UNL     1      -1.806  -4.192   0.903  0.00  0.00    +0.062 A 
ATOM     12  C   UNL     1      -0.677  -3.785   0.200  0.00  0.00    +0.052 A 
ATOM     13  N   UNL     1       0.022  -2.666   0.616  0.00  0.00    -0.335 N 
ATOM     14 CL   UNL     1      -2.368  -3.260   2.256  0.00  0.00    -0.082 Cl
ATOM     15  H   UNL     1      -0.333  -2.165   1.367  0.00  0.00    +0.147 HD
ENDROOT
BRANCH   1  20
ATOM     16  C   UNL     1       2.318   1.407   0.371  0.00  0.00    +0.000 A 
ATOM     17  C   UNL     1       1.171   2.087   0.004  0.00  0.00    +0.003 A 
ATOM     18  C   UNL     1       0.042   1.385  -0.372  0.00  0.00    +0.039 A 
ATOM     19  C   UNL     1       0.059   0.000  -0.381  0.00  0.00    +0.128 A 
ATOM     20  C   UNL     1       1.208  -0.679  -0.013  0.00  0.00    +0.008 A 
ATOM     21  C   UNL     1       2.336   0.025   0.363  0.00  0.00    +0.008 A 
ATOM     22  F   UNL     1      -1.044  -0.687  -0.749  0.00  0.00    -0.205 F 
ENDBRANCH   1  20
BRANCH   8  23
ATOM     23  N   UNL     1      -0.447  -6.465  -2.411  0.00  0.00    +0.057 N 
ATOM     24  O   UNL     1      -1.038  -7.469  -2.734  0.00  0.00    -0.126 OA
ATOM     25  O   UNL     1       0.530  -6.113  -3.031  0.00  0.00    -0.126 OA
ENDBRANCH   8  23
TORSDOF 2
