REMARK  Name = ZINC10245951
REMARK  8 active torsions:
REMARK  status: ('A' for Active; 'I' for Inactive)
REMARK    1  A    between atoms: C_1  and  C_2
REMARK    2  A    between atoms: C_3  and  C_11
REMARK    3  A    between atoms: C_7  and  N_8
REMARK    4  A    between atoms: N_13  and  C_14
REMARK    5  A    between atoms: C_22  and  C_23
REMARK    6  A    between atoms: N_25  and  C_26
REMARK    7  A    between atoms: C_29  and  O_32
REMARK    8  A    between atoms: O_32  and  C_33
REMARK                            x       y       z     vdW  Elec       q    Type
REMARK                         _______ _______ _______ _____ _____    ______ ____
ROOT
ATOM      1  C   UNL     1       4.058  -2.076   7.603  0.00  0.00    +0.092 A 
ATOM      2  C   UNL     1       3.939  -2.646   8.951  0.00  0.00    +0.042 A 
ATOM      3  C   UNL     1       4.583  -3.682   9.627  0.00  0.00    +0.013 A 
ATOM      4  C   UNL     1       4.231  -3.974  10.915  0.00  0.00    +0.001 A 
ATOM      5  C   UNL     1       3.239  -3.244  11.554  0.00  0.00    +0.004 A 
ATOM      6  C   UNL     1       2.591  -2.216  10.903  0.00  0.00    +0.047 A 
ATOM      7  C   UNL     1       2.933  -1.903   9.592  0.00  0.00    +0.138 A 
ATOM      8  O   UNL     1       2.490  -0.972   8.724  0.00  0.00    -0.448 OA
ATOM      9  C   UNL     1       3.139  -1.063   7.542  0.00  0.00    +0.212 A 
ENDROOT
BRANCH   1  12
ATOM     10  C   UNL     1       6.180  -2.865   6.902  0.00  0.00    +0.249 C 
ATOM     11  O   UNL     1       6.512  -2.989   8.065  0.00  0.00    -0.270 OA
ATOM     12  N   UNL     1       4.925  -2.481   6.596  0.00  0.00    -0.278 N 
ATOM     13  H   UNL     1       4.626  -2.489   5.673  0.00  0.00    +0.155 HD
BRANCH  10  16
ATOM     14  C   UNL     1       8.925  -3.485   7.575  0.00  0.00    +0.047 C 
ATOM     15  C   UNL     1       8.481  -3.434   6.136  0.00  0.00    -0.008 A 
ATOM     16  C   UNL     1       7.154  -3.134   5.823  0.00  0.00    +0.042 A 
ATOM     17  C   UNL     1       6.752  -3.083   4.487  0.00  0.00    +0.013 A 
ATOM     18  C   UNL     1       7.666  -3.335   3.485  0.00  0.00    +0.003 A 
ATOM     19  C   UNL     1       8.979  -3.638   3.802  0.00  0.00    +0.033 A 
ATOM     20  C   UNL     1       9.383  -3.690   5.124  0.00  0.00    +0.130 A 
BRANCH  20  21
ATOM     21  N   UNL     1      10.789  -4.016   5.454  0.00  0.00    +0.057 N 
ATOM     22  O   UNL     1      11.625  -4.070   4.569  0.00  0.00    -0.126 OA
ATOM     23  O   UNL     1      11.110  -4.229   6.609  0.00  0.00    -0.126 OA
ENDBRANCH  20  21
ENDBRANCH  10  16
ENDBRANCH   1  12
BRANCH   9  24
ATOM     24  C   UNL     1       2.902  -0.209   6.381  0.00  0.00    +0.285 C 
ATOM     25  O   UNL     1       3.481  -0.431   5.333  0.00  0.00    -0.266 OA
ATOM     26  N   UNL     1       2.042   0.825   6.469  0.00  0.00    -0.279 N 
ATOM     27  H   UNL     1       1.627   1.039   7.319  0.00  0.00    +0.155 HD
BRANCH  26  28
ATOM     28  C   UNL     1       1.749   1.591   5.334  0.00  0.00    +0.034 A 
ATOM     29  C   UNL     1       0.475   2.115   5.161  0.00  0.00    +0.027 A 
ATOM     30  C   UNL     1       0.185   2.870   4.041  0.00  0.00    +0.048 A 
ATOM     31  C   UNL     1       1.168   3.104   3.090  0.00  0.00    +0.130 A 
ATOM     32  C   UNL     1       2.439   2.576   3.260  0.00  0.00    +0.048 A 
ATOM     33  C   UNL     1       2.731   1.826   4.382  0.00  0.00    +0.027 A 
BRANCH  31  34
ATOM     34  O   UNL     1       0.882   3.847   1.987  0.00  0.00    -0.406 OA
BRANCH  34  35
ATOM     35  C   UNL     1       1.941   4.049   1.049  0.00  0.00    +0.575 C 
ATOM     36  F   UNL     1       2.377   2.811   0.565  0.00  0.00    -0.133 F 
ATOM     37  F   UNL     1       3.004   4.704   1.679  0.00  0.00    -0.133 F 
ATOM     38  F   UNL     1       1.478   4.829  -0.016  0.00  0.00    -0.133 F 
ENDBRANCH  34  35
ENDBRANCH  31  34
ENDBRANCH  26  28
ENDBRANCH   9  24
TORSDOF 7
