REMARK  Name = ZINC39464532
REMARK  8 active torsions:
REMARK  status: ('A' for Active; 'I' for Inactive)
REMARK    1  A    between atoms: C_1  and  C_2
REMARK    2  A    between atoms: C_2  and  C_3
REMARK    3  A    between atoms: C_2  and  S_4
REMARK    4  A    between atoms: S_4  and  C_7
REMARK    5  A    between atoms: C_12  and  C_13
REMARK    6  A    between atoms: C_13  and  C_14
REMARK    7  A    between atoms: P_24  and  C_30
REMARK    8  A    between atoms: C_35  and  O_36
REMARK                            x       y       z     vdW  Elec       q    Type
REMARK                         _______ _______ _______ _____ _____    ______ ____
ROOT
ATOM      1  C   UNL     1       1.045   0.048  -2.227  0.00  0.00    +0.092 A 
ATOM      2  C   UNL     1       1.602  -1.178  -2.531  0.00  0.00    +0.031 A 
ATOM      3  C   UNL     1       2.858  -1.514  -2.051  0.00  0.00    -0.040 A 
ATOM      4  C   UNL     1       3.557  -0.622  -1.267  0.00  0.00    -0.023 A 
ATOM      5  C   UNL     1       2.996   0.611  -0.964  0.00  0.00    +0.011 A 
ATOM      6  C   UNL     1       1.747   0.947  -1.447  0.00  0.00    -0.018 A 
ATOM      7  C   UNL     1       4.924  -0.937  -0.718  0.00  0.00    +0.129 C 
ATOM      8  C   UNL     1       5.818   0.298  -0.863  0.00  0.00    +0.194 C 
ATOM      9  O   UNL     1       7.084   0.028  -0.231  0.00  0.00    -0.311 OA
ATOM     10  P   UNL     1       7.857  -1.351  -0.613  0.00  0.00    +0.318 P 
ATOM     11  O   UNL     1       8.592  -1.190  -1.887  0.00  0.00    -0.266 OA
ATOM     12  N   UNL     1       6.674  -2.495  -0.776  0.00  0.00    -0.175 NA
ATOM     13  N   UNL     1       5.519  -2.080  -1.409  0.00  0.00    -0.225 NA
ATOM     14  C   UNL     1       4.575  -3.206  -1.474  0.00  0.00    +0.108 C 
ATOM     15  C   UNL     1       3.429  -2.862  -2.407  0.00  0.00    +0.052 C 
ATOM     16  H   UNL     1       6.793  -3.401  -0.453  0.00  0.00    +0.151 HD
ENDROOT
BRANCH  10  17
ATOM     17  C   UNL     1       9.003  -1.816   0.715  0.00  0.00    +0.094 A 
ATOM     18  C   UNL     1       8.574  -2.630   1.745  0.00  0.00    +0.018 A 
ATOM     19  C   UNL     1       9.447  -2.984   2.757  0.00  0.00    +0.001 A 
ATOM     20  C   UNL     1      10.751  -2.525   2.741  0.00  0.00    +0.004 A 
ATOM     21  C   UNL     1      11.185  -1.711   1.713  0.00  0.00    +0.046 A 
ATOM     22  C   UNL     1      10.313  -1.359   0.693  0.00  0.00    +0.131 A 
BRANCH  22  23
ATOM     23  O   UNL     1      10.739  -0.563  -0.323  0.00  0.00    -0.506 OA
ATOM     24  H   UNL     1      10.620   0.383  -0.158  0.00  0.00    +0.292 HD
ENDBRANCH  22  23
ENDBRANCH  10  17
BRANCH   1  25
ATOM     25  S   UNL     1      -0.553   0.469  -2.839  0.00  0.00    -0.001 S 
ATOM     26  O   UNL     1      -0.918   1.641  -2.123  0.00  0.00    -0.169 OA
ATOM     27  O   UNL     1      -1.315  -0.724  -2.713  0.00  0.00    -0.169 OA
BRANCH  25  29
ATOM     28  C   UNL     1       0.263  -0.367  -5.312  0.00  0.00    +0.032 C 
ATOM     29  C   UNL     1      -0.293   0.862  -4.591  0.00  0.00    +0.130 C 
ATOM     30  C   UNL     1      -1.625   1.267  -5.226  0.00  0.00    +0.032 C 
ENDBRANCH  25  29
ENDBRANCH   1  25
BRANCH   6  31
ATOM     31  C   UNL     1       1.148   2.291  -1.119  0.00  0.00    +0.072 C 
BRANCH  31  32
ATOM     32  C   UNL     1       0.479   2.227   0.230  0.00  0.00    -0.043 A 
ATOM     33  C   UNL     1      -0.375   1.181   0.529  0.00  0.00    +0.004 A 
ATOM     34  C   UNL     1      -0.989   1.123   1.766  0.00  0.00    +0.000 A 
ATOM     35  C   UNL     1      -0.748   2.109   2.704  0.00  0.00    +0.000 A 
ATOM     36  C   UNL     1       0.106   3.153   2.406  0.00  0.00    +0.000 A 
ATOM     37  C   UNL     1       0.723   3.210   1.170  0.00  0.00    +0.004 A 
ENDBRANCH  31  32
ENDBRANCH   6  31
TORSDOF 6
