REMARK  Name = ZINC48439681
REMARK  3 active torsions:
REMARK  status: ('A' for Active; 'I' for Inactive)
REMARK    1  A    between atoms: C_4  and  C_7
REMARK    2  A    between atoms: C_7  and  C_9
REMARK    3  A    between atoms: C_9  and  N_10
REMARK                            x       y       z     vdW  Elec       q    Type
REMARK                         _______ _______ _______ _____ _____    ______ ____
ROOT
ATOM      1  C   UNL     1       3.064  -2.366  -0.040  0.00  0.00    +0.223 C 
ENDROOT
BRANCH   1   2
ATOM      2  N   UNL     1       3.159  -3.828  -0.050  0.00  0.00    -0.261 N 
ATOM      3  C   UNL     1       3.831  -4.574  -0.951  0.00  0.00    +0.126 A 
ATOM      4  C   UNL     1       3.673  -5.875  -0.610  0.00  0.00    +0.086 A 
ATOM      5  C   UNL     1       2.877  -5.924   0.540  0.00  0.00    +0.249 A 
ATOM      6  N   UNL     1       2.573  -4.697   0.879  0.00  0.00    -0.145 NA
ATOM      7  N   UNL     1       2.457  -7.151   1.252  0.00  0.00    +0.078 N 
ATOM      8  O   UNL     1       2.805  -8.236   0.846  0.00  0.00    -0.125 OA
ATOM      9  O   UNL     1       1.765  -7.070   2.241  0.00  0.00    -0.125 OA
ATOM     10 BR   UNL     1       4.399  -7.362  -1.525  0.00  0.00    -0.045 Br
ENDBRANCH   1   2
BRANCH   1  11
ATOM     11  C   UNL     1       1.613  -1.957  -0.024  0.00  0.00    +0.192 C 
ATOM     12  O   UNL     1       0.743  -2.804  -0.021  0.00  0.00    -0.289 OA
BRANCH  11  16
ATOM     13  C   UNL     1      -0.017   1.369   0.010  0.00  0.00    +0.023 A 
ATOM     14  C   UNL     1       1.160   2.045   0.002  0.00  0.00    +0.047 A 
ATOM     15  S   UNL     1       2.331   0.841  -0.016  0.00  0.00    -0.093 S 
ATOM     16  C   UNL     1       1.266  -0.589  -0.013  0.00  0.00    +0.070 A 
ATOM     17  C   UNL     1       0.002  -0.004   0.002  0.00  0.00    +0.035 A 
ATOM     18 BR   UNL     1      -1.584  -1.033   0.012  0.00  0.00    -0.049 Br
ENDBRANCH  11  16
ENDBRANCH   1  11
TORSDOF 3
