REMARK  Name = ZINC35728997
REMARK  13 active torsions:
REMARK  status: ('A' for Active; 'I' for Inactive)
REMARK    1  A    between atoms: C_1  and  C_2
REMARK    2  A    between atoms: C_2  and  C_3
REMARK    3  A    between atoms: C_3  and  C_5
REMARK    4  A    between atoms: C_3  and  C_6
REMARK    5  A    between atoms: C_6  and  C_8
REMARK    6  A    between atoms: C_6  and  N_25
REMARK    7  A    between atoms: C_14  and  C_16
REMARK    8  A    between atoms: C_19  and  N_22
REMARK    9  A    between atoms: N_22  and  C_23
REMARK   10  A    between atoms: N_22  and  C_24
REMARK   11  A    between atoms: C_26  and  C_28
REMARK   12  A    between atoms: C_28  and  O_29
REMARK   13  A    between atoms: O_29  and  C_30
REMARK                            x       y       z     vdW  Elec       q    Type
REMARK                         _______ _______ _______ _____ _____    ______ ____
ROOT
ATOM      1  C   UNL     1      -1.455  -2.079   0.204  0.00  0.00    +0.162 C 
ENDROOT
BRANCH   1   2
ATOM      2  C   UNL     1      -0.535  -2.729  -0.798  0.00  0.00    +0.239 C 
ATOM      3  O   UNL     1       0.349  -3.467  -0.419  0.00  0.00    -0.273 OA
ATOM      4  N   UNL     1      -0.697  -2.490  -2.115  0.00  0.00    -0.262 N 
ATOM      5  C   UNL     1       0.211  -3.008  -3.031  0.00  0.00    +0.188 A 
ATOM      6  N   UNL     1       1.288  -3.757  -2.834  0.00  0.00    -0.125 NA
ATOM      7  N   UNL     1       2.013  -4.147  -3.789  0.00  0.00    -0.140 NA
ATOM      8  C   UNL     1       1.741  -3.832  -5.050  0.00  0.00    +0.134 A 
ATOM      9  S   UNL     1       0.255  -2.860  -4.815  0.00  0.00    -0.030 S 
ATOM     10  H   UNL     1      -1.446  -1.956  -2.422  0.00  0.00    +0.157 HD
BRANCH   8  11
ATOM     11  C   UNL     1       2.458  -4.186  -6.293  0.00  0.00    +0.009 A 
ATOM     12  C   UNL     1       1.986  -3.730  -7.526  0.00  0.00    +0.012 A 
ATOM     13  C   UNL     1       2.657  -4.062  -8.683  0.00  0.00    +0.024 A 
ATOM     14  C   UNL     1       3.801  -4.850  -8.624  0.00  0.00    +0.029 A 
ATOM     15  C   UNL     1       4.272  -5.305  -7.398  0.00  0.00    +0.024 A 
ATOM     16  C   UNL     1       3.610  -4.971  -6.236  0.00  0.00    +0.012 A 
BRANCH  14  17
ATOM     17  N   UNL     1       4.477  -5.184  -9.798  0.00  0.00    -0.336 N 
ATOM     18  C   UNL     1       3.982  -4.706 -11.091  0.00  0.00    +0.129 C 
ATOM     19  C   UNL     1       5.683  -6.015  -9.738  0.00  0.00    +0.129 C 
ENDBRANCH  14  17
ENDBRANCH   8  11
ENDBRANCH   1   2
BRANCH   1  20
ATOM     20  N   UNL     1      -1.406  -2.822   1.465  0.00  0.00    -0.301 N 
ATOM     21  C   UNL     1      -2.451  -2.776   2.315  0.00  0.00    +0.251 C 
ATOM     22  O   UNL     1      -3.432  -2.120   2.035  0.00  0.00    -0.272 OA
ATOM     23  H   UNL     1      -0.622  -3.347   1.689  0.00  0.00    +0.150 HD
BRANCH  21  24
ATOM     24  C   UNL     1      -2.401  -3.541   3.613  0.00  0.00    +0.324 C 
BRANCH  24  25
ATOM     25  O   UNL     1      -3.618  -3.336   4.334  0.00  0.00    -0.483 OA
BRANCH  25  26
ATOM     26  C   UNL     1      -3.736  -3.960   5.535  0.00  0.00    +0.121 A 
ATOM     27  C   UNL     1      -2.700  -4.750   6.012  0.00  0.00    +0.047 A 
ATOM     28  C   UNL     1      -2.822  -5.384   7.234  0.00  0.00    +0.023 A 
ATOM     29  C   UNL     1      -3.977  -5.232   7.981  0.00  0.00    +0.041 A 
ATOM     30  C   UNL     1      -5.012  -4.445   7.506  0.00  0.00    +0.023 A 
ATOM     31  C   UNL     1      -4.891  -3.804   6.288  0.00  0.00    +0.047 A 
ATOM     32 CL   UNL     1      -4.128  -6.030   9.515  0.00  0.00    -0.084 Cl
ENDBRANCH  25  26
ENDBRANCH  24  25
ENDBRANCH  21  24
ENDBRANCH   1  20
BRANCH   1  33
ATOM     33  C   UNL     1      -1.008  -0.635   0.445  0.00  0.00    +0.015 C 
ATOM     34  C   UNL     1       0.393  -0.631   1.061  0.00  0.00    +0.010 C 
BRANCH  33  36
ATOM     35  C   UNL     1      -1.612   1.526   1.544  0.00  0.00    +0.004 C 
ATOM     36  C   UNL     1      -1.987   0.049   1.401  0.00  0.00    +0.002 C 
ENDBRANCH  33  36
ENDBRANCH   1  33
TORSDOF 9
