REMARK  Name = ZINC28679171
REMARK  12 active torsions:
REMARK  status: ('A' for Active; 'I' for Inactive)
REMARK    1  A    between atoms: C_1  and  C_2
REMARK    2  A    between atoms: C_2  and  O_3
REMARK    3  A    between atoms: O_3  and  C_4
REMARK    4  A    between atoms: C_11  and  C_18
REMARK    5  A    between atoms: C_13  and  O_14
REMARK    6  A    between atoms: C_18  and  O_19
REMARK    7  A    between atoms: O_19  and  C_20
REMARK    8  A    between atoms: C_20  and  C_22
REMARK    9  A    between atoms: C_22  and  N_23
REMARK   10  A    between atoms: C_24  and  C_26
REMARK   11  A    between atoms: C_28  and  C_33
REMARK   12  A    between atoms: C_30  and  C_32
REMARK                            x       y       z     vdW  Elec       q    Type
REMARK                         _______ _______ _______ _____ _____    ______ ____
ROOT
ATOM      1  C   UNL     1       6.025   3.425  -0.527  0.00  0.00    +0.405 C 
ATOM      2  O   UNL     1       5.925   2.338  -1.059  0.00  0.00    -0.226 OA
ATOM      3  N   UNL     1       4.932   4.031  -0.020  0.00  0.00    -0.251 N 
ATOM      4  C   UNL     1       3.707   3.363  -0.007  0.00  0.00    +0.040 A 
ATOM      5  C   UNL     1       2.524   4.082  -0.176  0.00  0.00    +0.024 A 
ATOM      6  C   UNL     1       1.319   3.443  -0.165  0.00  0.00    +0.014 A 
ATOM      7  C   UNL     1       1.269   2.056   0.016  0.00  0.00    +0.024 A 
ATOM      8  C   UNL     1      -0.011   1.344   0.033  0.00  0.00    +0.007 A 
ATOM      9  C   UNL     1       0.006  -0.002   0.213  0.00  0.00    +0.095 A 
ATOM     10  C   UNL     1       1.236  -0.673   0.377  0.00  0.00    +0.285 A 
ATOM     11  O   UNL     1       2.405  -0.014   0.361  0.00  0.00    -0.425 OA
ATOM     12  C   UNL     1       2.459   1.324   0.186  0.00  0.00    +0.141 A 
ATOM     13  C   UNL     1       3.675   1.988   0.173  0.00  0.00    +0.070 A 
ATOM     14  H   UNL     1       5.006   5.052   0.383  0.00  0.00    +0.158 HD
ENDROOT
BRANCH  10  15
ATOM     15  O   UNL     1       1.236  -1.880   0.537  0.00  0.00    -0.480 OA
ATOM     16  H   UNL     1       2.188  -2.417   0.667  0.00  0.00    +0.295 HD
ENDBRANCH  10  15
BRANCH   1  17
ATOM     17  O   UNL     1       7.227   4.026  -0.443  0.00  0.00    -0.450 OA
BRANCH  17  19
ATOM     18  C   UNL     1       9.629   4.147  -0.821  0.00  0.00    +0.048 C 
ATOM     19  C   UNL     1       8.359   3.315  -1.010  0.00  0.00    +0.230 C 
ENDBRANCH  17  19
ENDBRANCH   1  17
BRANCH   8  20
ATOM     20  C   UNL     1      -1.310   2.084  -0.151  0.00  0.00    +0.268 C 
BRANCH  20  21
ATOM     21  O   UNL     1      -2.415   1.143  -0.098  0.00  0.00    -0.459 OA
BRANCH  21  22
ATOM     22  C   UNL     1      -3.651   1.645  -0.246  0.00  0.00    +0.325 C 
ATOM     23  O   UNL     1      -3.805   2.832  -0.414  0.00  0.00    -0.249 OA
BRANCH  22  24
ATOM     24  C   UNL     1      -4.847   0.729  -0.203  0.00  0.00    +0.225 C 
BRANCH  24  25
ATOM     25  N   UNL     1      -6.070   1.514  -0.387  0.00  0.00    -0.301 N 
ATOM     26  C   UNL     1      -7.270   0.901  -0.385  0.00  0.00    +0.245 C 
ATOM     27  O   UNL     1      -7.338  -0.303  -0.229  0.00  0.00    -0.270 OA
ATOM     28  H   UNL     1      -6.009   2.603  -0.528  0.00  0.00    +0.150 HD
BRANCH  26  29
ATOM     29  C   UNL     1      -8.505   1.692  -0.571  0.00  0.00    +0.037 A 
ATOM     30  C   UNL     1      -8.431   3.075  -0.744  0.00  0.00    +0.016 A 
ATOM     31  C   UNL     1      -9.587   3.808  -0.923  0.00  0.00    -0.049 A 
ATOM     32  C   UNL     1     -10.817   3.176  -0.919  0.00  0.00    +0.006 A 
ATOM     33  C   UNL     1     -10.898   1.806  -0.743  0.00  0.00    -0.049 A 
ATOM     34  C   UNL     1      -9.750   1.061  -0.569  0.00  0.00    +0.016 A 
ATOM     35  C   UNL     1     -12.243   1.125  -0.741  0.00  0.00    +0.044 C 
ATOM     36  C   UNL     1      -9.509   5.300  -1.116  0.00  0.00    +0.044 C 
ENDBRANCH  26  29
ENDBRANCH  24  25
ENDBRANCH  22  24
ENDBRANCH  21  22
ENDBRANCH  20  21
ENDBRANCH   8  20
TORSDOF 9
