REMARK  Name = ZINC12638280
REMARK  11 active torsions:
REMARK  status: ('A' for Active; 'I' for Inactive)
REMARK    1  A    between atoms: C_1  and  C_2
REMARK    2  A    between atoms: C_2  and  O_3
REMARK    3  A    between atoms: O_3  and  C_4
REMARK    4  A    between atoms: C_7  and  C_10
REMARK    5  A    between atoms: C_10  and  C_12
REMARK    6  A    between atoms: C_10  and  N_20
REMARK    7  A    between atoms: N_14  and  C_15
REMARK    8  A    between atoms: N_20  and  C_21
REMARK    9  A    between atoms: C_23  and  C_28
REMARK   10  A    between atoms: C_26  and  C_27
REMARK   11  A    between atoms: C_29  and  C_31
REMARK                            x       y       z     vdW  Elec       q    Type
REMARK                         _______ _______ _______ _____ _____    ______ ____
ROOT
ATOM      1  N   UNL     1       4.123  -1.979   0.190  0.00  0.00    -0.251 N 
ATOM      2  C   UNL     1       3.704  -0.947  -0.569  0.00  0.00    +0.252 C 
ATOM      3  O   UNL     1       4.154  -0.792  -1.688  0.00  0.00    -0.270 OA
ENDROOT
BRANCH   2   4
ATOM      4  C   UNL     1       2.698  -0.005  -0.041  0.00  0.00    +0.041 A 
ATOM      5  C   UNL     1       1.747   0.557  -0.897  0.00  0.00    +0.017 A 
ATOM      6  C   UNL     1       0.811   1.437  -0.402  0.00  0.00    +0.050 A 
ATOM      7  C   UNL     1       0.808   1.771   0.948  0.00  0.00    +0.162 A 
ATOM      8  C   UNL     1       1.751   1.213   1.806  0.00  0.00    +0.163 A 
ATOM      9  C   UNL     1       2.695   0.329   1.315  0.00  0.00    +0.062 A 
ATOM     10  O   UNL     1       1.756   1.523   3.132  0.00  0.00    -0.485 OA
ATOM     11  C   UNL     1       1.032   2.696   3.521  0.00  0.00    +0.270 C 
ATOM     12  C   UNL     1      -0.337   2.668   2.828  0.00  0.00    +0.270 C 
ATOM     13  O   UNL     1      -0.121   2.649   1.412  0.00  0.00    -0.485 OA
ENDBRANCH   2   4
BRANCH   1  14
ATOM     14  C   UNL     1       3.539  -2.212   1.439  0.00  0.00    +0.041 A 
ATOM     15  C   UNL     1       4.237  -1.911   2.601  0.00  0.00    +0.027 A 
ATOM     16  C   UNL     1       3.656  -2.138   3.833  0.00  0.00    -0.049 A 
ATOM     17  C   UNL     1       2.384  -2.674   3.910  0.00  0.00    +0.004 A 
ATOM     18  C   UNL     1       1.688  -2.980   2.755  0.00  0.00    +0.005 A 
ATOM     19  C   UNL     1       2.262  -2.751   1.520  0.00  0.00    -0.029 A 
ATOM     20  C   UNL     1       1.502  -3.084   0.262  0.00  0.00    +0.045 C 
ATOM     21  C   UNL     1       4.412  -1.807   5.094  0.00  0.00    +0.044 C 
ENDBRANCH   1  14
BRANCH   1  22
ATOM     22  C   UNL     1       5.191  -2.857  -0.295  0.00  0.00    +0.197 C 
BRANCH  22  26
ATOM     23  C   UNL     1       6.313  -5.578   2.804  0.00  0.00    +0.121 A 
ATOM     24  C   UNL     1       7.261  -4.734   2.243  0.00  0.00    +0.046 A 
ATOM     25  C   UNL     1       6.896  -3.856   1.242  0.00  0.00    +0.009 A 
ATOM     26  C   UNL     1       5.587  -3.817   0.798  0.00  0.00    -0.018 A 
ATOM     27  C   UNL     1       4.639  -4.652   1.359  0.00  0.00    +0.009 A 
ATOM     28  C   UNL     1       5.000  -5.537   2.357  0.00  0.00    +0.046 A 
BRANCH  23  29
ATOM     29  O   UNL     1       6.669  -6.442   3.790  0.00  0.00    -0.492 OA
BRANCH  29  31
ATOM     30  C   UNL     1       6.228  -8.179   5.412  0.00  0.00    +0.048 C 
ATOM     31  C   UNL     1       5.641  -7.281   4.321  0.00  0.00    +0.225 C 
ENDBRANCH  29  31
ENDBRANCH  23  29
ENDBRANCH  22  26
BRANCH  22  32
ATOM     32  C   UNL     1       4.701  -3.632  -1.490  0.00  0.00    +0.239 C 
ATOM     33  O   UNL     1       3.571  -3.467  -1.898  0.00  0.00    -0.273 OA
ATOM     34  N   UNL     1       5.519  -4.509  -2.107  0.00  0.00    -0.311 N 
ATOM     35  H   UNL     1       6.423  -4.641  -1.781  0.00  0.00    +0.149 HD
BRANCH  34  36
ATOM     36  C   UNL     1       5.042  -5.262  -3.269  0.00  0.00    +0.073 C 
ATOM     37  C   UNL     1       4.352  -6.563  -2.809  0.00  0.00    +0.022 C 
ATOM     38  C   UNL     1       4.756  -7.606  -3.881  0.00  0.00    +0.002 C 
ATOM     39  C   UNL     1       6.224  -7.226  -4.192  0.00  0.00    +0.002 C 
ATOM     40  C   UNL     1       6.232  -5.684  -4.149  0.00  0.00    +0.022 C 
ENDBRANCH  34  36
ENDBRANCH  22  32
ENDBRANCH   1  22
TORSDOF 8
