REMARK  Name = ZINC25784893
REMARK  5 active torsions:
REMARK  status: ('A' for Active; 'I' for Inactive)
REMARK    1  A    between atoms: C_1  and  C_2
REMARK    2  A    between atoms: C_2  and  C_3
REMARK    3  A    between atoms: C_10  and  N_12
REMARK    4  A    between atoms: C_13  and  C_15
REMARK    5  A    between atoms: C_17  and  N_21
REMARK                            x       y       z     vdW  Elec       q    Type
REMARK                         _______ _______ _______ _____ _____    ______ ____
ROOT
ATOM      1  N   UNL     1       0.562   9.193   2.095  0.00  0.00    -0.181 NA
ATOM      2  C   UNL     1      -0.314  10.095   1.611  0.00  0.00    +0.296 C 
ATOM      3  O   UNL     1      -1.319   9.721   1.039  0.00  0.00    -0.264 OA
ENDROOT
BRANCH   1  11
ATOM      4  C   UNL     1      -0.749   3.086   1.275  0.00  0.00    -0.046 A 
ATOM      5  C   UNL     1      -1.802   3.776   0.690  0.00  0.00    +0.006 A 
ATOM      6  C   UNL     1      -1.844   5.146   0.683  0.00  0.00    +0.029 A 
ATOM      7  C   UNL     1      -0.809   5.904   1.278  0.00  0.00    +0.081 A 
ATOM      8  C   UNL     1       0.246   5.167   1.865  0.00  0.00    +0.041 A 
ATOM      9  C   UNL     1       0.278   3.795   1.871  0.00  0.00    +0.021 A 
ATOM     10  S   UNL     1       1.307   6.452   2.481  0.00  0.00    -0.048 S 
ATOM     11  C   UNL     1       0.318   7.839   1.940  0.00  0.00    +0.197 A 
ATOM     12  N   UNL     1      -0.699   7.247   1.357  0.00  0.00    -0.221 NA
BRANCH   4  14
ATOM     13  C   UNL     1      -0.013   1.086   0.008  0.00  0.00    +0.009 C 
ATOM     14  C   UNL     1      -0.729   1.579   1.267  0.00  0.00    +0.032 C 
ENDBRANCH   4  14
ENDBRANCH   1  11
BRANCH   2  15
ATOM     15  C   UNL     1      -0.053  11.544   1.778  0.00  0.00    +0.108 A 
ATOM     16  C   UNL     1      -0.959  12.470   1.271  0.00  0.00    +0.054 A 
ATOM     17  C   UNL     1      -0.701  13.829   1.441  0.00  0.00    +0.033 A 
ATOM     18  C   UNL     1       0.467  14.203   2.105  0.00  0.00    +0.040 A 
ATOM     19  C   UNL     1       1.321  13.223   2.575  0.00  0.00    +0.085 A 
ATOM     20  N   UNL     1       1.047  11.947   2.404  0.00  0.00    -0.357 N 
ATOM     21  H   UNL     1       1.759  11.206   2.797  0.00  0.00    +0.165 HD
BRANCH  17  22
ATOM     22  N   UNL     1      -1.583  14.790   0.955  0.00  0.00    -0.325 N 
ATOM     23  C   UNL     1      -1.809  14.615  -0.488  0.00  0.00    +0.133 C 
ATOM     24  C   UNL     1      -2.829  15.651  -0.968  0.00  0.00    +0.178 C 
ATOM     25  O   UNL     1      -2.355  16.962  -0.648  0.00  0.00    -0.377 OA
ATOM     26  C   UNL     1      -2.125  17.167   0.748  0.00  0.00    +0.178 C 
ATOM     27  C   UNL     1      -1.098  16.147   1.246  0.00  0.00    +0.133 C 
ENDBRANCH  17  22
ENDBRANCH   2  15
TORSDOF 4
