REMARK  Name = ZINC21599089
REMARK  11 active torsions:
REMARK  status: ('A' for Active; 'I' for Inactive)
REMARK    1  A    between atoms: C_1  and  C_2
REMARK    2  A    between atoms: C_4  and  C_8
REMARK    3  A    between atoms: C_5  and  C_7
REMARK    4  A    between atoms: C_14  and  C_16
REMARK    5  A    between atoms: C_18  and  O_29
REMARK    6  A    between atoms: C_19  and  O_27
REMARK    7  A    between atoms: C_20  and  O_25
REMARK    8  A    between atoms: C_21  and  N_22
REMARK    9  A    between atoms: O_25  and  C_26
REMARK   10  A    between atoms: O_27  and  C_28
REMARK   11  A    between atoms: O_29  and  C_30
REMARK                            x       y       z     vdW  Elec       q    Type
REMARK                         _______ _______ _______ _____ _____    ______ ____
ROOT
ATOM      1  C   UNL     1       2.557  -2.466   0.973  0.00  0.00    +0.081 A 
ATOM      2  C   UNL     1       3.677  -1.482   1.020  0.00  0.00    +0.077 A 
ATOM      3  S   UNL     1       2.817   0.013   0.809  0.00  0.00    -0.060 S 
ATOM      4  C   UNL     1       1.168  -0.659   0.689  0.00  0.00    +0.165 A 
ATOM      5  N   UNL     1       1.356  -1.966   0.806  0.00  0.00    -0.225 NA
ATOM      6  N   UNL     1      -0.004   0.012   0.513  0.00  0.00    -0.261 N 
ATOM      7  C   UNL     1      -0.003   1.356   0.413  0.00  0.00    +0.252 C 
ATOM      8  O   UNL     1       1.044   1.970   0.480  0.00  0.00    -0.270 OA
ATOM      9  H   UNL     1      -0.952  -0.544   0.452  0.00  0.00    +0.157 HD
ENDROOT
BRANCH   1  13
ATOM     10  C   UNL     1       5.443  -6.518   1.588  0.00  0.00    +0.051 C 
ATOM     11  C   UNL     1       4.179  -5.721   1.391  0.00  0.00    -0.012 A 
ATOM     12  C   UNL     1       4.052  -4.388   1.277  0.00  0.00    +0.021 A 
ATOM     13  C   UNL     1       2.776  -3.849   1.099  0.00  0.00    +0.011 A 
ATOM     14  C   UNL     1       1.676  -4.824   1.059  0.00  0.00    -0.004 A 
ATOM     15  S   UNL     1       2.511  -6.330   1.256  0.00  0.00    -0.098 S 
ATOM     16  C   UNL     1       0.200  -4.577   0.888  0.00  0.00    +0.052 C 
ENDBRANCH   1  13
BRANCH   7  17
ATOM     17  C   UNL     1      -1.272   2.082   0.216  0.00  0.00    +0.075 A 
ATOM     18  C   UNL     1      -2.476   1.376   0.127  0.00  0.00    +0.065 A 
ATOM     19  C   UNL     1      -3.664   2.059  -0.051  0.00  0.00    +0.166 A 
ATOM     20  C   UNL     1      -3.661   3.448  -0.154  0.00  0.00    +0.206 A 
ATOM     21  C   UNL     1      -2.463   4.153  -0.072  0.00  0.00    +0.196 A 
ATOM     22  C   UNL     1      -1.273   3.475   0.113  0.00  0.00    +0.183 A 
BRANCH  22  23
ATOM     23  N   UNL     1       0.001   4.225   0.200  0.00  0.00    +0.061 N 
ATOM     24  O   UNL     1       0.694   4.475  -0.892  0.00  0.00    -0.126 OA
ATOM     25  O   UNL     1       0.440   4.643   1.369  0.00  0.00    -0.126 OA
ENDBRANCH  22  23
BRANCH  21  26
ATOM     26  O   UNL     1      -2.465   5.509  -0.172  0.00  0.00    -0.489 OA
ATOM     27  C   UNL     1      -2.413   6.062  -1.489  0.00  0.00    +0.277 C 
ENDBRANCH  21  26
BRANCH  20  28
ATOM     28  O   UNL     1      -4.830   4.116  -0.336  0.00  0.00    -0.488 OA
ATOM     29  C   UNL     1      -5.534   4.525   0.839  0.00  0.00    +0.277 C 
ENDBRANCH  20  28
BRANCH  19  30
ATOM     30  O   UNL     1      -4.835   1.373  -0.133  0.00  0.00    -0.491 OA
ATOM     31  C   UNL     1      -4.764  -0.049  -0.019  0.00  0.00    +0.277 C 
ENDBRANCH  19  30
ENDBRANCH   7  17
TORSDOF 6
