REMARK  Name = ZINC10820288
REMARK  8 active torsions:
REMARK  status: ('A' for Active; 'I' for Inactive)
REMARK    1  A    between atoms: C_1  and  C_2
REMARK    2  A    between atoms: C_2  and  S_3
REMARK    3  A    between atoms: S_3  and  C_4
REMARK    4  A    between atoms: C_10  and  C_12
REMARK    5  A    between atoms: C_12  and  O_13
REMARK    6  A    between atoms: O_13  and  C_14
REMARK    7  A    between atoms: C_26  and  C_33
REMARK    8  A    between atoms: C_29  and  C_32
REMARK                            x       y       z     vdW  Elec       q    Type
REMARK                         _______ _______ _______ _____ _____    ______ ____
ROOT
ATOM      1  C   UNL     1      -0.149   1.182   2.379  0.00  0.00    +0.147 A 
ATOM      2  C   UNL     1       0.985   0.404   2.424  0.00  0.00    +0.048 A 
ATOM      3  C   UNL     1       1.541   0.023   3.642  0.00  0.00    +0.004 A 
ATOM      4  C   UNL     1       0.978   0.411   4.820  0.00  0.00    +0.010 A 
ATOM      5  C   UNL     1      -0.179   1.206   4.814  0.00  0.00    +0.004 A 
ATOM      6  C   UNL     1      -0.751   1.604   3.583  0.00  0.00    +0.115 A 
ATOM      7  N   UNL     1      -1.850   2.366   3.572  0.00  0.00    -0.228 NA
ATOM      8  C   UNL     1      -2.417   2.764   4.692  0.00  0.00    +0.122 A 
ATOM      9  C   UNL     1      -1.895   2.408   5.944  0.00  0.00    +0.044 A 
ATOM     10  C   UNL     1      -0.784   1.623   6.018  0.00  0.00    +0.013 A 
ATOM     11  N   UNL     1      -3.555   3.555   4.632  0.00  0.00    -0.315 N 
ATOM     12  C   UNL     1      -4.660   2.944   5.383  0.00  0.00    +0.109 C 
ATOM     13  C   UNL     1      -5.849   3.907   5.417  0.00  0.00    +0.004 C 
ATOM     14  C   UNL     1      -6.291   4.216   3.984  0.00  0.00    +0.009 C 
ATOM     15  C   UNL     1      -5.109   4.806   3.210  0.00  0.00    +0.004 C 
ATOM     16  C   UNL     1      -3.941   3.817   3.239  0.00  0.00    +0.109 C 
ATOM     17  C   UNL     1      -5.524   5.062   1.760  0.00  0.00    +0.009 C 
ATOM     18  C   UNL     1      -5.436   5.204   6.115  0.00  0.00    +0.009 C 
ENDROOT
BRANCH   1  19
ATOM     19  O   UNL     1      -0.682   1.547   1.184  0.00  0.00    -0.481 OA
BRANCH  19  20
ATOM     20  C   UNL     1      -0.013   1.086   0.008  0.00  0.00    +0.325 C 
BRANCH  20  27
ATOM     21  C   UNL     1      -1.988   2.437  -5.926  0.00  0.00    +0.160 A 
ATOM     22  N   UNL     1      -2.536   2.815  -4.781  0.00  0.00    -0.133 NA
ATOM     23  N   UNL     1      -2.050   2.481  -3.666  0.00  0.00    -0.125 NA
ATOM     24  C   UNL     1      -0.962   1.734  -3.571  0.00  0.00    +0.189 A 
ATOM     25  S   UNL     1      -0.599   1.491  -5.308  0.00  0.00    -0.024 S 
ATOM     26  N   UNL     1      -0.288   1.272  -2.443  0.00  0.00    -0.260 N 
ATOM     27  C   UNL     1      -0.742   1.585  -1.213  0.00  0.00    +0.256 C 
ATOM     28  O   UNL     1      -1.736   2.268  -1.088  0.00  0.00    -0.272 OA
ATOM     29  H   UNL     1       0.507   0.726  -2.543  0.00  0.00    +0.157 HD
BRANCH  21  30
ATOM     30  S   UNL     1      -2.480   2.775  -7.584  0.00  0.00    -0.097 S 
BRANCH  30  32
ATOM     31  C   UNL     1      -4.506   4.167  -8.784  0.00  0.00    +0.016 C 
ATOM     32  C   UNL     1      -3.968   3.797  -7.400  0.00  0.00    +0.073 C 
ENDBRANCH  30  32
ENDBRANCH  21  30
ENDBRANCH  20  27
ENDBRANCH  19  20
ENDBRANCH   1  19
TORSDOF 5
