REMARK  Name = ZINC08739132
REMARK  2 active torsions:
REMARK  status: ('A' for Active; 'I' for Inactive)
REMARK    1  A    between atoms: C_6  and  C_7
REMARK    2  A    between atoms: C_17  and  C_19
REMARK                            x       y       z     vdW  Elec       q    Type
REMARK                         _______ _______ _______ _____ _____    ______ ____
ROOT
ATOM      1  C   UNL     1      -2.058  -0.234   0.493  0.00  0.00    +0.071 A 
ATOM      2  C   UNL     1      -2.125  -1.441   1.113  0.00  0.00    +0.018 A 
ATOM      3  C   UNL     1      -3.398  -1.980   0.883  0.00  0.00    +0.070 A 
ATOM      4  N   UNL     1      -4.075  -1.138   0.153  0.00  0.00    -0.178 NA
ATOM      5  N   UNL     1      -3.265  -0.023  -0.107  0.00  0.00    -0.276 N 
ATOM      6  H   UNL     1      -3.518   0.759  -0.624  0.00  0.00    +0.189 HD
ATOM      7  C   UNL     1      -3.855  -3.314   1.421  0.00  0.00    +0.076 C 
ATOM      8  C   UNL     1      -2.621  -4.129   1.828  0.00  0.00    +0.115 C 
ATOM      9  N   UNL     1      -1.705  -3.278   2.600  0.00  0.00    -0.290 N 
ATOM     10  C   UNL     1      -1.058  -2.140   1.921  0.00  0.00    +0.147 C 
ATOM     11  C   UNL     1      -1.463  -3.531   3.901  0.00  0.00    +0.282 C 
ATOM     12  O   UNL     1      -2.089  -4.401   4.479  0.00  0.00    -0.267 OA
ENDROOT
BRANCH   1  18
ATOM     13  C   UNL     1      -1.077   2.046   0.706  0.00  0.00    +0.013 A 
ATOM     14  C   UNL     1       0.010   2.896   0.691  0.00  0.00    +0.039 A 
ATOM     15  C   UNL     1       1.279   2.396   0.449  0.00  0.00    +0.123 A 
ATOM     16  C   UNL     1       1.465   1.042   0.221  0.00  0.00    +0.039 A 
ATOM     17  C   UNL     1       0.385   0.184   0.234  0.00  0.00    +0.013 A 
ATOM     18  C   UNL     1      -0.896   0.682   0.477  0.00  0.00    +0.000 A 
ATOM     19  F   UNL     1       2.340   3.233   0.434  0.00  0.00    -0.205 F 
ENDBRANCH   1  18
BRANCH  11  20
ATOM     20  C   UNL     1      -0.446  -2.759   4.622  0.00  0.00    +0.191 A 
ATOM     21  C   UNL     1      -0.195  -2.817   5.963  0.00  0.00    +0.056 A 
ATOM     22  C   UNL     1       0.851  -1.919   6.217  0.00  0.00    +0.058 A 
ATOM     23  C   UNL     1       1.190  -1.357   5.034  0.00  0.00    +0.171 A 
ATOM     24  O   UNL     1       0.409  -1.870   4.074  0.00  0.00    -0.444 OA
ATOM     25 BR   UNL     1       2.547  -0.065   4.776  0.00  0.00    -0.008 Br
ENDBRANCH  11  20
TORSDOF 2
