REMARK  Name = ZINC06743308
REMARK  11 active torsions:
REMARK  status: ('A' for Active; 'I' for Inactive)
REMARK    1  A    between atoms: C_1  and  C_2
REMARK    2  A    between atoms: C_2  and  O_3
REMARK    3  A    between atoms: O_3  and  C_4
REMARK    4  A    between atoms: C_8  and  C_10
REMARK    5  A    between atoms: C_13  and  C_24
REMARK    6  A    between atoms: N_20  and  C_21
REMARK    7  A    between atoms: C_21  and  C_22
REMARK    8  A    between atoms: C_22  and  O_23
REMARK    9  A    between atoms: C_25  and  C_32
REMARK   10  A    between atoms: C_27  and  C_31
REMARK   11  A    between atoms: C_29  and  O_30
REMARK                            x       y       z     vdW  Elec       q    Type
REMARK                         _______ _______ _______ _____ _____    ______ ____
ROOT
ATOM      1  C   UNL     1       2.387  -4.133  -3.782  0.00  0.00    +0.141 C 
ATOM      2  C   UNL     1       1.269  -4.520  -4.710  0.00  0.00    +0.035 A 
ATOM      3  C   UNL     1       0.170  -4.105  -5.470  0.00  0.00    +0.102 A 
ATOM      4  N   UNL     1      -0.330  -5.175  -6.057  0.00  0.00    -0.173 NA
ATOM      5  N   UNL     1       0.344  -6.223  -5.743  0.00  0.00    -0.272 N 
ATOM      6  H   UNL     1       0.157  -7.121  -6.059  0.00  0.00    +0.189 HD
ATOM      7  C   UNL     1       1.364  -5.885  -4.899  0.00  0.00    +0.126 A 
ATOM      8  C   UNL     1       2.505  -6.386  -4.124  0.00  0.00    +0.266 C 
ATOM      9  O   UNL     1       2.857  -7.549  -4.079  0.00  0.00    -0.268 OA
ATOM     10  N   UNL     1       3.108  -5.374  -3.471  0.00  0.00    -0.283 N 
ENDROOT
BRANCH   3  11
ATOM     11  C   UNL     1      -0.340  -2.717  -5.592  0.00  0.00    +0.047 A 
ATOM     12  C   UNL     1      -1.696  -2.451  -5.413  0.00  0.00    -0.037 A 
ATOM     13  C   UNL     1      -2.165  -1.159  -5.528  0.00  0.00    +0.007 A 
ATOM     14  C   UNL     1      -1.294  -0.124  -5.821  0.00  0.00    -0.047 A 
ATOM     15  C   UNL     1       0.053  -0.377  -6.001  0.00  0.00    +0.049 A 
ATOM     16  C   UNL     1       0.538  -1.670  -5.882  0.00  0.00    +0.127 A 
ATOM     17  C   UNL     1      -1.816   1.284  -5.944  0.00  0.00    +0.044 C 
ATOM     18  C   UNL     1      -2.649  -3.575  -5.094  0.00  0.00    +0.044 C 
BRANCH  16  19
ATOM     19  O   UNL     1       1.863  -1.919  -6.052  0.00  0.00    -0.506 OA
ATOM     20  H   UNL     1       2.125  -2.041  -6.975  0.00  0.00    +0.292 HD
ENDBRANCH  16  19
ENDBRANCH   3  11
BRANCH   1  25
ATOM     21  C   UNL     1       1.502  -1.629  -1.094  0.00  0.00    +0.121 A 
ATOM     22  C   UNL     1       0.798  -2.423  -0.200  0.00  0.00    +0.045 A 
ATOM     23  C   UNL     1       0.612  -3.765  -0.469  0.00  0.00    +0.004 A 
ATOM     24  C   UNL     1       1.126  -4.317  -1.628  0.00  0.00    +0.006 A 
ATOM     25  C   UNL     1       1.828  -3.528  -2.520  0.00  0.00    -0.019 A 
ATOM     26  C   UNL     1       2.012  -2.184  -2.258  0.00  0.00    +0.051 A 
BRANCH  21  27
ATOM     27  O   UNL     1       1.686  -0.308  -0.832  0.00  0.00    -0.492 OA
BRANCH  27  29
ATOM     28  C   UNL     1       1.440   1.690   0.506  0.00  0.00    +0.048 C 
ATOM     29  C   UNL     1       1.133   0.195   0.386  0.00  0.00    +0.225 C 
ENDBRANCH  27  29
ENDBRANCH  21  27
ENDBRANCH   1  25
BRANCH  10  30
ATOM     30  C   UNL     1       4.280  -5.491  -2.599  0.00  0.00    +0.137 C 
BRANCH  30  31
ATOM     31  C   UNL     1       3.831  -5.888  -1.191  0.00  0.00    +0.175 C 
BRANCH  31  32
ATOM     32  O   UNL     1       3.265  -7.200  -1.223  0.00  0.00    -0.393 OA
ATOM     33  H   UNL     1       2.959  -7.517  -0.363  0.00  0.00    +0.209 HD
ENDBRANCH  31  32
ENDBRANCH  30  31
ENDBRANCH  10  30
TORSDOF 8
