REMARK  Name = ZINC02432017
REMARK  2 active torsions:
REMARK  status: ('A' for Active; 'I' for Inactive)
REMARK    1  A    between atoms: C_1  and  C_2
REMARK    2  A    between atoms: C_17  and  C_19
REMARK                            x       y       z     vdW  Elec       q    Type
REMARK                         _______ _______ _______ _____ _____    ______ ____
ROOT
ATOM      1  C   UNL     1      -0.142   1.225  -0.449  0.00  0.00    +0.048 C 
ATOM      2  C   UNL     1      -0.113  -0.274  -0.296  0.00  0.00    -0.001 A 
ATOM      3  C   UNL     1      -0.155  -1.047  -1.385  0.00  0.00    +0.203 A 
ATOM      4  O   UNL     1      -0.140  -2.382  -1.284  0.00  0.00    -0.430 OA
ATOM      5  C   UNL     1       0.048  -2.953  -0.094  0.00  0.00    +0.343 A 
ATOM      6  O   UNL     1       0.195  -4.163  -0.037  0.00  0.00    -0.245 OA
ATOM      7  C   UNL     1       0.083  -2.204   1.107  0.00  0.00    +0.075 A 
ATOM      8  C   UNL     1      -0.035  -0.847   1.015  0.00  0.00    +0.031 A 
ATOM      9  S   UNL     1      -0.148   0.288   2.347  0.00  0.00    -0.087 S 
ATOM     10  C   UNL     1       1.103  -0.161   3.496  0.00  0.00    +0.034 A 
ATOM     11  C   UNL     1       2.114   0.724   3.833  0.00  0.00    +0.017 A 
ATOM     12  C   UNL     1       3.057   0.352   4.775  0.00  0.00    +0.001 A 
ATOM     13  C   UNL     1       2.979  -0.890   5.380  0.00  0.00    +0.002 A 
ATOM     14  C   UNL     1       1.979  -1.779   5.031  0.00  0.00    +0.024 A 
ATOM     15  C   UNL     1       1.048  -1.422   4.061  0.00  0.00    +0.042 A 
ATOM     16  N   UNL     1       0.143  -2.360   3.589  0.00  0.00    -0.332 N 
ATOM     17  C   UNL     1       0.302  -3.039   2.336  0.00  0.00    +0.139 C 
ATOM     18  H   UNL     1      -0.636  -2.567   4.128  0.00  0.00    +0.147 HD
ENDROOT
BRANCH  17  19
ATOM     19  C   UNL     1       1.704  -3.588   2.290  0.00  0.00    -0.023 A 
ATOM     20  C   UNL     1       1.911  -4.954   2.244  0.00  0.00    +0.006 A 
ATOM     21  C   UNL     1       3.197  -5.458   2.201  0.00  0.00    +0.000 A 
ATOM     22  C   UNL     1       4.278  -4.596   2.205  0.00  0.00    +0.000 A 
ATOM     23  C   UNL     1       4.071  -3.230   2.250  0.00  0.00    +0.000 A 
ATOM     24  C   UNL     1       2.785  -2.726   2.288  0.00  0.00    +0.006 A 
ENDBRANCH  17  19
TORSDOF 1
