REMARK  Name = ZINC00203553
REMARK  4 active torsions:
REMARK  status: ('A' for Active; 'I' for Inactive)
REMARK    1  A    between atoms: C_1  and  C_2
REMARK    2  A    between atoms: C_5  and  C_8
REMARK    3  A    between atoms: C_17  and  N_21
REMARK    4  A    between atoms: C_18  and  C_19
REMARK                            x       y       z     vdW  Elec       q    Type
REMARK                         _______ _______ _______ _____ _____    ______ ____
ROOT
ATOM      1  C   UNL     1       0.059  -4.275  -0.021  0.00  0.00    +0.098 C 
ATOM      2  C   UNL     1      -1.165  -4.794   0.686  0.00  0.00    +0.011 A 
ATOM      3  C   UNL     1      -2.388  -4.765   0.039  0.00  0.00    +0.057 A 
ATOM      4  C   UNL     1      -3.524  -5.237   0.673  0.00  0.00    +0.167 A 
ATOM      5  C   UNL     1      -3.435  -5.744   1.968  0.00  0.00    +0.170 A 
ATOM      6  C   UNL     1      -2.212  -5.772   2.614  0.00  0.00    +0.096 A 
ATOM      7  C   UNL     1      -1.073  -5.296   1.974  0.00  0.00    +0.138 A 
ATOM      8  O   UNL     1       0.117  -5.331   2.625  0.00  0.00    -0.441 OA
ATOM      9  C   UNL     1       1.263  -5.252   1.929  0.00  0.00    +0.199 C 
ATOM     10  C   UNL     1       1.302  -4.761   0.671  0.00  0.00    +0.098 C 
ATOM     11  O   UNL     1      -4.679  -6.143   2.366  0.00  0.00    -0.452 OA
ATOM     12  C   UNL     1      -5.597  -5.499   1.462  0.00  0.00    +0.466 C 
ATOM     13  O   UNL     1      -4.824  -5.318   0.261  0.00  0.00    -0.453 OA
ENDROOT
BRANCH   1  18
ATOM     14  C   UNL     1      -0.018   1.503   0.010  0.00  0.00    +0.044 C 
ATOM     15  C   UNL     1       0.002  -0.004   0.002  0.00  0.00    -0.050 A 
ATOM     16  C   UNL     1       0.006  -0.689  -1.199  0.00  0.00    +0.003 A 
ATOM     17  C   UNL     1       0.025  -2.071  -1.206  0.00  0.00    +0.005 A 
ATOM     18  C   UNL     1       0.040  -2.768  -0.013  0.00  0.00    -0.035 A 
ATOM     19  C   UNL     1       0.037  -2.084   1.188  0.00  0.00    +0.005 A 
ATOM     20  C   UNL     1       0.023  -0.702   1.195  0.00  0.00    +0.003 A 
ENDBRANCH   1  18
BRANCH   9  21
ATOM     21  N   UNL     1       2.428  -5.681   2.515  0.00  0.00    -0.328 N 
ATOM     22  H   UNL     1       2.416  -6.035   3.417  0.00  0.00    +0.145 HD
ATOM     23  H   UNL     1       3.264  -5.630   2.025  0.00  0.00    +0.145 HD
ENDBRANCH   9  21
BRANCH  10  24
ATOM     24  C   UNL     1       2.557  -4.703  -0.016  0.00  0.00    +0.101 C 
ATOM     25  N   UNL     1       3.552  -4.657  -0.561  0.00  0.00    -0.191 NA
ENDBRANCH  10  24
TORSDOF 3
