REMARK  Name = ZINC12149012
REMARK  11 active torsions:
REMARK  status: ('A' for Active; 'I' for Inactive)
REMARK    1  A    between atoms: C_1  and  C_2
REMARK    2  A    between atoms: C_6  and  C_7
REMARK    3  A    between atoms: C_12  and  C_15
REMARK    4  A    between atoms: C_15  and  C_27
REMARK    5  A    between atoms: N_18  and  C_22
REMARK    6  A    between atoms: C_22  and  C_23
REMARK    7  A    between atoms: C_23  and  C_24
REMARK    8  A    between atoms: C_24  and  N_68
REMARK    9  A    between atoms: C_25  and  N_68
REMARK   10  A    between atoms: C_26  and  N_68
REMARK   11  A    between atoms: C_27  and  C_28
REMARK                            x       y       z     vdW  Elec       q    Type
REMARK                         _______ _______ _______ _____ _____    ______ ____
ROOT
ATOM      1  C   UNL     1       5.944  -3.945   1.760  0.00  0.00    +0.119 C 
ATOM      2  C   UNL     1       5.845  -3.342   3.147  0.00  0.00    +0.247 C 
ATOM      3  O   UNL     1       4.840  -2.968   3.712  0.00  0.00    -0.273 OA
ATOM      4  N   UNL     1       7.106  -3.308   3.620  0.00  0.00    -0.224 N 
ATOM      5  C   UNL     1       7.979  -3.800   2.734  0.00  0.00    +0.309 C 
ATOM      6  O   UNL     1       9.176  -3.873   2.933  0.00  0.00    -0.252 OA
ATOM      7  N   UNL     1       7.385  -4.205   1.597  0.00  0.00    -0.284 N 
ATOM      8  H   UNL     1       7.820  -4.592   0.821  0.00  0.00    +0.151 HD
ENDROOT
BRANCH   1  14
ATOM      9  C   UNL     1       3.561   0.619  -0.029  0.00  0.00    +0.282 C 
ATOM     10  O   UNL     1       2.353   0.644   0.119  0.00  0.00    -0.267 OA
ATOM     11  N   UNL     1       4.202  -0.561  -0.142  0.00  0.00    -0.295 N 
ATOM     12  C   UNL     1       3.445  -1.817  -0.246  0.00  0.00    +0.108 C 
ATOM     13  C   UNL     1       3.937  -2.785   0.828  0.00  0.00    +0.025 C 
ATOM     14  C   UNL     1       5.454  -2.952   0.704  0.00  0.00    +0.025 C 
ATOM     15  C   UNL     1       6.137  -1.600   0.920  0.00  0.00    +0.025 C 
ATOM     16  C   UNL     1       5.670  -0.618  -0.158  0.00  0.00    +0.108 C 
BRANCH   9  22
ATOM     17  C   UNL     1       2.411   3.467   0.556  0.00  0.00    +0.048 C 
ATOM     18  C   UNL     1       3.826   3.121   0.171  0.00  0.00    -0.000 A 
ATOM     19  C   UNL     1       4.892   4.018   0.003  0.00  0.00    +0.045 A 
ATOM     20  C   UNL     1       5.976   3.288  -0.342  0.00  0.00    +0.196 A 
ATOM     21  O   UNL     1       5.627   1.996  -0.392  0.00  0.00    -0.458 OA
ATOM     22  C   UNL     1       4.319   1.873  -0.083  0.00  0.00    +0.192 A 
ENDBRANCH   9  22
ENDBRANCH   1  14
BRANCH   4  23
ATOM     23  C   UNL     1       7.476  -2.795   4.942  0.00  0.00    +0.116 C 
BRANCH  23  24
ATOM     24  C   UNL     1       7.778  -1.299   4.842  0.00  0.00    +0.001 C 
BRANCH  24  25
ATOM     25  C   UNL     1       8.164  -0.763   6.223  0.00  0.00    -0.078 C 
BRANCH  25  28
ATOM     26  C   UNL     1       8.597   1.272   7.461  0.00  0.00    -0.097 C 
ATOM     27  C   UNL     1       9.652   0.915   5.311  0.00  0.00    -0.097 C 
ATOM     28  N   UNL     1       8.432   0.686   6.114  0.00  0.00    +0.376 N 
ATOM     29  H   UNL     1       7.637   1.138   5.648  0.00  0.00    -0.083 HD
ENDBRANCH  25  28
ENDBRANCH  24  25
ENDBRANCH  23  24
ENDBRANCH   4  23
BRANCH   1  30
ATOM     30  C   UNL     1       5.150  -5.250   1.678  0.00  0.00    +0.070 C 
BRANCH  30  31
ATOM     31  C   UNL     1       5.651  -6.210   2.726  0.00  0.00    -0.045 A 
ATOM     32  C   UNL     1       6.674  -7.090   2.424  0.00  0.00    +0.006 A 
ATOM     33  C   UNL     1       7.139  -7.967   3.386  0.00  0.00    +0.038 A 
ATOM     34  C   UNL     1       6.572  -7.972   4.649  0.00  0.00    +0.123 A 
ATOM     35  C   UNL     1       5.544  -7.094   4.949  0.00  0.00    +0.038 A 
ATOM     36  C   UNL     1       5.085  -6.214   3.987  0.00  0.00    +0.006 A 
ATOM     37  F   UNL     1       7.021  -8.832   5.588  0.00  0.00    -0.205 F 
ENDBRANCH  30  31
ENDBRANCH   1  30
TORSDOF 8
