REMARK  Name = ZINC59310179
REMARK  8 active torsions:
REMARK  status: ('A' for Active; 'I' for Inactive)
REMARK    1  A    between atoms: C_1  and  C_2
REMARK    2  A    between atoms: C_5  and  C_35
REMARK    3  A    between atoms: C_6  and  N_8
REMARK    4  A    between atoms: C_9  and  C_11
REMARK    5  A    between atoms: C_11  and  S_12
REMARK    6  A    between atoms: S_12  and  C_13
REMARK    7  A    between atoms: N_18  and  N_19
REMARK    8  A    between atoms: C_20  and  C_21
REMARK                            x       y       z     vdW  Elec       q    Type
REMARK                         _______ _______ _______ _____ _____    ______ ____
ROOT
ATOM      1  C   UNL     1       0.573  -2.770   7.654  0.00  0.00    +0.211 A 
ATOM      2  N   UNL     1       0.670  -2.346   8.918  0.00  0.00    -0.186 NA
ATOM      3  C   UNL     1       0.752  -3.382   9.727  0.00  0.00    +0.232 A 
ATOM      4  N   UNL     1       0.706  -4.503   8.975  0.00  0.00    -0.245 N 
ATOM      5  N   UNL     1       0.585  -4.082   7.641  0.00  0.00    -0.144 NA
ATOM      6  N   UNL     1       0.864  -3.331  11.104  0.00  0.00    -0.205 N 
ATOM      7  H   UNL     1       0.918  -4.152  11.617  0.00  0.00    +0.177 HD
ATOM      8  H   UNL     1       0.746  -5.418   9.294  0.00  0.00    +0.192 HD
ENDROOT
BRANCH   6   9
ATOM      9  N   UNL     1       0.899  -2.093  11.759  0.00  0.00    -0.188 NA
ATOM     10  C   UNL     1       1.004  -2.045  13.056  0.00  0.00    +0.139 C 
BRANCH  10  11
ATOM     11  C   UNL     1       1.041  -0.750  13.741  0.00  0.00    +0.010 A 
ATOM     12  C   UNL     1       1.276  -0.684  15.130  0.00  0.00    -0.009 A 
ATOM     13  C   UNL     1       1.480  -1.850  15.888  0.00  0.00    +0.009 A 
ATOM     14  C   UNL     1       1.704  -1.751  17.226  0.00  0.00    +0.001 A 
ATOM     15  C   UNL     1       1.738  -0.517  17.872  0.00  0.00    +0.001 A 
ATOM     16  C   UNL     1       1.549   0.647  17.198  0.00  0.00    +0.008 A 
ATOM     17  C   UNL     1       1.312   0.614  15.807  0.00  0.00    -0.017 A 
ATOM     18  C   UNL     1       1.114   1.792  15.084  0.00  0.00    +0.017 A 
ATOM     19  C   UNL     1       0.881   1.735  13.709  0.00  0.00    -0.017 A 
ATOM     20  C   UNL     1       0.848   0.445  13.017  0.00  0.00    -0.009 A 
ATOM     21  C   UNL     1       0.616   0.425  11.631  0.00  0.00    +0.009 A 
ATOM     22  C   UNL     1       0.433   1.596  10.963  0.00  0.00    +0.001 A 
ATOM     23  C   UNL     1       0.469   2.825  11.619  0.00  0.00    +0.001 A 
ATOM     24  C   UNL     1       0.678   2.913  12.958  0.00  0.00    +0.008 A 
ENDBRANCH  10  11
ENDBRANCH   6   9
BRANCH   1  25
ATOM     25  S   UNL     1       0.442  -1.734   6.235  0.00  0.00    -0.075 S 
BRANCH  25  26
ATOM     26  C   UNL     1       0.337  -2.899   4.849  0.00  0.00    +0.173 C 
BRANCH  26  28
ATOM     27  N   UNL     1       0.127  -2.796   2.386  0.00  0.00    -0.285 N 
ATOM     28  C   UNL     1       0.219  -2.133   3.556  0.00  0.00    +0.227 C 
ATOM     29  O   UNL     1       0.207  -0.921   3.569  0.00  0.00    -0.275 OA
ATOM     30  H   UNL     1       0.054  -3.763   2.381  0.00  0.00    +0.155 HD
BRANCH  27  36
ATOM     31  C   UNL     1       1.381   1.221  -0.155  0.00  0.00    +0.044 C 
ATOM     32  C   UNL     1       0.737  -0.139  -0.081  0.00  0.00    -0.049 A 
ATOM     33  C   UNL     1       0.154  -0.690  -1.208  0.00  0.00    +0.004 A 
ATOM     34  C   UNL     1      -0.437  -1.938  -1.145  0.00  0.00    +0.005 A 
ATOM     35  C   UNL     1      -0.448  -2.639   0.045  0.00  0.00    -0.029 A 
ATOM     36  C   UNL     1       0.136  -2.089   1.179  0.00  0.00    +0.037 A 
ATOM     37  C   UNL     1       0.734  -0.837   1.110  0.00  0.00    +0.027 A 
ATOM     38  C   UNL     1      -1.093  -3.999   0.114  0.00  0.00    +0.045 C 
ENDBRANCH  27  36
ENDBRANCH  26  28
ENDBRANCH  25  26
ENDBRANCH   1  25
TORSDOF 6
