REMARK  Name = ZINC09244612
REMARK  11 active torsions:
REMARK  status: ('A' for Active; 'I' for Inactive)
REMARK    1  A    between atoms: C_1  and  C_2
REMARK    2  A    between atoms: C_2  and  N_3
REMARK    3  A    between atoms: N_3  and  C_4
REMARK    4  A    between atoms: N_3  and  S_6
REMARK    5  A    between atoms: C_4  and  C_5
REMARK    6  A    between atoms: S_6  and  C_9
REMARK    7  A    between atoms: C_12  and  C_34
REMARK    8  A    between atoms: C_13  and  N_15
REMARK    9  A    between atoms: N_15  and  C_16
REMARK   10  A    between atoms: C_16  and  N_18
REMARK   11  A    between atoms: N_18  and  N_19
REMARK                            x       y       z     vdW  Elec       q    Type
REMARK                         _______ _______ _______ _____ _____    ______ ____
ROOT
ATOM      1  C   UNL     1      -1.018  -4.647   1.051  0.00  0.00    +0.152 C 
ATOM      2  S   UNL     1      -2.032  -6.023   0.957  0.00  0.00    -0.017 S 
ENDROOT
BRANCH   1   3
ATOM      3  N   UNL     1      -0.523  -4.254   2.241  0.00  0.00    -0.295 N 
ATOM      4  H   UNL     1       0.101  -3.513   2.287  0.00  0.00    +0.154 HD
BRANCH   3   9
ATOM      5  C   UNL     1      -1.282  -6.952   4.621  0.00  0.00    +0.107 A 
ATOM      6  C   UNL     1      -1.675  -6.222   5.728  0.00  0.00    +0.029 A 
ATOM      7  C   UNL     1      -1.686  -4.840   5.680  0.00  0.00    +0.007 A 
ATOM      8  C   UNL     1      -1.300  -4.185   4.527  0.00  0.00    -0.029 A 
ATOM      9  C   UNL     1      -0.910  -4.915   3.412  0.00  0.00    +0.037 A 
ATOM     10  C   UNL     1      -0.900  -6.303   3.463  0.00  0.00    +0.052 A 
ATOM     11  C   UNL     1      -1.306  -2.678   4.478  0.00  0.00    +0.045 C 
BRANCH   5  12
ATOM     12  S   UNL     1      -1.270  -8.713   4.687  0.00  0.00    +0.061 S 
ATOM     13  O   UNL     1      -2.191  -9.088   5.702  0.00  0.00    -0.153 OA
ATOM     14  O   UNL     1      -1.385  -9.171   3.347  0.00  0.00    -0.153 OA
BRANCH  12  15
ATOM     15  N   UNL     1       0.231  -9.172   5.216  0.00  0.00    -0.177 NA
BRANCH  15  17
ATOM     16  C   UNL     1       0.299 -10.801   7.039  0.00  0.00    +0.022 C 
ATOM     17  C   UNL     1       0.484  -9.333   6.650  0.00  0.00    +0.106 C 
ENDBRANCH  15  17
BRANCH  15  18
ATOM     18  C   UNL     1       1.305  -9.417   4.251  0.00  0.00    +0.106 C 
ATOM     19  C   UNL     1       2.149  -8.151   4.095  0.00  0.00    +0.022 C 
ENDBRANCH  15  18
ENDBRANCH  12  15
ENDBRANCH   5  12
ENDBRANCH   3   9
ENDBRANCH   1   3
BRANCH   1  20
ATOM     20  N   UNL     1      -0.714  -3.956  -0.066  0.00  0.00    -0.236 N 
ATOM     21  H   UNL     1      -1.070  -4.239  -0.923  0.00  0.00    +0.173 HD
BRANCH  20  22
ATOM     22  N   UNL     1       0.116  -2.830   0.011  0.00  0.00    -0.148 N 
ATOM     23  C   UNL     1       1.388  -2.932  -0.417  0.00  0.00    +0.270 C 
ATOM     24  O   UNL     1       1.795  -3.989  -0.859  0.00  0.00    -0.268 OA
ATOM     25  C   UNL     1       2.289  -1.772  -0.352  0.00  0.00    +0.047 A 
ATOM     26  C   UNL     1       3.607  -1.833  -0.780  0.00  0.00    +0.014 A 
ATOM     27  C   UNL     1       4.421  -0.709  -0.698  0.00  0.00    +0.001 A 
ATOM     28  C   UNL     1       3.957   0.475  -0.201  0.00  0.00    +0.008 A 
ATOM     29  C   UNL     1       2.628   0.579   0.244  0.00  0.00    -0.016 A 
ATOM     30  C   UNL     1       1.792  -0.554   0.166  0.00  0.00    +0.006 A 
ATOM     31  C   UNL     1       0.451  -0.482   0.606  0.00  0.00    +0.047 A 
ATOM     32  C   UNL     1      -0.028   0.717   1.113  0.00  0.00    +0.014 A 
ATOM     33  C   UNL     1       0.805   1.827   1.185  0.00  0.00    +0.001 A 
ATOM     34  C   UNL     1       2.102   1.777   0.759  0.00  0.00    +0.008 A 
ATOM     35  C   UNL     1      -0.389  -1.685   0.509  0.00  0.00    +0.270 C 
ATOM     36  O   UNL     1      -1.547  -1.646   0.881  0.00  0.00    -0.268 OA
ENDBRANCH  20  22
ENDBRANCH   1  20
TORSDOF 8
