REMARK  Name = ZINC35337694
REMARK  10 active torsions:
REMARK  status: ('A' for Active; 'I' for Inactive)
REMARK    1  A    between atoms: C_1  and  C_2
REMARK    2  A    between atoms: C_7  and  N_8
REMARK    3  A    between atoms: C_9  and  C_11
REMARK    4  A    between atoms: C_12  and  C_35
REMARK    5  A    between atoms: C_16  and  C_18
REMARK    6  A    between atoms: C_22  and  N_24
REMARK    7  A    between atoms: C_25  and  C_27
REMARK    8  A    between atoms: C_27  and  C_28
REMARK    9  A    between atoms: C_28  and  C_29
REMARK   10  A    between atoms: C_28  and  C_30
REMARK                            x       y       z     vdW  Elec       q    Type
REMARK                         _______ _______ _______ _____ _____    ______ ____
ROOT
ATOM      1  C   UNL     1      -0.223  -0.052   4.722  0.00  0.00    +0.058 C 
ATOM      2  C   UNL     1      -0.222  -0.742   5.897  0.00  0.00    +0.025 C 
ATOM      3  N   UNL     1      -0.284  -0.105   7.065  0.00  0.00    -0.341 N 
ATOM      4  C   UNL     1      -0.091   1.200   7.155  0.00  0.00    +0.135 C 
ATOM      5  N   UNL     1       0.151   1.945   6.038  0.00  0.00    -0.300 N 
ATOM      6  C   UNL     1      -0.352   1.451   4.747  0.00  0.00    +0.143 C 
ATOM      7  C   UNL     1       0.912   3.187   6.060  0.00  0.00    +0.109 C 
ATOM      8  C   UNL     1       0.510   4.102   7.208  0.00  0.00    +0.030 C 
ATOM      9  C   UNL     1       0.877   3.438   8.542  0.00  0.00    +0.078 C 
ATOM     10  S   UNL     1      -0.183   1.974   8.741  0.00  0.00    -0.092 S 
ATOM     11  C   UNL     1      -0.149  -2.247   5.874  0.00  0.00    +0.064 C 
ATOM     12  H   UNL     1      -0.476  -0.612   7.869  0.00  0.00    +0.167 HD
ENDROOT
BRANCH   6  13
ATOM     13  C   UNL     1      -1.801   1.838   4.592  0.00  0.00    -0.021 A 
ATOM     14  C   UNL     1      -2.649   1.789   5.683  0.00  0.00    +0.006 A 
ATOM     15  C   UNL     1      -3.978   2.143   5.546  0.00  0.00    +0.002 A 
ATOM     16  C   UNL     1      -4.463   2.547   4.317  0.00  0.00    +0.023 A 
ATOM     17  C   UNL     1      -3.614   2.597   3.219  0.00  0.00    +0.034 A 
ATOM     18  C   UNL     1      -2.278   2.246   3.362  0.00  0.00    +0.029 A 
BRANCH  17  19
ATOM     19  N   UNL     1      -4.103   3.005   1.973  0.00  0.00    -0.285 N 
ATOM     20  C   UNL     1      -5.067   3.944   1.902  0.00  0.00    +0.217 C 
ATOM     21  O   UNL     1      -5.438   4.510   2.909  0.00  0.00    -0.275 OA
ATOM     22  H   UNL     1      -3.747   2.612   1.161  0.00  0.00    +0.155 HD
BRANCH  20  23
ATOM     23  C   UNL     1      -5.683   4.292   0.572  0.00  0.00    +0.099 C 
BRANCH  23  24
ATOM     24  C   UNL     1      -6.743   5.378   0.768  0.00  0.00    -0.008 C 
ATOM     25  C   UNL     1      -6.071   6.665   1.252  0.00  0.00    +0.008 C 
ATOM     26  C   UNL     1      -7.455   5.642  -0.559  0.00  0.00    +0.008 C 
ENDBRANCH  23  24
ENDBRANCH  20  23
ENDBRANCH  17  19
ENDBRANCH   6  13
BRANCH   1  28
ATOM     27  N   UNL     1      -0.048  -0.043   2.343  0.00  0.00    -0.281 N 
ATOM     28  C   UNL     1      -0.099  -0.735   3.498  0.00  0.00    +0.248 C 
ATOM     29  O   UNL     1      -0.038  -1.952   3.483  0.00  0.00    -0.270 OA
ATOM     30  H   UNL     1      -0.008   0.926   2.360  0.00  0.00    +0.155 HD
BRANCH  27  37
ATOM     31  C   UNL     1       1.058   1.270   0.074  0.00  0.00    +0.045 C 
ATOM     32  C   UNL     1       0.477  -0.118  -0.013  0.00  0.00    -0.029 A 
ATOM     33  C   UNL     1       0.475  -0.793  -1.218  0.00  0.00    +0.005 A 
ATOM     34  C   UNL     1      -0.058  -2.066  -1.298  0.00  0.00    +0.000 A 
ATOM     35  C   UNL     1      -0.592  -2.668  -0.172  0.00  0.00    +0.002 A 
ATOM     36  C   UNL     1      -0.594  -1.998   1.035  0.00  0.00    +0.023 A 
ATOM     37  C   UNL     1      -0.053  -0.721   1.121  0.00  0.00    +0.037 A 
ENDBRANCH  27  37
ENDBRANCH   1  28
TORSDOF 6
