REMARK  Name = ZINC11398169
REMARK  10 active torsions:
REMARK  status: ('A' for Active; 'I' for Inactive)
REMARK    1  A    between atoms: C_1  and  C_2
REMARK    2  A    between atoms: C_3  and  N_15
REMARK    3  A    between atoms: N_6  and  C_9
REMARK    4  A    between atoms: N_7  and  C_8
REMARK    5  A    between atoms: C_16  and  C_18
REMARK    6  A    between atoms: C_18  and  C_20
REMARK    7  A    between atoms: C_18  and  O_21
REMARK    8  A    between atoms: O_21  and  C_22
REMARK    9  A    between atoms: C_22  and  C_24
REMARK   10  A    between atoms: C_26  and  C_34
REMARK                            x       y       z     vdW  Elec       q    Type
REMARK                         _______ _______ _______ _____ _____    ______ ____
ROOT
ATOM      1  C   UNL     1      -5.086   1.177   0.131  0.00  0.00    +0.259 C 
ATOM      2  C   UNL     1      -5.661   0.954  -1.269  0.00  0.00    +0.062 C 
ENDROOT
BRANCH   1   4
ATOM      3  N   UNL     1      -7.265   1.471   1.265  0.00  0.00    -0.277 N 
ATOM      4  C   UNL     1      -6.059   1.985   0.950  0.00  0.00    +0.258 C 
ATOM      5  O   UNL     1      -5.757   3.098   1.327  0.00  0.00    -0.271 OA
ATOM      6  H   UNL     1      -7.479   0.555   1.027  0.00  0.00    +0.155 HD
BRANCH   3   9
ATOM      7  C   UNL     1     -10.079   2.096   0.214  0.00  0.00    +0.067 C 
ATOM      8  C   UNL     1      -9.462   2.562   1.507  0.00  0.00    +0.059 A 
ATOM      9  C   UNL     1      -8.215   2.265   1.938  0.00  0.00    +0.121 A 
ATOM     10  C   UNL     1      -8.039   2.915   3.237  0.00  0.00    +0.293 A 
ATOM     11  O   UNL     1      -7.045   2.874   3.939  0.00  0.00    -0.264 OA
ATOM     12  N   UNL     1      -9.185   3.573   3.506  0.00  0.00    -0.216 N 
ATOM     13  N   UNL     1     -10.070   3.355   2.443  0.00  0.00    -0.282 N 
ATOM     14  C   UNL     1     -11.430   3.892   2.347  0.00  0.00    +0.171 C 
BRANCH  12  15
ATOM     15  C   UNL     1      -9.447   4.333   4.650  0.00  0.00    +0.067 A 
ATOM     16  C   UNL     1      -9.966   5.616   4.529  0.00  0.00    +0.028 A 
ATOM     17  C   UNL     1     -10.228   6.362   5.661  0.00  0.00    +0.002 A 
ATOM     18  C   UNL     1      -9.964   5.838   6.913  0.00  0.00    +0.000 A 
ATOM     19  C   UNL     1      -9.443   4.563   7.037  0.00  0.00    +0.002 A 
ATOM     20  C   UNL     1      -9.184   3.809   5.909  0.00  0.00    +0.028 A 
ENDBRANCH  12  15
ENDBRANCH   3   9
ENDBRANCH   1   4
BRANCH   1  21
ATOM     21  O   UNL     1      -3.828   1.894   0.028  0.00  0.00    -0.449 OA
BRANCH  21  22
ATOM     22  C   UNL     1      -2.709   1.152  -0.090  0.00  0.00    +0.341 C 
ATOM     23  O   UNL     1      -2.784  -0.060  -0.107  0.00  0.00    -0.245 OA
BRANCH  22  24
ATOM     24  C   UNL     1      -1.392   1.813  -0.199  0.00  0.00    +0.070 A 
ATOM     25  C   UNL     1      -1.284   3.192  -0.299  0.00  0.00    +0.047 A 
ATOM     26  C   UNL     1      -0.010   3.779  -0.395  0.00  0.00    +0.107 A 
ATOM     27  N   UNL     1       1.097   3.061  -0.399  0.00  0.00    -0.244 NA
ATOM     28  C   UNL     1       1.083   1.730  -0.312  0.00  0.00    +0.073 A 
ATOM     29  C   UNL     1      -0.150   1.038  -0.211  0.00  0.00    +0.014 A 
ATOM     30  C   UNL     1      -0.160  -0.358  -0.122  0.00  0.00    +0.011 A 
ATOM     31  C   UNL     1       1.020  -1.042  -0.131  0.00  0.00    +0.001 A 
ATOM     32  C   UNL     1       2.235  -0.367  -0.230  0.00  0.00    +0.002 A 
ATOM     33  C   UNL     1       2.280   0.990  -0.320  0.00  0.00    +0.028 A 
BRANCH  26  34
ATOM     34  C   UNL     1       0.093   5.247  -0.494  0.00  0.00    +0.153 A 
ATOM     35  C   UNL     1       1.247   5.963  -0.587  0.00  0.00    +0.051 A 
ATOM     36  C   UNL     1       0.878   7.319  -0.664  0.00  0.00    +0.042 A 
ATOM     37  C   UNL     1      -0.469   7.366  -0.605  0.00  0.00    +0.196 A 
ATOM     38  O   UNL     1      -0.939   6.114  -0.503  0.00  0.00    -0.461 OA
ENDBRANCH  26  34
ENDBRANCH  22  24
ENDBRANCH  21  22
ENDBRANCH   1  21
TORSDOF 7
