REMARK  Name = ZINC56688915
REMARK  10 active torsions:
REMARK  status: ('A' for Active; 'I' for Inactive)
REMARK    1  A    between atoms: C_1  and  C_2
REMARK    2  A    between atoms: C_2  and  C_3
REMARK    3  A    between atoms: C_2  and  C_4
REMARK    4  A    between atoms: C_4  and  C_6
REMARK    5  A    between atoms: C_4  and  N_11
REMARK    6  A    between atoms: N_14  and  C_15
REMARK    7  A    between atoms: C_17  and  C_22
REMARK    8  A    between atoms: N_24  and  C_25
REMARK    9  A    between atoms: C_25  and  C_26
REMARK   10  A    between atoms: C_25  and  C_27
REMARK                            x       y       z     vdW  Elec       q    Type
REMARK                         _______ _______ _______ _____ _____    ______ ____
ROOT
ATOM      1  N   UNL     1       2.118  -0.010   1.246  0.00  0.00    -0.292 N 
ATOM      2  C   UNL     1       2.388   1.217   1.734  0.00  0.00    +0.304 C 
ATOM      3  O   UNL     1       1.491   1.902   2.187  0.00  0.00    -0.252 OA
ATOM      4  N   UNL     1       3.652   1.686   1.719  0.00  0.00    -0.268 N 
ATOM      5  H   UNL     1       2.834  -0.556   0.884  0.00  0.00    +0.151 HD
ATOM      6  H   UNL     1       4.377   1.116   1.418  0.00  0.00    +0.156 HD
ENDROOT
BRANCH   4   7
ATOM      7  C   UNL     1       3.918   2.995   2.138  0.00  0.00    +0.054 A 
ATOM      8  C   UNL     1       3.181   3.556   3.168  0.00  0.00    +0.038 A 
ATOM      9  C   UNL     1       3.450   4.861   3.583  0.00  0.00    +0.039 A 
ATOM     10  C   UNL     1       4.462   5.593   2.957  0.00  0.00    +0.014 A 
ATOM     11  C   UNL     1       5.190   5.026   1.932  0.00  0.00    +0.022 A 
ATOM     12  C   UNL     1       4.927   3.730   1.524  0.00  0.00    +0.062 A 
ATOM     13 CL   UNL     1       5.854   3.022   0.239  0.00  0.00    -0.082 Cl
BRANCH   9  14
ATOM     14  C   UNL     1       2.668   5.466   4.681  0.00  0.00    +0.244 C 
ATOM     15  O   UNL     1       1.788   4.827   5.224  0.00  0.00    -0.270 OA
ATOM     16  N   UNL     1       2.930   6.727   5.080  0.00  0.00    -0.309 N 
ATOM     17  H   UNL     1       3.632   7.237   4.646  0.00  0.00    +0.149 HD
BRANCH  16  18
ATOM     18  C   UNL     1       2.154   7.327   6.168  0.00  0.00    +0.067 C 
ATOM     19  C   UNL     1       2.769   6.930   7.511  0.00  0.00    +0.027 C 
ATOM     20  C   UNL     1       2.174   8.850   6.028  0.00  0.00    +0.027 C 
ENDBRANCH  16  18
ENDBRANCH   9  14
ENDBRANCH   4   7
BRANCH   1  21
ATOM     21  C   UNL     1       0.745  -0.519   1.262  0.00  0.00    +0.114 C 
BRANCH  21  22
ATOM     22  C   UNL     1       0.767  -2.026   1.264  0.00  0.00    +0.010 A 
ATOM     23  C   UNL     1      -0.022  -2.890   1.948  0.00  0.00    +0.013 A 
ATOM     24  C   UNL     1       0.181  -4.248   1.794  0.00  0.00    +0.008 A 
ATOM     25  C   UNL     1       1.164  -4.676   0.964  0.00  0.00    +0.045 A 
ATOM     26  S   UNL     1       1.836  -3.135   0.363  0.00  0.00    -0.100 S 
ENDBRANCH  21  22
BRANCH  21  28
ATOM     27  C   UNL     1      -0.021   1.508   0.017  0.00  0.00    +0.009 C 
ATOM     28  C   UNL     1       0.002  -0.022   0.020  0.00  0.00    +0.008 C 
ATOM     29  C   UNL     1       0.717  -0.524  -1.236  0.00  0.00    +0.009 C 
ENDBRANCH  21  28
ENDBRANCH   1  21
TORSDOF 6
