REMARK  Name = ZINC06240158
REMARK  4 active torsions:
REMARK  status: ('A' for Active; 'I' for Inactive)
REMARK    1  A    between atoms: C_3  and  C_7
REMARK    2  A    between atoms: N_8  and  C_9
REMARK    3  A    between atoms: C_12  and  N_15
REMARK    4  A    between atoms: C_16  and  C_18
REMARK                            x       y       z     vdW  Elec       q    Type
REMARK                         _______ _______ _______ _____ _____    ______ ____
ROOT
ATOM      1  C   UNL     1       5.589  -0.490  -0.072  0.00  0.00    +0.064 A 
ATOM      2  C   UNL     1       6.289   0.232  -1.043  0.00  0.00    +0.029 A 
ATOM      3  C   UNL     1       7.667   0.221  -1.048  0.00  0.00    +0.025 A 
ATOM      4  C   UNL     1       8.361  -0.508  -0.088  0.00  0.00    +0.034 A 
ATOM      5  C   UNL     1       7.668  -1.228   0.879  0.00  0.00    +0.025 A 
ATOM      6  C   UNL     1       6.291  -1.216   0.894  0.00  0.00    +0.029 A 
ENDROOT
BRANCH   4   7
ATOM      7  N   UNL     1       9.759  -0.518  -0.097  0.00  0.00    -0.279 N 
ATOM      8  C   UNL     1      10.438   0.577  -0.493  0.00  0.00    +0.284 C 
ATOM      9  O   UNL     1       9.839   1.604  -0.750  0.00  0.00    -0.266 OA
ATOM     10  H   UNL     1      10.240  -1.313   0.181  0.00  0.00    +0.155 HD
BRANCH   8  11
ATOM     11  C   UNL     1      11.898   0.530  -0.613  0.00  0.00    +0.189 A 
ATOM     12  C   UNL     1      12.706   1.562  -0.996  0.00  0.00    +0.054 A 
ATOM     13  C   UNL     1      14.022   1.076  -0.972  0.00  0.00    +0.042 A 
ATOM     14  C   UNL     1      13.961  -0.216  -0.580  0.00  0.00    +0.196 A 
ATOM     15  O   UNL     1      12.681  -0.540  -0.359  0.00  0.00    -0.458 OA
ENDBRANCH   8  11
ENDBRANCH   4   7
BRANCH   1  17
ATOM     16  C   UNL     1       3.575   0.644  -0.224  0.00  0.00    +0.137 C 
ATOM     17  N   UNL     1       4.222  -0.480  -0.063  0.00  0.00    -0.254 NA
BRANCH  16  20
ATOM     18  C   UNL     1      -0.021   1.317  -0.297  0.00  0.00    +0.019 A 
ATOM     19  C   UNL     1       1.303   1.762  -0.371  0.00  0.00    +0.028 A 
ATOM     20  C   UNL     1       2.113   0.654  -0.215  0.00  0.00    +0.058 A 
ATOM     21  N   UNL     1       1.293  -0.439  -0.049  0.00  0.00    -0.360 N 
ATOM     22  H   UNL     1       1.588  -1.353   0.083  0.00  0.00    +0.165 HD
ATOM     23  C   UNL     1       0.001  -0.023  -0.101  0.00  0.00    +0.083 A 
ENDBRANCH  16  20
ENDBRANCH   1  17
TORSDOF 4
