REMARK  Name = ZINC21585977
REMARK  7 active torsions:
REMARK  status: ('A' for Active; 'I' for Inactive)
REMARK    1  A    between atoms: C_1  and  C_2
REMARK    2  A    between atoms: C_2  and  C_19
REMARK    3  A    between atoms: N_5  and  C_9
REMARK    4  A    between atoms: C_9  and  C_10
REMARK    5  A    between atoms: C_10  and  O_11
REMARK    6  A    between atoms: O_11  and  C_12
REMARK    7  A    between atoms: C_19  and  C_20
REMARK                            x       y       z     vdW  Elec       q    Type
REMARK                         _______ _______ _______ _____ _____    ______ ____
ROOT
ATOM      1  C   UNL     1       3.085   3.359  -2.166  0.00  0.00    +0.042 C 
ATOM      2  C   UNL     1       4.101   2.453  -1.467  0.00  0.00    +0.114 C 
ATOM      3  C   UNL     1       5.485   3.071  -1.510  0.00  0.00    +0.247 C 
ATOM      4  O   UNL     1       5.830   4.128  -1.029  0.00  0.00    -0.273 OA
ATOM      5  N   UNL     1       6.251   2.200  -2.196  0.00  0.00    -0.221 N 
ATOM      6  C   UNL     1       5.551   1.129  -2.588  0.00  0.00    +0.309 C 
ATOM      7  O   UNL     1       6.025   0.207  -3.222  0.00  0.00    -0.252 OA
ATOM      8  N   UNL     1       4.260   1.187  -2.204  0.00  0.00    -0.285 N 
ATOM      9  H   UNL     1       3.398   0.516  -2.336  0.00  0.00    +0.151 HD
ENDROOT
BRANCH   5  10
ATOM     10  C   UNL     1       7.674   2.401  -2.479  0.00  0.00    +0.159 C 
BRANCH  10  11
ATOM     11  C   UNL     1       8.509   1.800  -1.346  0.00  0.00    +0.248 C 
BRANCH  11  12
ATOM     12  O   UNL     1       8.325   0.383  -1.319  0.00  0.00    -0.490 OA
BRANCH  12  13
ATOM     13  C   UNL     1       9.002  -0.309  -0.365  0.00  0.00    +0.122 A 
ATOM     14  C   UNL     1       8.870  -1.688  -0.281  0.00  0.00    +0.046 A 
ATOM     15  C   UNL     1       9.558  -2.389   0.690  0.00  0.00    +0.005 A 
ATOM     16  C   UNL     1      10.378  -1.719   1.578  0.00  0.00    +0.020 A 
ATOM     17  C   UNL     1      10.511  -0.344   1.498  0.00  0.00    +0.044 A 
ATOM     18  C   UNL     1       9.829   0.361   0.524  0.00  0.00    +0.065 A 
ATOM     19 CL   UNL     1      11.542   0.494   2.615  0.00  0.00    -0.083 Cl
ENDBRANCH  12  13
ENDBRANCH  11  12
ENDBRANCH  10  11
ENDBRANCH   5  10
BRANCH   2  20
ATOM     20  C   UNL     1       3.676   2.186  -0.022  0.00  0.00    +0.070 C 
BRANCH  20  21
ATOM     21  C   UNL     1       2.380   1.416  -0.014  0.00  0.00    -0.041 A 
ATOM     22  C   UNL     1       2.399   0.034  -0.021  0.00  0.00    +0.007 A 
ATOM     23  C   UNL     1       1.213  -0.677  -0.013  0.00  0.00    +0.050 A 
ATOM     24  C   UNL     1       0.002  -0.004   0.002  0.00  0.00    +0.166 A 
ATOM     25  C   UNL     1      -0.017   1.389   0.010  0.00  0.00    +0.166 A 
ATOM     26  C   UNL     1       1.176   2.094   0.002  0.00  0.00    +0.053 A 
ATOM     27  O   UNL     1      -1.316   1.807   0.019  0.00  0.00    -0.453 OA
ATOM     28  C   UNL     1      -2.092   0.666  -0.387  0.00  0.00    +0.466 C 
ATOM     29  O   UNL     1      -1.285  -0.458   0.012  0.00  0.00    -0.453 OA
ENDBRANCH  20  21
ENDBRANCH   2  20
TORSDOF 6
