REMARK  Name = ZINC59713723
REMARK  5 active torsions:
REMARK  status: ('A' for Active; 'I' for Inactive)
REMARK    1  A    between atoms: C_1  and  C_2
REMARK    2  A    between atoms: C_2  and  C_4
REMARK    3  A    between atoms: N_6  and  C_22
REMARK    4  A    between atoms: C_7  and  C_12
REMARK    5  A    between atoms: N_10  and  C_11
REMARK                            x       y       z     vdW  Elec       q    Type
REMARK                         _______ _______ _______ _____ _____    ______ ____
ROOT
ATOM      1  C   UNL     1      -0.788  -1.218  -0.977  0.00  0.00    +0.195 C 
ATOM      2  N   UNL     1      -0.901  -0.289  -1.894  0.00  0.00    -0.158 NA
ATOM      3  N   UNL     1      -0.206  -0.434  -3.108  0.00  0.00    -0.200 N 
ATOM      4  C   UNL     1       0.874  -1.431  -3.173  0.00  0.00    +0.212 C 
ATOM      5  N   UNL     1       0.406  -2.648  -2.483  0.00  0.00    -0.213 NA
ATOM      6  N   UNL     1       0.028  -2.335  -1.203  0.00  0.00    -0.248 N 
ATOM      7  C   UNL     1       0.469  -3.164  -0.079  0.00  0.00    +0.151 C 
ATOM      8  H   UNL     1       1.119  -3.362  -2.484  0.00  0.00    +0.147 HD
ENDROOT
BRANCH   4   9
ATOM      9  C   UNL     1       2.105  -0.896  -2.487  0.00  0.00    -0.002 A 
ATOM     10  C   UNL     1       1.991   0.063  -1.528  0.00  0.00    +0.007 A 
ATOM     11  C   UNL     1       3.117   0.570  -0.883  0.00  0.00    +0.001 A 
ATOM     12  C   UNL     1       4.364   0.121  -1.194  0.00  0.00    +0.008 A 
ATOM     13  C   UNL     1       4.521  -0.869  -2.178  0.00  0.00    -0.018 A 
ATOM     14  C   UNL     1       3.375  -1.389  -2.830  0.00  0.00    -0.012 A 
ATOM     15  C   UNL     1       3.532  -2.384  -3.811  0.00  0.00    +0.009 A 
ATOM     16  C   UNL     1       4.778  -2.837  -4.116  0.00  0.00    +0.001 A 
ATOM     17  C   UNL     1       5.905  -2.330  -3.471  0.00  0.00    +0.001 A 
ATOM     18  C   UNL     1       5.793  -1.357  -2.526  0.00  0.00    +0.008 A 
ENDBRANCH   4   9
BRANCH   3  19
ATOM     19  C   UNL     1      -0.532   0.344  -4.219  0.00  0.00    +0.054 A 
ATOM     20  C   UNL     1       0.164   0.181  -5.412  0.00  0.00    +0.026 A 
ATOM     21  C   UNL     1      -0.161   0.953  -6.510  0.00  0.00    +0.022 A 
ATOM     22  C   UNL     1      -1.178   1.888  -6.424  0.00  0.00    +0.041 A 
ATOM     23  C   UNL     1      -1.872   2.053  -5.237  0.00  0.00    +0.022 A 
ATOM     24  C   UNL     1      -1.556   1.280  -4.138  0.00  0.00    +0.026 A 
ATOM     25 CL   UNL     1      -1.583   2.857  -7.806  0.00  0.00    -0.084 Cl
ENDBRANCH   3  19
BRANCH   1  27
ATOM     26  C   UNL     1      -2.251   0.173   0.551  0.00  0.00    +0.095 C 
ATOM     27  C   UNL     1      -1.488  -1.090   0.247  0.00  0.00    +0.195 C 
ATOM     28  O   UNL     1      -1.472  -1.999   1.053  0.00  0.00    -0.289 OA
ENDBRANCH   1  27
TORSDOF 3
