REMARK  Name = ZINC31788918
REMARK  7 active torsions:
REMARK  status: ('A' for Active; 'I' for Inactive)
REMARK    1  A    between atoms: C_1  and  C_2
REMARK    2  A    between atoms: C_2  and  O_3
REMARK    3  A    between atoms: O_3  and  C_4
REMARK    4  A    between atoms: C_4  and  C_6
REMARK    5  A    between atoms: C_7  and  C_21
REMARK    6  A    between atoms: C_12  and  C_14
REMARK    7  A    between atoms: C_21  and  N_22
REMARK                            x       y       z     vdW  Elec       q    Type
REMARK                         _______ _______ _______ _____ _____    ______ ____
ROOT
ATOM      1  C   UNL     1      -0.005  -0.005  -0.061  0.00  0.00    +0.080 C 
ATOM      2  C   UNL     1      -1.138  -0.718   0.115  0.00  0.00    +0.044 C 
ATOM      3  N   UNL     1      -1.112  -2.083   0.166  0.00  0.00    -0.271 N 
ATOM      4  C   UNL     1       0.009  -2.808   0.059  0.00  0.00    +0.304 C 
ATOM      5  O   UNL     1      -0.067  -4.020   0.121  0.00  0.00    -0.252 OA
ATOM      6  N   UNL     1       1.218  -2.239  -0.115  0.00  0.00    -0.288 N 
ATOM      7  C   UNL     1       1.297  -0.770  -0.188  0.00  0.00    +0.144 C 
ATOM      8  H   UNL     1      -2.047  -2.647   0.301  0.00  0.00    +0.156 HD
ATOM      9  H   UNL     1       2.132  -2.844  -0.201  0.00  0.00    +0.151 HD
ENDROOT
BRANCH   7  10
ATOM     10  C   UNL     1       1.923  -0.404  -1.509  0.00  0.00    -0.022 A 
ATOM     11  C   UNL     1       1.481  -1.004  -2.673  0.00  0.00    +0.007 A 
ATOM     12  C   UNL     1       2.051  -0.665  -3.886  0.00  0.00    +0.020 A 
ATOM     13  C   UNL     1       3.073   0.267  -3.933  0.00  0.00    +0.041 A 
ATOM     14  C   UNL     1       3.519   0.863  -2.767  0.00  0.00    +0.020 A 
ATOM     15  C   UNL     1       2.944   0.527  -1.556  0.00  0.00    +0.007 A 
ATOM     16 CL   UNL     1       3.795   0.688  -5.454  0.00  0.00    -0.084 Cl
ENDBRANCH   7  10
BRANCH   1  17
ATOM     17  C   UNL     1      -0.032   1.408  -0.119  0.00  0.00    +0.339 C 
ATOM     18  O   UNL     1      -1.067   2.006   0.104  0.00  0.00    -0.245 OA
BRANCH  17  19
ATOM     19  O   UNL     1       1.089   2.092  -0.429  0.00  0.00    -0.462 OA
BRANCH  19  21
ATOM     20  C   UNL     1       2.351   4.113  -0.834  0.00  0.00    +0.048 C 
ATOM     21  C   UNL     1       0.990   3.517  -0.470  0.00  0.00    +0.229 C 
ENDBRANCH  19  21
ENDBRANCH  17  19
ENDBRANCH   1  17
BRANCH   2  22
ATOM     22  C   UNL     1      -2.454   0.003   0.253  0.00  0.00    +0.177 C 
BRANCH  22  23
ATOM     23  N   UNL     1      -3.547  -0.901  -0.114  0.00  0.00    -0.293 N 
ATOM     24  C   UNL     1      -4.138  -1.681   0.828  0.00  0.00    +0.203 A 
ATOM     25  N   UNL     1      -5.107  -2.498   0.567  0.00  0.00    -0.236 NA
ATOM     26  C   UNL     1      -5.617  -2.640  -0.701  0.00  0.00    +0.085 A 
ATOM     27  C   UNL     1      -6.654  -3.476  -1.137  0.00  0.00    +0.036 A 
ATOM     28  C   UNL     1      -7.022  -3.481  -2.437  0.00  0.00    +0.048 A 
ATOM     29  S   UNL     1      -5.914  -2.284  -3.163  0.00  0.00    -0.090 S 
ATOM     30  C   UNL     1      -5.022  -1.844  -1.695  0.00  0.00    +0.102 A 
ATOM     31  C   UNL     1      -3.982  -0.963  -1.396  0.00  0.00    +0.269 A 
ATOM     32  O   UNL     1      -3.476  -0.272  -2.264  0.00  0.00    -0.266 OA
ENDBRANCH  22  23
ENDBRANCH   2  22
TORSDOF 6
