REMARK  Name = ZINC36569685
REMARK  11 active torsions:
REMARK  status: ('A' for Active; 'I' for Inactive)
REMARK    1  A    between atoms: C_1  and  O_2
REMARK    2  A    between atoms: O_2  and  C_3
REMARK    3  A    between atoms: C_6  and  C_10
REMARK    4  A    between atoms: N_23  and  C_24
REMARK    5  A    between atoms: C_24  and  C_26
REMARK    6  A    between atoms: C_24  and  C_30
REMARK    7  A    between atoms: C_26  and  C_27
REMARK    8  A    between atoms: C_27  and  S_28
REMARK    9  A    between atoms: S_28  and  C_29
REMARK   10  A    between atoms: C_30  and  O_32
REMARK   11  A    between atoms: O_32  and  C_33
REMARK                            x       y       z     vdW  Elec       q    Type
REMARK                         _______ _______ _______ _____ _____    ______ ____
ROOT
ATOM      1  C   UNL     1       2.507  -2.521  -4.418  0.00  0.00    +0.159 C 
ATOM      2  C   UNL     1       1.481  -2.952  -5.439  0.00  0.00    +0.062 A 
ATOM      3  C   UNL     1       1.307  -2.340  -6.630  0.00  0.00    +0.040 A 
ATOM      4  N   UNL     1       0.302  -2.998  -7.272  0.00  0.00    -0.349 N 
ATOM      5  H   UNL     1      -0.055  -2.791  -8.150  0.00  0.00    +0.166 HD
ATOM      6  C   UNL     1      -0.106  -3.995  -6.453  0.00  0.00    +0.171 A 
ATOM      7  N   UNL     1       0.608  -3.958  -5.358  0.00  0.00    -0.348 N 
ATOM      8  C   UNL     1       2.106  -1.158  -7.116  0.00  0.00    +0.074 C 
ATOM      9  C   UNL     1       2.800  -0.504  -5.915  0.00  0.00    +0.116 C 
ATOM     10  N   UNL     1       3.402  -1.552  -5.075  0.00  0.00    -0.273 N 
ATOM     11  C   UNL     1       4.738  -1.627  -4.912  0.00  0.00    +0.304 C 
ATOM     12  O   UNL     1       5.457  -0.770  -5.389  0.00  0.00    -0.253 OA
ATOM     13  N   UNL     1       5.277  -2.650  -4.220  0.00  0.00    -0.286 N 
ATOM     14  H   UNL     1       4.710  -3.365  -3.892  0.00  0.00    +0.151 HD
ATOM     15  H   UNL     1       0.518  -4.565  -4.607  0.00  0.00    +0.167 HD
ENDROOT
BRANCH   1  19
ATOM     16  C   UNL     1       0.557  -0.675  -1.091  0.00  0.00    +0.123 A 
ATOM     17  C   UNL     1      -0.115  -0.826  -2.295  0.00  0.00    +0.046 A 
ATOM     18  C   UNL     1       0.517  -1.423  -3.369  0.00  0.00    +0.012 A 
ATOM     19  C   UNL     1       1.820  -1.870  -3.245  0.00  0.00    +0.014 A 
ATOM     20  C   UNL     1       2.493  -1.721  -2.044  0.00  0.00    +0.132 A 
ATOM     21  C   UNL     1       1.865  -1.119  -0.968  0.00  0.00    +0.084 A 
ATOM     22  F   UNL     1       3.766  -2.159  -1.925  0.00  0.00    -0.205 F 
BRANCH  16  24
ATOM     23  C   UNL     1      -1.412   0.344  -0.232  0.00  0.00    +0.277 C 
ATOM     24  O   UNL     1      -0.064  -0.089  -0.034  0.00  0.00    -0.495 OA
ENDBRANCH  16  24
ENDBRANCH   1  19
BRANCH  13  25
ATOM     25  C   UNL     1       6.719  -2.682  -3.964  0.00  0.00    +0.184 C 
BRANCH  25  26
ATOM     26  C   UNL     1       7.028  -1.875  -2.730  0.00  0.00    +0.327 C 
ATOM     27  O   UNL     1       6.135  -1.329  -2.126  0.00  0.00    -0.249 OA
BRANCH  26  28
ATOM     28  O   UNL     1       8.295  -1.763  -2.301  0.00  0.00    -0.467 OA
ATOM     29  C   UNL     1       8.515  -0.982  -1.125  0.00  0.00    +0.280 C 
ENDBRANCH  26  28
ENDBRANCH  25  26
BRANCH  25  30
ATOM     30  C   UNL     1       7.167  -4.130  -3.752  0.00  0.00    +0.044 C 
BRANCH  30  31
ATOM     31  C   UNL     1       6.968  -4.920  -5.047  0.00  0.00    +0.071 C 
BRANCH  31  32
ATOM     32  S   UNL     1       7.499  -6.636  -4.796  0.00  0.00    -0.164 S 
ATOM     33  C   UNL     1       7.202  -7.427  -6.401  0.00  0.00    +0.084 C 
ENDBRANCH  31  32
ENDBRANCH  30  31
ENDBRANCH  25  30
ENDBRANCH  13  25
TORSDOF 8
