REMARK  Name = ZINC19899403
REMARK  13 active torsions:
REMARK  status: ('A' for Active; 'I' for Inactive)
REMARK    1  A    between atoms: C_1  and  C_2
REMARK    2  A    between atoms: C_5  and  S_8
REMARK    3  A    between atoms: S_8  and  C_11
REMARK    4  A    between atoms: C_11  and  C_12
REMARK    5  A    between atoms: C_12  and  C_14
REMARK    6  A    between atoms: C_12  and  N_24
REMARK    7  A    between atoms: C_14  and  N_15
REMARK    8  A    between atoms: N_15  and  C_16
REMARK    9  A    between atoms: N_15  and  C_17
REMARK   10  A    between atoms: C_17  and  C_18
REMARK   11  A    between atoms: N_24  and  C_25
REMARK   12  A    between atoms: N_24  and  C_26
REMARK   13  A    between atoms: C_26  and  C_27
REMARK                            x       y       z     vdW  Elec       q    Type
REMARK                         _______ _______ _______ _____ _____    ______ ____
ROOT
ATOM      1  C   UNL     1       3.045   0.160  -2.514  0.00  0.00    +0.061 C 
ENDROOT
BRANCH   1   2
ATOM      2  N   UNL     1       3.245  -0.917  -1.535  0.00  0.00    -0.298 NA
ATOM      3  C   UNL     1       2.241  -1.976  -1.704  0.00  0.00    +0.105 C 
BRANCH   2   4
ATOM      4  C   UNL     1       4.606  -1.463  -1.624  0.00  0.00    +0.119 C 
BRANCH   4   5
ATOM      5  C   UNL     1       5.569  -0.524  -0.945  0.00  0.00    -0.033 A 
ATOM      6  C   UNL     1       5.760  -0.599   0.422  0.00  0.00    +0.005 A 
ATOM      7  C   UNL     1       6.643   0.263   1.045  0.00  0.00    +0.000 A 
ATOM      8  C   UNL     1       7.336   1.199   0.300  0.00  0.00    +0.000 A 
ATOM      9  C   UNL     1       7.146   1.274  -1.067  0.00  0.00    +0.000 A 
ATOM     10  C   UNL     1       6.262   0.412  -1.690  0.00  0.00    +0.005 A 
ENDBRANCH   4   5
ENDBRANCH   2   4
ENDBRANCH   1   2
BRANCH   1  11
ATOM     11  C   UNL     1       2.533  -0.434  -3.828  0.00  0.00    +0.188 C 
BRANCH  11  12
ATOM     12  S   UNL     1       3.821  -1.480  -4.561  0.00  0.00    -0.002 S 
ATOM     13  O   UNL     1       4.992  -0.714  -4.809  0.00  0.00    -0.169 OA
ATOM     14  O   UNL     1       3.900  -2.718  -3.867  0.00  0.00    -0.169 OA
BRANCH  12  19
ATOM     15  C   UNL     1       1.728  -2.914 -10.035  0.00  0.00    +0.044 C 
ATOM     16  C   UNL     1       2.251  -2.556  -8.668  0.00  0.00    -0.050 A 
ATOM     17  C   UNL     1       3.019  -1.419  -8.497  0.00  0.00    +0.005 A 
ATOM     18  C   UNL     1       3.499  -1.091  -7.243  0.00  0.00    +0.027 A 
ATOM     19  C   UNL     1       3.210  -1.899  -6.159  0.00  0.00    +0.088 A 
ATOM     20  C   UNL     1       2.445  -3.038  -6.330  0.00  0.00    +0.027 A 
ATOM     21  C   UNL     1       1.962  -3.364  -7.584  0.00  0.00    +0.005 A 
ENDBRANCH  12  19
ENDBRANCH  11  12
ENDBRANCH   1  11
BRANCH   1  22
ATOM     22  C   UNL     1       2.019   1.157  -1.972  0.00  0.00    -0.058 C 
BRANCH  22  23
ATOM     23  N   UNL     1       1.960   2.328  -2.857  0.00  0.00    +0.382 N 
ATOM     24  C   UNL     1       3.196   3.117  -2.770  0.00  0.00    -0.096 C 
ATOM     25  H   UNL     1       1.863   1.966  -3.891  0.00  0.00    -0.082 HD
BRANCH  23  26
ATOM     26  C   UNL     1       0.784   3.156  -2.556  0.00  0.00    -0.043 C 
BRANCH  26  27
ATOM     27  C   UNL     1       0.533   4.106  -3.699  0.00  0.00    -0.064 A 
ATOM     28  C   UNL     1       1.070   5.380  -3.670  0.00  0.00    +0.002 A 
ATOM     29  C   UNL     1       0.844   6.249  -4.721  0.00  0.00    +0.000 A 
ATOM     30  C   UNL     1       0.073   5.848  -5.796  0.00  0.00    +0.000 A 
ATOM     31  C   UNL     1      -0.469   4.576  -5.822  0.00  0.00    +0.000 A 
ATOM     32  C   UNL     1      -0.238   3.705  -4.774  0.00  0.00    +0.002 A 
ENDBRANCH  26  27
ENDBRANCH  23  26
ENDBRANCH  22  23
ENDBRANCH   1  22
TORSDOF 10
