REMARK  Name = ZINC12217843
REMARK  8 active torsions:
REMARK  status: ('A' for Active; 'I' for Inactive)
REMARK    1  A    between atoms: C_4  and  C_7
REMARK    2  A    between atoms: C_10  and  C_12
REMARK    3  A    between atoms: C_12  and  N_62
REMARK    4  A    between atoms: C_18  and  C_22
REMARK    5  A    between atoms: C_22  and  C_23
REMARK    6  A    between atoms: C_23  and  N_24
REMARK    7  A    between atoms: C_25  and  C_27
REMARK    8  A    between atoms: C_27  and  C_28
REMARK                            x       y       z     vdW  Elec       q    Type
REMARK                         _______ _______ _______ _____ _____    ______ ____
ROOT
ATOM      1  C   UNL     1       0.209   3.779   2.096  0.00  0.00    -0.071 C 
ATOM      2  C   UNL     1      -0.652   5.038   1.949  0.00  0.00    +0.058 C 
ATOM      3  C   UNL     1      -0.314   5.992   3.066  0.00  0.00    +0.132 A 
ATOM      4  N   UNL     1      -1.138   6.661   3.818  0.00  0.00    -0.134 NA
ATOM      5  N   UNL     1      -0.472   7.398   4.637  0.00  0.00    -0.134 NA
ATOM      6  C   UNL     1       0.810   7.224   4.444  0.00  0.00    +0.135 A 
ATOM      7  N   UNL     1       0.943   6.318   3.452  0.00  0.00    -0.317 N 
ATOM      8  C   UNL     1       2.183   5.775   2.896  0.00  0.00    +0.106 C 
ATOM      9  C   UNL     1       1.942   5.358   1.442  0.00  0.00    -0.056 C 
ATOM     10  N   UNL     1       1.507   3.943   1.405  0.00  0.00    +0.384 N 
ATOM     11  H   UNL     1       2.211   3.368   1.883  0.00  0.00    -0.081 HD
ENDROOT
BRANCH  10  12
ATOM     12  C   UNL     1       1.390   3.490   0.007  0.00  0.00    -0.034 C 
BRANCH  12  16
ATOM     13  C   UNL     1       1.144  -0.677  -0.013  0.00  0.00    +0.108 A 
ATOM     14  N   UNL     1       0.002  -0.004   0.002  0.00  0.00    -0.247 NA
ATOM     15  C   UNL     1      -0.016   1.308   0.009  0.00  0.00    +0.120 A 
ATOM     16  C   UNL     1       1.154   2.002   0.002  0.00  0.00    -0.007 A 
ATOM     17  S   UNL     1       2.334   0.658  -0.017  0.00  0.00    -0.074 S 
BRANCH  13  21
ATOM     18  C   UNL     1       1.801  -4.874  -0.040  0.00  0.00    +0.000 A 
ATOM     19  C   UNL     1       0.509  -4.379  -0.025  0.00  0.00    +0.001 A 
ATOM     20  C   UNL     1       0.289  -3.017  -0.017  0.00  0.00    +0.010 A 
ATOM     21  C   UNL     1       1.373  -2.138  -0.022  0.00  0.00    +0.007 A 
ATOM     22  C   UNL     1       2.673  -2.643  -0.043  0.00  0.00    +0.010 A 
ATOM     23  C   UNL     1       2.880  -4.008  -0.046  0.00  0.00    +0.001 A 
ENDBRANCH  13  21
ENDBRANCH  12  16
ENDBRANCH  10  12
BRANCH   6  24
ATOM     24  C   UNL     1       1.928   7.906   5.190  0.00  0.00    +0.095 C 
BRANCH  24  25
ATOM     25  C   UNL     1       2.305   9.202   4.470  0.00  0.00    +0.112 C 
BRANCH  25  26
ATOM     26  N   UNL     1       3.392   9.865   5.195  0.00  0.00    -0.315 N 
ATOM     27  C   UNL     1       3.891  11.032   4.741  0.00  0.00    +0.217 C 
ATOM     28  O   UNL     1       3.441  11.533   3.733  0.00  0.00    -0.275 OA
ATOM     29  H   UNL     1       3.752   9.464   6.001  0.00  0.00    +0.149 HD
BRANCH  27  30
ATOM     30  C   UNL     1       5.009  11.713   5.487  0.00  0.00    +0.130 C 
BRANCH  30  31
ATOM     31  C   UNL     1       5.381  12.990   4.778  0.00  0.00    -0.038 A 
ATOM     32  C   UNL     1       6.359  12.977   3.800  0.00  0.00    +0.007 A 
ATOM     33  C   UNL     1       6.697  14.147   3.146  0.00  0.00    +0.038 A 
ATOM     34  C   UNL     1       6.064  15.333   3.477  0.00  0.00    +0.123 A 
ATOM     35  C   UNL     1       5.089  15.345   4.459  0.00  0.00    +0.038 A 
ATOM     36  C   UNL     1       4.748  14.174   5.109  0.00  0.00    +0.007 A 
ATOM     37  F   UNL     1       6.397  16.477   2.841  0.00  0.00    -0.205 F 
ENDBRANCH  30  31
ENDBRANCH  27  30
ENDBRANCH  25  26
ENDBRANCH  24  25
ENDBRANCH   6  24
TORSDOF 8
