REMARK  Name = ZINC66726449
REMARK  12 active torsions:
REMARK  status: ('A' for Active; 'I' for Inactive)
REMARK    1  A    between atoms: C_1  and  C_2
REMARK    2  A    between atoms: C_2  and  N_3
REMARK    3  A    between atoms: N_3  and  C_4
REMARK    4  A    between atoms: C_4  and  C_5
REMARK    5  A    between atoms: C_8  and  C_11
REMARK    6  A    between atoms: C_11  and  N_12
REMARK    7  A    between atoms: N_12  and  C_13
REMARK    8  A    between atoms: N_12  and  C_14
REMARK    9  A    between atoms: C_15  and  C_17
REMARK   10  A    between atoms: C_17  and  C_18
REMARK   11  A    between atoms: C_18  and  C_20
REMARK   12  A    between atoms: C_18  and  N_25
REMARK                            x       y       z     vdW  Elec       q    Type
REMARK                         _______ _______ _______ _____ _____    ______ ____
ROOT
ATOM      1  N   UNL     1      -1.372  -0.511   0.012  0.00  0.00    -0.297 N 
ATOM      2  C   UNL     1      -1.993  -0.751   1.184  0.00  0.00    +0.218 C 
ATOM      3  O   UNL     1      -3.131  -1.171   1.193  0.00  0.00    -0.276 OA
ENDROOT
BRANCH   1   5
ATOM      4  C   UNL     1      -0.019   1.526   0.010  0.00  0.00    +0.024 C 
ATOM      5  C   UNL     1       0.002  -0.004   0.002  0.00  0.00    +0.105 C 
ENDBRANCH   1   5
BRANCH   1   6
ATOM      6  C   UNL     1      -2.072  -0.758  -1.251  0.00  0.00    +0.142 C 
BRANCH   6   7
ATOM      7  C   UNL     1      -1.820  -2.175  -1.696  0.00  0.00    -0.030 A 
ATOM      8  C   UNL     1      -0.734  -2.464  -2.502  0.00  0.00    +0.005 A 
ATOM      9  C   UNL     1      -0.503  -3.765  -2.910  0.00  0.00    +0.002 A 
ATOM     10  C   UNL     1      -1.357  -4.776  -2.512  0.00  0.00    -0.064 A 
ATOM     11  C   UNL     1      -2.442  -4.487  -1.706  0.00  0.00    +0.002 A 
ATOM     12  C   UNL     1      -2.671  -3.188  -1.294  0.00  0.00    +0.005 A 
BRANCH  10  13
ATOM     13  C   UNL     1      -1.106  -6.194  -2.958  0.00  0.00    -0.044 C 
BRANCH  13  14
ATOM     14  N   UNL     1      -0.245  -6.870  -1.978  0.00  0.00    +0.379 N 
ATOM     15  C   UNL     1      -0.958  -6.986  -0.699  0.00  0.00    -0.096 C 
ATOM     16  C   UNL     1       0.097  -8.211  -2.471  0.00  0.00    -0.096 C 
ATOM     17  H   UNL     1       0.599  -6.334  -1.846  0.00  0.00    -0.082 HD
ENDBRANCH  13  14
ENDBRANCH  10  13
ENDBRANCH   6   7
ENDBRANCH   1   6
BRANCH   2  18
ATOM     18  C   UNL     1      -1.274  -0.497   2.484  0.00  0.00    +0.123 C 
BRANCH  18  19
ATOM     19  C   UNL     1      -2.196  -0.847   3.654  0.00  0.00    +0.120 C 
BRANCH  19  20
ATOM     20  N   UNL     1      -2.477  -2.285   3.641  0.00  0.00    -0.292 N 
ATOM     21  C   UNL     1      -3.604  -2.757   4.210  0.00  0.00    +0.298 C 
ATOM     22  O   UNL     1      -4.387  -1.989   4.734  0.00  0.00    -0.253 OA
ATOM     23  N   UNL     1      -3.862  -4.080   4.197  0.00  0.00    -0.313 N 
ATOM     24  H   UNL     1      -1.851  -2.897   3.223  0.00  0.00    +0.151 HD
ATOM     25  H   UNL     1      -3.237  -4.692   3.779  0.00  0.00    +0.146 HD
ATOM     26  H   UNL     1      -4.673  -4.419   4.607  0.00  0.00    +0.146 HD
ENDBRANCH  19  20
BRANCH  19  27
ATOM     27  C   UNL     1      -1.523  -0.479   4.951  0.00  0.00    +0.010 A 
ATOM     28  C   UNL     1      -1.714   0.613   5.732  0.00  0.00    +0.013 A 
ATOM     29  C   UNL     1      -0.977   0.744   6.893  0.00  0.00    +0.008 A 
ATOM     30  C   UNL     1      -0.084  -0.223   7.218  0.00  0.00    +0.045 A 
ATOM     31  S   UNL     1      -0.273  -1.370   5.862  0.00  0.00    -0.100 S 
ENDBRANCH  19  27
ENDBRANCH  18  19
ENDBRANCH   2  18
TORSDOF 9
