REMARK  Name = ZINC03874477
REMARK  4 active torsions:
REMARK  status: ('A' for Active; 'I' for Inactive)
REMARK    1  A    between atoms: C_17  and  O_19
REMARK    2  A    between atoms: C_24  and  O_27
REMARK    3  A    between atoms: C_29  and  C_30
REMARK    4  A    between atoms: C_29  and  N_56
REMARK                            x       y       z     vdW  Elec       q    Type
REMARK                         _______ _______ _______ _____ _____    ______ ____
ROOT
ATOM      1  C   UNL     1       1.145   2.134   0.003  0.00  0.00    +0.001 A 
ATOM      2  C   UNL     1      -0.017   1.380   0.010  0.00  0.00    +0.004 A 
ATOM      3  C   UNL     1       0.002  -0.004   0.002  0.00  0.00    +0.047 A 
ATOM      4  C   UNL     1       1.248  -0.621  -0.010  0.00  0.00    +0.136 A 
ATOM      5  C   UNL     1       2.439   0.155  -0.010  0.00  0.00    +0.024 A 
ATOM      6  C   UNL     1       2.389   1.553  -0.008  0.00  0.00    +0.012 A 
ATOM      7  C   UNL     1       3.511  -0.796  -0.011  0.00  0.00    +0.008 A 
ATOM      8  C   UNL     1       2.921  -2.049   0.006  0.00  0.00    +0.151 A 
ATOM      9  O   UNL     1       1.603  -1.914  -0.026  0.00  0.00    -0.456 OA
ATOM     10  C   UNL     1       3.897  -3.148   0.111  0.00  0.00    +0.252 C 
ATOM     11  C   UNL     1       4.913  -2.955  -1.022  0.00  0.00    +0.069 C 
ATOM     12  C   UNL     1       4.561  -3.366  -2.443  0.00  0.00    -0.000 C 
ATOM     13  C   UNL     1       5.921  -3.396  -3.177  0.00  0.00    -0.077 C 
ATOM     14  C   UNL     1       6.913  -1.691  -1.639  0.00  0.00    -0.031 C 
ATOM     15  C   UNL     1       5.507  -1.580  -1.117  0.00  0.00    +0.072 C 
ATOM     16  C   UNL     1       5.023  -0.667  -0.027  0.00  0.00    +0.073 C 
ATOM     17  C   UNL     1       7.854  -2.666  -0.939  0.00  0.00    +0.023 C 
ATOM     18  C   UNL     1       7.224  -3.945  -0.506  0.00  0.00    -0.041 A 
ATOM     19  C   UNL     1       5.858  -3.992  -0.484  0.00  0.00    +0.014 A 
ATOM     20  C   UNL     1       5.031  -5.000   0.026  0.00  0.00    +0.167 A 
ATOM     21  C   UNL     1       5.673  -6.163   0.431  0.00  0.00    +0.159 A 
ATOM     22  C   UNL     1       7.068  -6.173   0.357  0.00  0.00    +0.049 A 
ATOM     23  C   UNL     1       7.841  -5.102  -0.073  0.00  0.00    +0.007 A 
ATOM     24  O   UNL     1       3.721  -4.561   0.003  0.00  0.00    -0.476 OA
ATOM     25  N   UNL     1       6.697  -2.130  -3.081  0.00  0.00    +0.384 N 
ATOM     26  H   UNL     1       6.171  -1.393  -3.565  0.00  0.00    -0.081 HD
ENDROOT
BRANCH  15  27
ATOM     27  O   UNL     1       4.806  -1.071  -2.253  0.00  0.00    -0.389 OA
ATOM     28  H   UNL     1       5.132  -0.216  -2.566  0.00  0.00    +0.210 HD
ENDBRANCH  15  27
BRANCH  21  29
ATOM     29  O   UNL     1       4.976  -7.242   0.880  0.00  0.00    -0.503 OA
ATOM     30  H   UNL     1       4.728  -7.867   0.184  0.00  0.00    +0.292 HD
ENDBRANCH  21  29
BRANCH  25  31
ATOM     31  C   UNL     1       7.991  -2.299  -3.746  0.00  0.00    -0.075 C 
BRANCH  31  32
ATOM     32  C   UNL     1       7.731  -2.556  -5.231  0.00  0.00    -0.028 C 
ATOM     33  C   UNL     1       8.205  -3.890  -5.811  0.00  0.00    +0.002 C 
ATOM     34  C   UNL     1       8.943  -2.596  -6.164  0.00  0.00    +0.002 C 
ENDBRANCH  31  32
ENDBRANCH  25  31
TORSDOF 4
