REMARK  Name = ZINC14668650
REMARK  10 active torsions:
REMARK  status: ('A' for Active; 'I' for Inactive)
REMARK    1  A    between atoms: C_1  and  C_2
REMARK    2  A    between atoms: C_2  and  C_3
REMARK    3  A    between atoms: C_2  and  O_4
REMARK    4  A    between atoms: O_4  and  C_5
REMARK    5  A    between atoms: C_10  and  C_11
REMARK    6  A    between atoms: N_13  and  C_14
REMARK    7  A    between atoms: C_14  and  N_16
REMARK    8  A    between atoms: N_16  and  N_17
REMARK    9  A    between atoms: C_18  and  C_20
REMARK   10  A    between atoms: C_20  and  C_21
REMARK                            x       y       z     vdW  Elec       q    Type
REMARK                         _______ _______ _______ _____ _____    ______ ____
ROOT
ATOM      1  C   UNL     1      -2.230  -0.390   0.239  0.00  0.00    +0.253 C 
ATOM      2  O   UNL     1      -2.416   0.793   0.450  0.00  0.00    -0.270 OA
ATOM      3  N   UNL     1      -3.254  -1.261   0.336  0.00  0.00    -0.263 N 
ATOM      4  H   UNL     1      -3.105  -2.204   0.168  0.00  0.00    +0.157 HD
ENDROOT
BRANCH   1  10
ATOM      5  C   UNL     1       0.184   0.031  -0.224  0.00  0.00    +0.133 A 
ATOM      6  C   UNL     1       1.447  -0.433  -0.559  0.00  0.00    +0.047 A 
ATOM      7  C   UNL     1       1.650  -1.778  -0.796  0.00  0.00    +0.019 A 
ATOM      8  C   UNL     1       0.596  -2.674  -0.702  0.00  0.00    +0.019 A 
ATOM      9  C   UNL     1      -0.667  -2.229  -0.371  0.00  0.00    +0.032 A 
ATOM     10  C   UNL     1      -0.884  -0.871  -0.122  0.00  0.00    +0.080 A 
ATOM     11 BR   UNL     1       0.890  -4.513  -1.029  0.00  0.00    -0.050 Br
BRANCH   5  12
ATOM     12  O   UNL     1      -0.016   1.352   0.009  0.00  0.00    -0.489 OA
BRANCH  12  14
ATOM     13  C   UNL     1       1.464   2.616  -1.424  0.00  0.00    +0.051 C 
ATOM     14  C   UNL     1       1.139   2.193   0.011  0.00  0.00    +0.167 C 
ATOM     15  C   UNL     1       0.864   3.437   0.859  0.00  0.00    +0.051 C 
ENDBRANCH  12  14
ENDBRANCH   5  12
ENDBRANCH   1  10
BRANCH   3  16
ATOM     16  C   UNL     1      -4.484  -0.821   0.667  0.00  0.00    +0.153 C 
ATOM     17  S   UNL     1      -4.746   0.845   0.964  0.00  0.00    -0.017 S 
BRANCH  16  18
ATOM     18  N   UNL     1      -5.508  -1.692   0.763  0.00  0.00    -0.246 N 
ATOM     19  H   UNL     1      -6.393  -1.375   1.001  0.00  0.00    +0.172 HD
BRANCH  18  20
ATOM     20  N   UNL     1      -5.293  -3.055   0.520  0.00  0.00    -0.235 N 
ATOM     21  C   UNL     1      -6.317  -3.926   0.617  0.00  0.00    +0.233 C 
ATOM     22  O   UNL     1      -7.424  -3.530   0.914  0.00  0.00    -0.274 OA
ATOM     23  H   UNL     1      -4.408  -3.372   0.282  0.00  0.00    +0.173 HD
BRANCH  21  24
ATOM     24  C   UNL     1      -6.087  -5.392   0.355  0.00  0.00    +0.132 C 
BRANCH  24  25
ATOM     25  C   UNL     1      -7.382  -6.143   0.528  0.00  0.00    -0.039 A 
ATOM     26  C   UNL     1      -7.721  -6.659   1.764  0.00  0.00    +0.004 A 
ATOM     27  C   UNL     1      -8.912  -7.344   1.924  0.00  0.00    +0.000 A 
ATOM     28  C   UNL     1      -9.757  -7.521   0.845  0.00  0.00    +0.000 A 
ATOM     29  C   UNL     1      -9.415  -7.009  -0.393  0.00  0.00    +0.000 A 
ATOM     30  C   UNL     1      -8.227  -6.320  -0.551  0.00  0.00    +0.004 A 
ENDBRANCH  24  25
ENDBRANCH  21  24
ENDBRANCH  18  20
ENDBRANCH  16  18
ENDBRANCH   3  16
TORSDOF 8
