REMARK  Name = ZINC00782030
REMARK  9 active torsions:
REMARK  status: ('A' for Active; 'I' for Inactive)
REMARK    1  A    between atoms: C_1  and  C_2
REMARK    2  A    between atoms: C_9  and  C_14
REMARK    3  A    between atoms: C_14  and  C_16
REMARK    4  A    between atoms: C_14  and  N_69
REMARK    5  A    between atoms: N_20  and  C_21
REMARK    6  A    between atoms: C_26  and  C_27
REMARK    7  A    between atoms: C_26  and  N_69
REMARK    8  A    between atoms: C_33  and  C_34
REMARK    9  A    between atoms: C_33  and  N_69
REMARK                            x       y       z     vdW  Elec       q    Type
REMARK                         _______ _______ _______ _____ _____    ______ ____
ROOT
ATOM      1  C   UNL     1       5.253  -1.880  -2.155  0.00  0.00    +0.040 C 
ENDROOT
BRANCH   1  10
ATOM      2  C   UNL     1       4.971  -6.426  -8.060  0.00  0.00    +0.044 C 
ATOM      3  C   UNL     1       5.351  -5.110  -7.432  0.00  0.00    -0.050 A 
ATOM      4  C   UNL     1       5.973  -4.135  -8.200  0.00  0.00    +0.005 A 
ATOM      5  C   UNL     1       6.330  -2.925  -7.646  0.00  0.00    +0.026 A 
ATOM      6  C   UNL     1       6.064  -2.675  -6.303  0.00  0.00    +0.049 A 
ATOM      7  C   UNL     1       5.433  -3.666  -5.528  0.00  0.00    -0.001 A 
ATOM      8  C   UNL     1       5.080  -4.888  -6.111  0.00  0.00    +0.013 A 
ATOM      9  C   UNL     1       5.158  -3.394  -4.116  0.00  0.00    +0.017 A 
ATOM     10  C   UNL     1       5.522  -2.192  -3.605  0.00  0.00    +0.011 A 
ATOM     11  C   UNL     1       6.147  -1.230  -4.427  0.00  0.00    +0.251 A 
ATOM     12  O   UNL     1       6.462  -0.154  -3.949  0.00  0.00    -0.268 OA
ATOM     13  N   UNL     1       6.409  -1.473  -5.723  0.00  0.00    -0.322 N 
ATOM     14  H   UNL     1       6.861  -0.772  -6.274  0.00  0.00    +0.169 HD
ENDBRANCH   1  10
BRANCH   1  15
ATOM     15  C   UNL     1       6.561  -1.688  -1.431  0.00  0.00    +0.143 A 
ATOM     16  N   UNL     1       7.257  -0.580  -1.353  0.00  0.00    -0.115 NA
ATOM     17  N   UNL     1       8.309  -0.820  -0.649  0.00  0.00    -0.023 NA
ATOM     18  N   UNL     1       8.303  -2.053  -0.278  0.00  0.00    -0.044 NA
ATOM     19  N   UNL     1       7.239  -2.620  -0.736  0.00  0.00    -0.227 N 
BRANCH  19  20
ATOM     20  C   UNL     1       6.843  -4.017  -0.538  0.00  0.00    +0.111 C 
ATOM     21  C   UNL     1       6.791  -4.343   0.968  0.00  0.00    +0.027 C 
ATOM     22  C   UNL     1       7.321  -5.797   1.060  0.00  0.00    +0.002 C 
ATOM     23  C   UNL     1       8.447  -5.819  -0.003  0.00  0.00    +0.002 C 
ATOM     24  C   UNL     1       7.896  -4.955  -1.156  0.00  0.00    +0.027 C 
ENDBRANCH  19  20
ENDBRANCH   1  15
BRANCH   1  25
ATOM     25  N   UNL     1       4.473  -0.628  -2.064  0.00  0.00    +0.395 N 
ATOM     26  H   UNL     1       5.093   0.167  -2.259  0.00  0.00    -0.079 HD
BRANCH  25  27
ATOM     27  C   UNL     1       3.381  -0.640  -3.061  0.00  0.00    -0.041 C 
BRANCH  27  28
ATOM     28  C   UNL     1       2.744   0.725  -3.100  0.00  0.00    -0.064 A 
ATOM     29  C   UNL     1       3.236   1.694  -3.955  0.00  0.00    +0.002 A 
ATOM     30  C   UNL     1       2.651   2.946  -3.991  0.00  0.00    +0.000 A 
ATOM     31  C   UNL     1       1.575   3.229  -3.172  0.00  0.00    +0.000 A 
ATOM     32  C   UNL     1       1.082   2.261  -2.317  0.00  0.00    +0.000 A 
ATOM     33  C   UNL     1       1.667   1.009  -2.281  0.00  0.00    +0.002 A 
ENDBRANCH  27  28
ENDBRANCH  25  27
BRANCH  25  34
ATOM     34  C   UNL     1       3.913  -0.479  -0.705  0.00  0.00    -0.040 C 
BRANCH  34  35
ATOM     35  C   UNL     1       5.021  -0.069   0.232  0.00  0.00    -0.046 A 
ATOM     36  C   UNL     1       5.655  -1.012   1.025  0.00  0.00    +0.005 A 
ATOM     37  C   UNL     1       6.672  -0.590   1.868  0.00  0.00    +0.020 A 
ATOM     38  C   UNL     1       7.010   0.750   1.896  0.00  0.00    +0.111 A 
ATOM     39  N   UNL     1       6.382   1.620   1.131  0.00  0.00    -0.263 NA
ATOM     40  C   UNL     1       5.414   1.254   0.314  0.00  0.00    +0.112 A 
ENDBRANCH  34  35
ENDBRANCH  25  34
ENDBRANCH   1  25
TORSDOF 8
