REMARK  Name = ZINC20569462
REMARK  6 active torsions:
REMARK  status: ('A' for Active; 'I' for Inactive)
REMARK    1  A    between atoms: C_4  and  S_7
REMARK    2  A    between atoms: S_7  and  N_10
REMARK    3  A    between atoms: N_10  and  C_11
REMARK    4  A    between atoms: C_16  and  C_17
REMARK    5  A    between atoms: N_19  and  C_20
REMARK    6  A    between atoms: C_21  and  C_29
REMARK                            x       y       z     vdW  Elec       q    Type
REMARK                         _______ _______ _______ _____ _____    ______ ____
ROOT
ATOM      1  C   UNL     1      -2.404   1.206  -0.154  0.00  0.00    +0.060 A 
ATOM      2  C   UNL     1      -3.553   1.984  -0.210  0.00  0.00    +0.025 A 
ATOM      3  C   UNL     1      -3.456   3.351  -0.369  0.00  0.00    +0.002 A 
ATOM      4  C   UNL     1      -2.214   3.959  -0.470  0.00  0.00    +0.001 A 
ATOM      5  C   UNL     1      -1.063   3.204  -0.412  0.00  0.00    +0.015 A 
ATOM      6  C   UNL     1      -1.145   1.819  -0.251  0.00  0.00    +0.059 A 
ENDROOT
BRANCH   6   7
ATOM      7  C   UNL     1       0.083   1.005  -0.189  0.00  0.00    +0.250 C 
ATOM      8  O   UNL     1       0.007  -0.200  -0.048  0.00  0.00    -0.270 OA
ATOM      9  N   UNL     1       1.289   1.597  -0.294  0.00  0.00    -0.275 N 
ATOM     10  H   UNL     1       1.358   2.688  -0.421  0.00  0.00    +0.156 HD
BRANCH   9  11
ATOM     11  C   UNL     1       2.444   0.831  -0.241  0.00  0.00    +0.090 A 
ATOM     12  C   UNL     1       3.763   1.253  -0.330  0.00  0.00    +0.084 A 
ATOM     13  C   UNL     1       4.800   0.239  -0.244  0.00  0.00    -0.018 A 
ATOM     14  C   UNL     1       4.354  -1.027  -0.085  0.00  0.00    -0.004 A 
ATOM     15  S   UNL     1       2.590  -0.884  -0.041  0.00  0.00    -0.077 S 
ATOM     16  C   UNL     1       5.184  -2.268   0.032  0.00  0.00    +0.043 C 
ATOM     17  C   UNL     1       6.612  -1.940  -0.430  0.00  0.00    +0.005 C 
ATOM     18  C   UNL     1       7.066  -0.645   0.250  0.00  0.00    +0.005 C 
ATOM     19  C   UNL     1       6.291   0.542  -0.324  0.00  0.00    +0.037 C 
BRANCH  12  20
ATOM     20  C   UNL     1       4.090   2.637  -0.499  0.00  0.00    +0.102 C 
ATOM     21  N   UNL     1       4.349   3.735  -0.633  0.00  0.00    -0.191 NA
ENDBRANCH  12  20
ENDBRANCH   9  11
ENDBRANCH   6   7
BRANCH   1  22
ATOM     22  N   UNL     1      -2.500  -0.171   0.001  0.00  0.00    -0.216 N 
ATOM     23  H   UNL     1      -1.752  -0.711   0.601  0.00  0.00    +0.174 HD
BRANCH  22  24
ATOM     24  S   UNL     1      -3.740  -1.001  -0.717  0.00  0.00    +0.072 S 
ATOM     25  O   UNL     1      -3.491  -2.381  -0.488  0.00  0.00    -0.150 OA
ATOM     26  O   UNL     1      -4.944  -0.366  -0.308  0.00  0.00    -0.150 OA
BRANCH  24  30
ATOM     27  C   UNL     1      -3.382  -0.344  -5.181  0.00  0.00    +0.000 A 
ATOM     28  C   UNL     1      -2.739  -1.413  -4.586  0.00  0.00    +0.002 A 
ATOM     29  C   UNL     1      -2.848  -1.613  -3.223  0.00  0.00    +0.029 A 
ATOM     30  C   UNL     1      -3.601  -0.745  -2.454  0.00  0.00    +0.108 A 
ATOM     31  C   UNL     1      -4.249   0.321  -3.050  0.00  0.00    +0.029 A 
ATOM     32  C   UNL     1      -4.135   0.525  -4.413  0.00  0.00    +0.002 A 
ENDBRANCH  24  30
ENDBRANCH  22  24
ENDBRANCH   1  22
TORSDOF 6
