REMARK  Name = ZINC09039915
REMARK  8 active torsions:
REMARK  status: ('A' for Active; 'I' for Inactive)
REMARK    1  A    between atoms: C_1  and  C_2
REMARK    2  A    between atoms: C_4  and  N_18
REMARK    3  A    between atoms: C_19  and  C_21
REMARK    4  A    between atoms: N_23  and  C_24
REMARK    5  A    between atoms: C_24  and  C_25
REMARK    6  A    between atoms: C_25  and  C_26
REMARK    7  A    between atoms: C_26  and  C_27
REMARK    8  A    between atoms: C_26  and  C_33
REMARK                            x       y       z     vdW  Elec       q    Type
REMARK                         _______ _______ _______ _____ _____    ______ ____
ROOT
ATOM      1  N   UNL     1       3.692  -3.299  -1.310  0.00  0.00    -0.262 N 
ATOM      2  C   UNL     1       3.361  -1.998  -1.194  0.00  0.00    +0.304 C 
ATOM      3  O   UNL     1       4.040  -1.149  -1.734  0.00  0.00    -0.265 OA
ATOM      4  H   UNL     1       3.149  -3.978  -0.878  0.00  0.00    +0.157 HD
ENDROOT
BRANCH   1   8
ATOM      5  C   UNL     1       7.792  -3.083  -4.142  0.00  0.00    +0.067 C 
ATOM      6  C   UNL     1       6.648  -3.607  -3.311  0.00  0.00    +0.062 A 
ATOM      7  C   UNL     1       5.656  -2.830  -2.705  0.00  0.00    +0.068 A 
ATOM      8  C   UNL     1       4.812  -3.669  -2.046  0.00  0.00    +0.132 A 
ATOM      9  N   UNL     1       5.264  -4.942  -2.246  0.00  0.00    -0.185 N 
ATOM     10  N   UNL     1       6.414  -4.865  -3.042  0.00  0.00    -0.167 NA
ATOM     11  C   UNL     1       4.689  -6.098  -1.752  0.00  0.00    +0.234 A 
ATOM     12  N   UNL     1       5.254  -7.300  -2.043  0.00  0.00    -0.291 N 
ATOM     13  H   UNL     1       6.053  -7.344  -2.592  0.00  0.00    +0.172 HD
ATOM     14  C   UNL     1       4.701  -8.432  -1.558  0.00  0.00    +0.256 A 
ATOM     15  O   UNL     1       5.196  -9.520  -1.804  0.00  0.00    -0.267 OA
ATOM     16  C   UNL     1       3.538  -8.335  -0.770  0.00  0.00    +0.038 A 
ATOM     17  C   UNL     1       3.013  -7.104  -0.515  0.00  0.00    +0.053 A 
ATOM     18  N   UNL     1       3.605  -6.016  -1.015  0.00  0.00    -0.217 NA
ATOM     19  C   UNL     1       1.775  -7.238   0.346  0.00  0.00    +0.056 C 
ATOM     20  C   UNL     1       1.361  -8.720   0.227  0.00  0.00    +0.011 C 
ATOM     21  C   UNL     1       2.703  -9.406  -0.105  0.00  0.00    +0.043 C 
ENDBRANCH   1   8
BRANCH   2  22
ATOM     22  C   UNL     1       2.158  -1.601  -0.404  0.00  0.00    +0.299 C 
ATOM     23  O   UNL     1       1.479  -2.450   0.136  0.00  0.00    -0.265 OA
ATOM     24  N   UNL     1       1.827  -0.300  -0.288  0.00  0.00    -0.308 N 
ATOM     25  H   UNL     1       2.370   0.379  -0.719  0.00  0.00    +0.149 HD
BRANCH  24  26
ATOM     26  C   UNL     1       0.647   0.090   0.488  0.00  0.00    +0.105 C 
BRANCH  26  27
ATOM     27  C   UNL     1       0.497   1.612   0.459  0.00  0.00    +0.031 C 
BRANCH  27  28
ATOM     28  C   UNL     1      -0.735   2.019   1.269  0.00  0.00    +0.050 C 
BRANCH  28  29
ATOM     29  C   UNL     1      -0.813   3.522   1.344  0.00  0.00    -0.040 A 
ATOM     30  C   UNL     1      -0.955   4.147   2.569  0.00  0.00    +0.004 A 
ATOM     31  C   UNL     1      -1.022   5.526   2.638  0.00  0.00    +0.000 A 
ATOM     32  C   UNL     1      -0.957   6.280   1.481  0.00  0.00    +0.000 A 
ATOM     33  C   UNL     1      -0.822   5.655   0.255  0.00  0.00    +0.000 A 
ATOM     34  C   UNL     1      -0.749   4.276   0.187  0.00  0.00    +0.004 A 
ENDBRANCH  28  29
BRANCH  28  35
ATOM     35  C   UNL     1      -1.975   1.484   0.601  0.00  0.00    -0.040 A 
ATOM     36  C   UNL     1      -2.202   1.738  -0.739  0.00  0.00    +0.004 A 
ATOM     37  C   UNL     1      -3.337   1.244  -1.353  0.00  0.00    +0.000 A 
ATOM     38  C   UNL     1      -4.250   0.503  -0.626  0.00  0.00    +0.000 A 
ATOM     39  C   UNL     1      -4.025   0.253   0.715  0.00  0.00    +0.000 A 
ATOM     40  C   UNL     1      -2.888   0.744   1.328  0.00  0.00    +0.004 A 
ENDBRANCH  28  35
ENDBRANCH  27  28
ENDBRANCH  26  27
ENDBRANCH  24  26
ENDBRANCH   2  22
TORSDOF 7
