REMARK  Name = ZINC12721755
REMARK  9 active torsions:
REMARK  status: ('A' for Active; 'I' for Inactive)
REMARK    1  A    between atoms: C_1  and  C_2
REMARK    2  A    between atoms: C_5  and  C_8
REMARK    3  A    between atoms: C_11  and  S_14
REMARK    4  A    between atoms: N_12  and  N_13
REMARK    5  A    between atoms: S_14  and  C_15
REMARK    6  A    between atoms: C_15  and  C_16
REMARK    7  A    between atoms: N_18  and  C_19
REMARK    8  A    between atoms: C_24  and  C_25
REMARK    9  A    between atoms: N_27  and  C_28
REMARK                            x       y       z     vdW  Elec       q    Type
REMARK                         _______ _______ _______ _____ _____    ______ ____
ROOT
ATOM      1  C   UNL     1       2.217   3.693   0.081  0.00  0.00    +0.228 C 
ATOM      2  O   UNL     1       1.236   4.406   0.094  0.00  0.00    -0.275 OA
ATOM      3  N   UNL     1       3.448   4.240   0.087  0.00  0.00    -0.284 N 
ATOM      4  H   UNL     1       4.232   3.672   0.018  0.00  0.00    +0.155 HD
ENDROOT
BRANCH   3   5
ATOM      5  C   UNL     1       3.596   5.621   0.192  0.00  0.00    +0.046 A 
ATOM      6  C   UNL     1       2.680   6.469  -0.415  0.00  0.00    +0.024 A 
ATOM      7  C   UNL     1       2.828   7.837  -0.310  0.00  0.00    +0.002 A 
ATOM      8  C   UNL     1       3.889   8.375   0.401  0.00  0.00    +0.001 A 
ATOM      9  C   UNL     1       4.809   7.549   1.009  0.00  0.00    +0.015 A 
ATOM     10  C   UNL     1       4.668   6.162   0.917  0.00  0.00    +0.058 A 
BRANCH  10  11
ATOM     11  C   UNL     1       5.645   5.272   1.573  0.00  0.00    +0.246 C 
ATOM     12  O   UNL     1       5.573   4.069   1.413  0.00  0.00    -0.270 OA
ATOM     13  N   UNL     1       6.617   5.792   2.348  0.00  0.00    -0.308 N 
ATOM     14  H   UNL     1       6.674   6.752   2.475  0.00  0.00    +0.149 HD
BRANCH  13  15
ATOM     15  C   UNL     1       7.587   4.908   2.999  0.00  0.00    +0.073 C 
ATOM     16  C   UNL     1       7.044   4.445   4.367  0.00  0.00    +0.022 C 
ATOM     17  C   UNL     1       8.295   4.410   5.279  0.00  0.00    +0.002 C 
ATOM     18  C   UNL     1       9.097   5.649   4.809  0.00  0.00    +0.002 C 
ATOM     19  C   UNL     1       8.892   5.674   3.280  0.00  0.00    +0.022 C 
ENDBRANCH  13  15
ENDBRANCH  10  11
ENDBRANCH   3   5
BRANCH   1  20
ATOM     20  C   UNL     1       2.058   2.194   0.058  0.00  0.00    +0.173 C 
BRANCH  20  21
ATOM     21  S   UNL     1       0.298   1.774   0.054  0.00  0.00    -0.075 S 
BRANCH  21  25
ATOM     22  C   UNL     1      -0.083  -2.114  -0.006  0.00  0.00    +0.182 A 
ATOM     23  N   UNL     1       1.220  -1.952  -0.006  0.00  0.00    -0.127 NA
ATOM     24  N   UNL     1       1.506  -0.700   0.008  0.00  0.00    -0.121 NA
ATOM     25  C   UNL     1       0.403   0.015   0.027  0.00  0.00    +0.209 A 
ATOM     26  N   UNL     1      -0.646  -0.859   0.015  0.00  0.00    -0.224 N 
BRANCH  22  31
ATOM     27  C   UNL     1      -2.906  -7.128  -0.082  0.00  0.00    +0.044 C 
ATOM     28  C   UNL     1      -2.166  -5.815  -0.062  0.00  0.00    -0.050 A 
ATOM     29  C   UNL     1      -2.821  -4.651  -0.423  0.00  0.00    +0.004 A 
ATOM     30  C   UNL     1      -2.150  -3.446  -0.407  0.00  0.00    +0.012 A 
ATOM     31  C   UNL     1      -0.808  -3.402  -0.026  0.00  0.00    +0.021 A 
ATOM     32  C   UNL     1      -0.152  -4.582   0.332  0.00  0.00    +0.012 A 
ATOM     33  C   UNL     1      -0.836  -5.779   0.317  0.00  0.00    +0.004 A 
ENDBRANCH  22  31
BRANCH  26  34
ATOM     34  N   UNL     1      -1.977  -0.552   0.023  0.00  0.00    -0.295 N 
ATOM     35  H   UNL     1      -2.316  -0.390  -0.913  0.00  0.00    +0.163 HD
ATOM     36  H   UNL     1      -2.512  -1.274   0.482  0.00  0.00    +0.163 HD
ENDBRANCH  26  34
ENDBRANCH  21  25
ENDBRANCH  20  21
ENDBRANCH   1  20
TORSDOF 8
