REMARK  Name = ZINC04701590
REMARK  4 active torsions:
REMARK  status: ('A' for Active; 'I' for Inactive)
REMARK    1  A    between atoms: C_1  and  C_2
REMARK    2  A    between atoms: C_2  and  C_11
REMARK    3  A    between atoms: N_3  and  C_4
REMARK    4  A    between atoms: C_7  and  O_10
REMARK                            x       y       z     vdW  Elec       q    Type
REMARK                         _______ _______ _______ _____ _____    ______ ____
ROOT
ATOM      1  C   UNL     1       1.317  -0.740  -0.015  0.00  0.00    +0.066 C 
ATOM      2  C   UNL     1       0.002  -0.004   0.002  0.00  0.00    +0.053 C 
ATOM      3  N   UNL     1      -0.016   1.301   0.009  0.00  0.00    -0.252 NA
ENDROOT
BRANCH   2   4
ATOM      4  C   UNL     1      -1.259  -0.755   0.010  0.00  0.00    +0.081 A 
ATOM      5  C   UNL     1      -1.255  -2.140  -0.003  0.00  0.00    +0.028 A 
ATOM      6  C   UNL     1      -2.497  -2.825   0.010  0.00  0.00    +0.018 A 
ATOM      7  C   UNL     1      -2.529  -4.228   0.003  0.00  0.00    +0.011 A 
ATOM      8  C   UNL     1      -3.728  -4.880   0.011  0.00  0.00    +0.001 A 
ATOM      9  C   UNL     1      -4.918  -4.166   0.026  0.00  0.00    +0.004 A 
ATOM     10  C   UNL     1      -4.910  -2.787   0.033  0.00  0.00    +0.047 A 
ATOM     11  C   UNL     1      -3.701  -2.099   0.025  0.00  0.00    +0.139 A 
ATOM     12  O   UNL     1      -3.697  -0.749   0.033  0.00  0.00    -0.422 OA
ATOM     13  C   UNL     1      -2.549  -0.052   0.026  0.00  0.00    +0.346 A 
ATOM     14  O   UNL     1      -2.577   1.165   0.034  0.00  0.00    -0.244 OA
ENDBRANCH   2   4
BRANCH   3  15
ATOM     15  C   UNL     1       1.160   2.001   0.002  0.00  0.00    +0.064 A 
ATOM     16  C   UNL     1       2.205   1.624   0.849  0.00  0.00    +0.031 A 
ATOM     17  C   UNL     1       3.389   2.329   0.834  0.00  0.00    +0.047 A 
ATOM     18  C   UNL     1       3.541   3.419  -0.013  0.00  0.00    +0.117 A 
ATOM     19  C   UNL     1       2.502   3.801  -0.853  0.00  0.00    +0.047 A 
ATOM     20  C   UNL     1       1.316   3.098  -0.849  0.00  0.00    +0.031 A 
BRANCH  18  21
ATOM     21  O   UNL     1       4.708   4.114  -0.021  0.00  0.00    -0.507 OA
ATOM     22  H   UNL     1       4.733   4.849   0.607  0.00  0.00    +0.292 HD
ENDBRANCH  18  21
ENDBRANCH   3  15
TORSDOF 3
