REMARK  Name = ZINC04149991
REMARK  11 active torsions:
REMARK  status: ('A' for Active; 'I' for Inactive)
REMARK    1  A    between atoms: C_1  and  C_2
REMARK    2  A    between atoms: N_9  and  S_10
REMARK    3  A    between atoms: S_10  and  C_13
REMARK    4  A    between atoms: C_24  and  C_44
REMARK    5  A    between atoms: C_27  and  O_43
REMARK    6  A    between atoms: C_29  and  C_33
REMARK    7  A    between atoms: C_33  and  C_35
REMARK    8  A    between atoms: C_33  and  C_36
REMARK    9  A    between atoms: N_38  and  C_39
REMARK   10  A    between atoms: N_38  and  C_40
REMARK   11  A    between atoms: C_40  and  C_41
REMARK                            x       y       z     vdW  Elec       q    Type
REMARK                         _______ _______ _______ _____ _____    ______ ____
ROOT
ATOM      1  C   UNL     1      -1.015   3.564   2.542  0.00  0.00    +0.014 C 
ATOM      2  C   UNL     1       0.319   2.824   2.415  0.00  0.00    +0.042 C 
ATOM      3  C   UNL     1       0.563   2.038   3.687  0.00  0.00    +0.057 A 
ATOM      4  C   UNL     1       1.806   1.980   4.227  0.00  0.00    +0.015 A 
ATOM      5  S   UNL     1       1.570   0.933   5.638  0.00  0.00    -0.056 S 
ATOM      6  C   UNL     1      -0.131   0.654   5.414  0.00  0.00    +0.178 A 
ATOM      7  N   UNL     1      -0.384   1.351   4.325  0.00  0.00    -0.228 NA
ATOM      8  N   UNL     1      -0.998  -0.105   6.184  0.00  0.00    -0.194 N 
ATOM      9  C   UNL     1       3.044   2.643   3.734  0.00  0.00    +0.051 C 
ATOM     10  C   UNL     1       2.809   3.138   2.294  0.00  0.00    -0.022 C 
ATOM     11  C   UNL     1       1.451   3.841   2.225  0.00  0.00    +0.033 C 
ATOM     12  C   UNL     1       1.270   4.502   0.853  0.00  0.00    +0.123 C 
ATOM     13  C   UNL     1       2.405   5.484   0.568  0.00  0.00    +0.029 C 
ATOM     14  C   UNL     1       3.732   4.719   0.574  0.00  0.00    +0.007 C 
ATOM     15  C   UNL     1       3.942   4.114   1.960  0.00  0.00    +0.008 C 
ATOM     16  C   UNL     1       2.835   1.956   1.323  0.00  0.00    +0.012 C 
ATOM     17  H   UNL     1      -1.946  -0.116   5.978  0.00  0.00    +0.176 HD
ENDROOT
BRANCH   8  18
ATOM     18  S   UNL     1      -0.416  -0.993   7.455  0.00  0.00    +0.076 S 
ATOM     19  O   UNL     1      -1.533  -1.652   8.036  0.00  0.00    -0.150 OA
ATOM     20  O   UNL     1       0.719  -1.698   6.972  0.00  0.00    -0.150 OA
BRANCH  18  21
ATOM     21  C   UNL     1       0.176   0.149   8.660  0.00  0.00    +0.134 A 
ATOM     22  C   UNL     1       1.505   0.208   8.950  0.00  0.00    +0.031 A 
ATOM     23  C   UNL     1       1.995   1.103   9.898  0.00  0.00    +0.003 A 
ATOM     24  C   UNL     1       1.156   1.946  10.563  0.00  0.00    +0.010 A 
ATOM     25  C   UNL     1      -0.221   1.912  10.289  0.00  0.00    +0.002 A 
ATOM     26  C   UNL     1      -0.720   1.006   9.320  0.00  0.00    +0.097 A 
ATOM     27  N   UNL     1      -2.030   0.975   9.052  0.00  0.00    -0.253 NA
ATOM     28  C   UNL     1      -2.870   1.773   9.664  0.00  0.00    +0.111 A 
ATOM     29  C   UNL     1      -2.444   2.690  10.623  0.00  0.00    +0.020 A 
ATOM     30  C   UNL     1      -1.121   2.766  10.954  0.00  0.00    +0.011 A 
ENDBRANCH  18  21
ENDBRANCH   8  18
BRANCH  13  31
ATOM     31  C   UNL     1       2.431   6.566   1.649  0.00  0.00    +0.078 C 
ATOM     32  C   UNL     1       1.174   7.431   1.537  0.00  0.00    +0.017 C 
BRANCH  31  33
ATOM     33  C   UNL     1       3.652   7.429   1.467  0.00  0.00    +0.219 C 
ATOM     34  O   UNL     1       4.142   7.562   0.365  0.00  0.00    -0.275 OA
ATOM     35  N   UNL     1       4.201   8.054   2.528  0.00  0.00    -0.301 N 
ATOM     36  C   UNL     1       3.662   7.827   3.871  0.00  0.00    +0.132 C 
BRANCH  35  37
ATOM     37  C   UNL     1       5.336   8.960   2.338  0.00  0.00    +0.134 C 
BRANCH  37  38
ATOM     38  C   UNL     1       4.828  10.358   2.096  0.00  0.00    -0.016 C 
ATOM     39  C   UNL     1       5.240  11.345   2.853  0.00  0.00    +0.005 C 
ENDBRANCH  37  38
ENDBRANCH  35  37
ENDBRANCH  31  33
ENDBRANCH  13  31
BRANCH  12  40
ATOM     40  O   UNL     1       0.024   5.200   0.829  0.00  0.00    -0.391 OA
ATOM     41  H   UNL     1      -0.172   5.627  -0.016  0.00  0.00    +0.210 HD
ENDBRANCH  12  40
TORSDOF 7
