REMARK  Name = ZINC25400100
REMARK  12 active torsions:
REMARK  status: ('A' for Active; 'I' for Inactive)
REMARK    1  A    between atoms: C_1  and  C_2
REMARK    2  A    between atoms: C_5  and  C_7
REMARK    3  A    between atoms: C_7  and  C_9
REMARK    4  A    between atoms: C_7  and  N_32
REMARK    5  A    between atoms: C_9  and  N_10
REMARK    6  A    between atoms: C_11  and  C_13
REMARK    7  A    between atoms: C_13  and  C_15
REMARK    8  A    between atoms: C_13  and  N_18
REMARK    9  A    between atoms: C_15  and  C_16
REMARK   10  A    between atoms: C_15  and  C_17
REMARK   11  A    between atoms: N_18  and  S_19
REMARK   12  A    between atoms: S_19  and  C_22
REMARK                            x       y       z     vdW  Elec       q    Type
REMARK                         _______ _______ _______ _____ _____    ______ ____
ROOT
ATOM      1  C   UNL     1      -8.193   5.129   3.329  0.00  0.00    +0.165 C 
ENDROOT
BRANCH   1   3
ATOM      2  N   UNL     1      -5.854   4.370   3.054  0.00  0.00    -0.312 N 
ATOM      3  C   UNL     1      -6.737   5.388   3.035  0.00  0.00    +0.232 C 
ATOM      4  O   UNL     1      -6.361   6.513   2.783  0.00  0.00    -0.274 OA
ATOM      5  H   UNL     1      -6.179   3.365   3.363  0.00  0.00    +0.149 HD
BRANCH   2   6
ATOM      6  C   UNL     1      -4.462   4.601   2.661  0.00  0.00    +0.131 C 
BRANCH   6   7
ATOM      7  C   UNL     1      -3.710   3.268   2.640  0.00  0.00    +0.140 C 
BRANCH   7  12
ATOM      8  C   UNL     1      -6.778   0.058   0.247  0.00  0.00    +0.086 C 
ATOM      9  C   UNL     1      -5.623   0.986   0.528  0.00  0.00    +0.102 A 
ATOM     10  C   UNL     1      -4.630   1.287  -0.328  0.00  0.00    +0.045 A 
ATOM     11  C   UNL     1      -3.770   2.187   0.343  0.00  0.00    +0.046 A 
ATOM     12  C   UNL     1      -4.290   2.381   1.569  0.00  0.00    +0.124 A 
ATOM     13  O   UNL     1      -5.415   1.656   1.673  0.00  0.00    -0.463 OA
ENDBRANCH   7  12
BRANCH   7  14
ATOM     14  N   UNL     1      -3.845   2.610   3.947  0.00  0.00    -0.287 NA
ATOM     15  C   UNL     1      -3.332   3.468   5.024  0.00  0.00    +0.113 C 
ATOM     16  C   UNL     1      -3.546   2.770   6.370  0.00  0.00    +0.175 C 
ATOM     17  O   UNL     1      -2.906   1.491   6.346  0.00  0.00    -0.377 OA
ATOM     18  C   UNL     1      -3.383   0.630   5.308  0.00  0.00    +0.175 C 
ATOM     19  C   UNL     1      -3.167   1.306   3.952  0.00  0.00    +0.113 C 
ENDBRANCH   7  14
ENDBRANCH   6   7
ENDBRANCH   2   6
ENDBRANCH   1   3
BRANCH   1  20
ATOM     20  C   UNL     1      -8.402   5.056   4.843  0.00  0.00    +0.010 C 
ATOM     21  C   UNL     1      -7.590   3.892   5.415  0.00  0.00    +0.009 C 
ATOM     22  C   UNL     1      -7.939   6.365   5.485  0.00  0.00    +0.009 C 
ENDBRANCH   1  20
BRANCH   1  23
ATOM     23  N   UNL     1      -9.004   6.215   2.776  0.00  0.00    -0.178 NA
ATOM     24  H   UNL     1      -8.694   7.261   2.918  0.00  0.00    +0.149 HD
BRANCH  23  25
ATOM     25  S   UNL     1     -10.505   5.895   2.155  0.00  0.00    +0.059 S 
ATOM     26  O   UNL     1     -11.042   7.139   1.727  0.00  0.00    -0.153 OA
ATOM     27  O   UNL     1     -10.353   4.788   1.276  0.00  0.00    -0.153 OA
BRANCH  25  28
ATOM     28  C   UNL     1     -11.514   5.342   3.489  0.00  0.00    +0.106 A 
ATOM     29  C   UNL     1     -11.576   3.982   3.786  0.00  0.00    +0.029 A 
ATOM     30  C   UNL     1     -12.341   3.523   4.814  0.00  0.00    +0.010 A 
ATOM     31  C   UNL     1     -13.090   4.430   5.582  0.00  0.00    -0.018 A 
ATOM     32  C   UNL     1     -13.897   3.993   6.646  0.00  0.00    +0.008 A 
ATOM     33  C   UNL     1     -14.608   4.900   7.369  0.00  0.00    +0.001 A 
ATOM     34  C   UNL     1     -14.551   6.260   7.069  0.00  0.00    +0.001 A 
ATOM     35  C   UNL     1     -13.781   6.720   6.045  0.00  0.00    +0.008 A 
ATOM     36  C   UNL     1     -13.032   5.813   5.277  0.00  0.00    -0.016 A 
ATOM     37  C   UNL     1     -12.226   6.250   4.212  0.00  0.00    +0.037 A 
ENDBRANCH  25  28
ENDBRANCH  23  25
ENDBRANCH   1  23
TORSDOF 9
