REMARK  Name = ZINC59737835
REMARK  7 active torsions:
REMARK  status: ('A' for Active; 'I' for Inactive)
REMARK    1  A    between atoms: C_1  and  C_2
REMARK    2  A    between atoms: C_2  and  C_25
REMARK    3  A    between atoms: N_5  and  C_9
REMARK    4  A    between atoms: C_9  and  C_10
REMARK    5  A    between atoms: C_14  and  C_16
REMARK    6  A    between atoms: N_18  and  C_19
REMARK    7  A    between atoms: C_19  and  C_20
REMARK                            x       y       z     vdW  Elec       q    Type
REMARK                         _______ _______ _______ _____ _____    ______ ____
ROOT
ATOM      1  C   UNL     1       2.871  -1.896  -1.406  0.00  0.00    +0.153 C 
ENDROOT
BRANCH   1   6
ATOM      2  C   UNL     1      -0.019   1.526   0.010  0.00  0.00    +0.047 C 
ATOM      3  C   UNL     1       0.002  -0.004   0.002  0.00  0.00    +0.135 C 
ATOM      4  C   UNL     1       0.815  -0.520  -1.169  0.00  0.00    +0.251 C 
ATOM      5  O   UNL     1       0.595  -0.342  -2.348  0.00  0.00    -0.272 OA
ATOM      6  N   UNL     1       1.833  -1.217  -0.627  0.00  0.00    -0.220 N 
ATOM      7  C   UNL     1       1.777  -1.214   0.710  0.00  0.00    +0.310 C 
ATOM      8  O   UNL     1       2.586  -1.776   1.421  0.00  0.00    -0.252 OA
ATOM      9  N   UNL     1       0.724  -0.519   1.178  0.00  0.00    -0.281 N 
ATOM     10  H   UNL     1       0.487  -0.383   2.109  0.00  0.00    +0.152 HD
BRANCH   3  11
ATOM     11  C   UNL     1      -1.401  -0.551  -0.040  0.00  0.00    -0.015 A 
ATOM     12  C   UNL     1      -2.004  -0.815  -1.256  0.00  0.00    +0.007 A 
ATOM     13  C   UNL     1      -3.291  -1.317  -1.295  0.00  0.00    +0.020 A 
ATOM     14  C   UNL     1      -3.976  -1.556  -0.117  0.00  0.00    +0.041 A 
ATOM     15  C   UNL     1      -3.372  -1.293   1.100  0.00  0.00    +0.020 A 
ATOM     16  C   UNL     1      -2.083  -0.796   1.137  0.00  0.00    +0.007 A 
ATOM     17 CL   UNL     1      -5.593  -2.186  -0.165  0.00  0.00    -0.084 Cl
ENDBRANCH   3  11
ENDBRANCH   1   6
BRANCH   1  18
ATOM     18  C   UNL     1       4.020  -0.950  -1.644  0.00  0.00    -0.029 A 
ATOM     19  C   UNL     1       4.026  -0.140  -2.765  0.00  0.00    +0.005 A 
ATOM     20  C   UNL     1       5.076   0.732  -2.991  0.00  0.00    +0.001 A 
ATOM     21  C   UNL     1       6.125   0.798  -2.098  0.00  0.00    +0.013 A 
ATOM     22  C   UNL     1       6.126  -0.016  -0.964  0.00  0.00    +0.037 A 
ATOM     23  C   UNL     1       5.060  -0.890  -0.740  0.00  0.00    +0.018 A 
BRANCH  22  24
ATOM     24  C   UNL     1       7.247   0.049  -0.003  0.00  0.00    +0.244 C 
ATOM     25  O   UNL     1       7.245  -0.662   0.983  0.00  0.00    -0.270 OA
ATOM     26  N   UNL     1       8.272   0.897  -0.221  0.00  0.00    -0.304 N 
ATOM     27  H   UNL     1       8.274   1.464  -1.007  0.00  0.00    +0.149 HD
BRANCH  26  28
ATOM     28  C   UNL     1       9.384   0.961   0.732  0.00  0.00    +0.179 C 
BRANCH  28  29
ATOM     29  C   UNL     1      10.390   1.979   0.261  0.00  0.00    +0.122 A 
ATOM     30  C   UNL     1      10.395   3.286   0.578  0.00  0.00    +0.046 A 
ATOM     31  C   UNL     1      11.507   3.863  -0.077  0.00  0.00    +0.041 A 
ATOM     32  C   UNL     1      12.116   2.873  -0.755  0.00  0.00    +0.195 A 
ATOM     33  O   UNL     1      11.439   1.734  -0.542  0.00  0.00    -0.466 OA
ENDBRANCH  28  29
ENDBRANCH  26  28
ENDBRANCH  22  24
ENDBRANCH   1  18
TORSDOF 6
