REMARK  Name = ZINC49103159
REMARK  7 active torsions:
REMARK  status: ('A' for Active; 'I' for Inactive)
REMARK    1  A    between atoms: C_1  and  C_2
REMARK    2  A    between atoms: C_4  and  C_19
REMARK    3  A    between atoms: C_7  and  N_8
REMARK    4  A    between atoms: N_11  and  C_12
REMARK    5  A    between atoms: C_12  and  C_14
REMARK    6  A    between atoms: C_12  and  C_15
REMARK    7  A    between atoms: N_17  and  C_18
REMARK                            x       y       z     vdW  Elec       q    Type
REMARK                         _______ _______ _______ _____ _____    ______ ____
ROOT
ATOM      1  N   UNL     1       0.026  -0.015   2.413  0.00  0.00    -0.269 N 
ATOM      2  C   UNL     1      -0.056  -0.692   3.576  0.00  0.00    +0.304 C 
ATOM      3  O   UNL     1      -0.040  -1.907   3.575  0.00  0.00    -0.252 OA
ATOM      4  N   UNL     1      -0.155  -0.020   4.740  0.00  0.00    -0.288 N 
ATOM      5  H   UNL     1       0.079   0.953   2.418  0.00  0.00    +0.156 HD
ATOM      6  H   UNL     1      -0.168   0.950   4.741  0.00  0.00    +0.151 HD
ENDROOT
BRANCH   1  13
ATOM      7  C   UNL     1      -1.272   1.182   0.185  0.00  0.00    +0.046 C 
ATOM      8  C   UNL     1      -0.590  -0.159   0.086  0.00  0.00    -0.028 A 
ATOM      9  C   UNL     1      -0.579  -0.839  -1.110  0.00  0.00    +0.020 A 
ATOM     10  C   UNL     1       0.055  -2.083  -1.197  0.00  0.00    +0.064 A 
ATOM     11  C   UNL     1       0.674  -2.629  -0.066  0.00  0.00    +0.017 A 
ATOM     12  C   UNL     1       0.657  -1.948   1.118  0.00  0.00    +0.024 A 
ATOM     13  C   UNL     1       0.033  -0.707   1.204  0.00  0.00    +0.038 A 
BRANCH  10  14
ATOM     14  C   UNL     1       0.071  -2.817  -2.473  0.00  0.00    +0.387 C 
ATOM     15  O   UNL     1      -0.470  -2.338  -3.460  0.00  0.00    -0.241 OA
ATOM     16  O   UNL     1       0.626  -3.904  -2.546  0.00  0.00    -0.241 OA
ENDBRANCH  10  14
ENDBRANCH   1  13
BRANCH   4  17
ATOM     17  C   UNL     1      -0.244  -0.755   6.004  0.00  0.00    +0.157 C 
ATOM     18  C   UNL     1       1.164  -1.101   6.493  0.00  0.00    +0.038 C 
BRANCH  17  19
ATOM     19  C   UNL     1      -0.937   0.099   7.034  0.00  0.00    +0.233 C 
ATOM     20  O   UNL     1      -1.320   1.212   6.741  0.00  0.00    -0.274 OA
ATOM     21  N   UNL     1      -1.132  -0.374   8.281  0.00  0.00    -0.317 N 
ATOM     22  C   UNL     1      -1.806   0.456   9.283  0.00  0.00    +0.128 C 
ATOM     23  H   UNL     1      -0.826  -1.264   8.516  0.00  0.00    +0.148 HD
ENDBRANCH  17  19
ENDBRANCH   4  17
TORSDOF 4
