REMARK  Name = ZINC26308752
REMARK  10 active torsions:
REMARK  status: ('A' for Active; 'I' for Inactive)
REMARK    1  A    between atoms: C_1  and  C_2
REMARK    2  A    between atoms: C_5  and  C_8
REMARK    3  A    between atoms: C_8  and  C_33
REMARK    4  A    between atoms: N_11  and  C_15
REMARK    5  A    between atoms: C_15  and  C_16
REMARK    6  A    between atoms: N_18  and  C_19
REMARK    7  A    between atoms: C_20  and  C_32
REMARK    8  A    between atoms: N_22  and  C_25
REMARK    9  A    between atoms: C_23  and  C_24
REMARK   10  A    between atoms: C_28  and  C_31
REMARK                            x       y       z     vdW  Elec       q    Type
REMARK                         _______ _______ _______ _____ _____    ______ ____
ROOT
ATOM      1  C   UNL     1      -6.795  -0.094   0.479  0.00  0.00    +0.235 C 
ATOM      2  O   UNL     1      -6.575  -0.857  -0.438  0.00  0.00    -0.274 OA
ATOM      3  N   UNL     1      -5.784   0.604   1.034  0.00  0.00    -0.281 N 
ATOM      4  H   UNL     1      -5.969   1.230   1.919  0.00  0.00    +0.155 HD
ENDROOT
BRANCH   3   5
ATOM      5  C   UNL     1      -4.492   0.530   0.481  0.00  0.00    +0.078 A 
ATOM      6  C   UNL     1      -3.598  -0.544   0.610  0.00  0.00    +0.082 A 
ATOM      7  N   UNL     1      -2.503  -0.249  -0.043  0.00  0.00    -0.170 NA
ATOM      8  N   UNL     1      -2.653   1.025  -0.605  0.00  0.00    -0.235 N 
ATOM      9  C   UNL     1      -3.889   1.486  -0.271  0.00  0.00    +0.063 A 
ATOM     10  C   UNL     1      -4.481   2.814  -0.665  0.00  0.00    +0.068 C 
ATOM     11  C   UNL     1      -3.857  -1.821   1.367  0.00  0.00    +0.069 C 
BRANCH   8  12
ATOM     12  C   UNL     1      -1.700   1.703  -1.378  0.00  0.00    +0.066 A 
ATOM     13  C   UNL     1      -0.348   1.566  -1.094  0.00  0.00    +0.028 A 
ATOM     14  C   UNL     1       0.588   2.231  -1.861  0.00  0.00    +0.005 A 
ATOM     15  C   UNL     1       0.179   3.036  -2.909  0.00  0.00    -0.050 A 
ATOM     16  C   UNL     1      -1.167   3.179  -3.191  0.00  0.00    +0.005 A 
ATOM     17  C   UNL     1      -2.108   2.517  -2.426  0.00  0.00    +0.028 A 
ATOM     18  C   UNL     1       1.204   3.760  -3.744  0.00  0.00    +0.044 C 
ENDBRANCH   8  12
ENDBRANCH   3   5
BRANCH   1  19
ATOM     19  C   UNL     1      -8.200   0.074   0.998  0.00  0.00    +0.214 C 
BRANCH  19  23
ATOM     20  C   UNL     1     -10.373  -2.543  -0.492  0.00  0.00    +0.135 C 
ATOM     21  C   UNL     1      -9.408  -2.056   0.570  0.00  0.00    +0.251 C 
ATOM     22  O   UNL     1      -8.991  -2.681   1.522  0.00  0.00    -0.272 OA
ATOM     23  N   UNL     1      -9.109  -0.786   0.235  0.00  0.00    -0.215 N 
ATOM     24  C   UNL     1      -9.748  -0.404  -0.876  0.00  0.00    +0.310 C 
ATOM     25  O   UNL     1      -9.641   0.700  -1.372  0.00  0.00    -0.252 OA
ATOM     26  N   UNL     1     -10.520  -1.381  -1.386  0.00  0.00    -0.281 N 
ATOM     27  C   UNL     1      -9.785  -3.737  -1.248  0.00  0.00    +0.047 C 
ATOM     28  H   UNL     1     -11.173  -1.445  -2.269  0.00  0.00    +0.152 HD
BRANCH  20  33
ATOM     29  C   UNL     1     -15.457  -3.946   1.870  0.00  0.00    +0.044 C 
ATOM     30  C   UNL     1     -14.131  -3.581   1.254  0.00  0.00    -0.050 A 
ATOM     31  C   UNL     1     -14.079  -3.113  -0.046  0.00  0.00    +0.004 A 
ATOM     32  C   UNL     1     -12.863  -2.777  -0.611  0.00  0.00    +0.006 A 
ATOM     33  C   UNL     1     -11.699  -2.909   0.124  0.00  0.00    -0.015 A 
ATOM     34  C   UNL     1     -11.751  -3.382   1.422  0.00  0.00    +0.006 A 
ATOM     35  C   UNL     1     -12.968  -3.713   1.988  0.00  0.00    +0.004 A 
ENDBRANCH  20  33
ENDBRANCH  19  23
ENDBRANCH   1  19
TORSDOF 5
