REMARK  Name = ZINC35777877
REMARK  17 active torsions:
REMARK  status: ('A' for Active; 'I' for Inactive)
REMARK    1  A    between atoms: C_1  and  C_2
REMARK    2  A    between atoms: C_2  and  O_3
REMARK    3  A    between atoms: O_3  and  C_4
REMARK    4  A    between atoms: C_4  and  C_5
REMARK    5  A    between atoms: C_5  and  C_7
REMARK    6  A    between atoms: C_5  and  O_38
REMARK    7  A    between atoms: C_7  and  N_8
REMARK    8  A    between atoms: N_8  and  C_9
REMARK    9  A    between atoms: N_8  and  C_16
REMARK   10  A    between atoms: C_9  and  C_10
REMARK   11  A    between atoms: C_16  and  C_17
REMARK   12  A    between atoms: C_18  and  C_37
REMARK   13  A    between atoms: N_20  and  C_31
REMARK   14  A    between atoms: C_21  and  O_22
REMARK   15  A    between atoms: O_22  and  C_23
REMARK   16  A    between atoms: C_28  and  O_29
REMARK   17  A    between atoms: O_29  and  C_30
REMARK                            x       y       z     vdW  Elec       q    Type
REMARK                         _______ _______ _______ _____ _____    ______ ____
ROOT
ATOM      1  C   UNL     1       3.576  -5.638  -4.231  0.00  0.00    +0.021 A 
ATOM      2  C   UNL     1       3.274  -5.720  -5.594  0.00  0.00    +0.065 A 
ATOM      3  N   UNL     1       4.375  -5.992  -6.247  0.00  0.00    -0.168 NA
ATOM      4  N   UNL     1       5.423  -6.095  -5.322  0.00  0.00    -0.200 N 
ATOM      5  C   UNL     1       4.908  -5.867  -4.084  0.00  0.00    +0.225 A 
ATOM      6  C   UNL     1       1.911  -5.527  -6.208  0.00  0.00    +0.068 C 
ENDROOT
BRANCH   4   7
ATOM      7  C   UNL     1       6.763  -6.376  -5.621  0.00  0.00    +0.069 A 
ATOM      8  C   UNL     1       7.779  -5.764  -4.900  0.00  0.00    +0.028 A 
ATOM      9  C   UNL     1       9.099  -6.044  -5.196  0.00  0.00    +0.002 A 
ATOM     10  C   UNL     1       9.408  -6.932  -6.210  0.00  0.00    +0.000 A 
ATOM     11  C   UNL     1       8.398  -7.542  -6.931  0.00  0.00    +0.002 A 
ATOM     12  C   UNL     1       7.077  -7.272  -6.634  0.00  0.00    +0.028 A 
ENDBRANCH   4   7
BRANCH   1  13
ATOM     13  C   UNL     1       2.599  -5.343  -3.123  0.00  0.00    -0.035 C 
BRANCH  13  14
ATOM     14  N   UNL     1       3.209  -4.407  -2.169  0.00  0.00    +0.387 N 
ATOM     15  H   UNL     1       4.093  -4.777  -1.853  0.00  0.00    -0.081 HD
BRANCH  14  16
ATOM     16  C   UNL     1       2.313  -4.227  -1.018  0.00  0.00    -0.044 C 
BRANCH  16  17
ATOM     17  C   UNL     1       3.145  -3.974   0.241  0.00  0.00    +0.124 C 
BRANCH  17  18
ATOM     18  O   UNL     1       3.966  -2.821   0.046  0.00  0.00    -0.391 OA
ATOM     19  H   UNL     1       3.475  -1.988   0.026  0.00  0.00    +0.210 HD
ENDBRANCH  17  18
BRANCH  17  20
ATOM     20  C   UNL     1       2.212  -3.741   1.431  0.00  0.00    +0.189 C 
BRANCH  20  21
ATOM     21  O   UNL     1       2.985  -3.621   2.626  0.00  0.00    -0.378 OA
BRANCH  21  23
ATOM     22  C   UNL     1       3.132  -3.287   5.015  0.00  0.00    +0.034 C 
ATOM     23  C   UNL     1       2.205  -3.400   3.803  0.00  0.00    +0.156 C 
ENDBRANCH  21  23
ENDBRANCH  20  21
ENDBRANCH  17  20
ENDBRANCH  16  17
ENDBRANCH  14  16
BRANCH  14  24
ATOM     24  C   UNL     1       3.427  -3.111  -2.826  0.00  0.00    -0.042 C 
BRANCH  24  25
ATOM     25  C   UNL     1       2.199  -2.734  -3.614  0.00  0.00    -0.064 A 
ATOM     26  C   UNL     1       2.131  -3.015  -4.965  0.00  0.00    +0.002 A 
ATOM     27  C   UNL     1       1.005  -2.669  -5.688  0.00  0.00    +0.000 A 
ATOM     28  C   UNL     1      -0.054  -2.042  -5.058  0.00  0.00    +0.000 A 
ATOM     29  C   UNL     1       0.013  -1.762  -3.706  0.00  0.00    +0.000 A 
ATOM     30  C   UNL     1       1.138  -2.112  -2.983  0.00  0.00    +0.002 A 
ENDBRANCH  24  25
ENDBRANCH  14  24
ENDBRANCH  13  14
ENDBRANCH   1  13
BRANCH   5  31
ATOM     31  O   UNL     1       5.598  -5.871  -2.915  0.00  0.00    -0.434 OA
BRANCH  31  32
ATOM     32  C   UNL     1       5.817  -7.067  -2.307  0.00  0.00    +0.172 A 
ATOM     33  C   UNL     1       5.435  -8.244  -2.932  0.00  0.00    +0.050 A 
ATOM     34  C   UNL     1       5.659  -9.459  -2.312  0.00  0.00    +0.004 A 
ATOM     35  C   UNL     1       6.264  -9.504  -1.070  0.00  0.00    +0.004 A 
ATOM     36  C   UNL     1       6.648  -8.334  -0.441  0.00  0.00    +0.049 A 
ATOM     37  C   UNL     1       6.431  -7.113  -1.059  0.00  0.00    +0.162 A 
BRANCH  37  38
ATOM     38  O   UNL     1       6.813  -5.961  -0.445  0.00  0.00    -0.491 OA
ATOM     39  C   UNL     1       7.437  -6.085   0.835  0.00  0.00    +0.277 C 
ENDBRANCH  37  38
ENDBRANCH  31  32
ENDBRANCH   5  31
TORSDOF 14
