REMARK  Name = ZINC15224790
REMARK  12 active torsions:
REMARK  status: ('A' for Active; 'I' for Inactive)
REMARK    1  A    between atoms: C_1  and  C_2
REMARK    2  A    between atoms: C_2  and  C_3
REMARK    3  A    between atoms: C_2  and  C_4
REMARK    4  A    between atoms: C_2  and  S_5
REMARK    5  A    between atoms: S_5  and  C_6
REMARK    6  A    between atoms: C_6  and  C_7
REMARK    7  A    between atoms: C_7  and  N_8
REMARK    8  A    between atoms: C_9  and  C_11
REMARK    9  A    between atoms: N_14  and  S_27
REMARK   10  A    between atoms: N_17  and  S_18
REMARK   11  A    between atoms: S_18  and  C_21
REMARK   12  A    between atoms: S_27  and  C_30
REMARK                            x       y       z     vdW  Elec       q    Type
REMARK                         _______ _______ _______ _____ _____    ______ ____
ROOT
ATOM      1  C   UNL     1       6.944   2.270   4.547  0.00  0.00    +0.181 C 
ATOM      2  C   UNL     1       7.896   1.701   3.488  0.00  0.00    +0.139 C 
ATOM      3  N   UNL     1       9.276   2.028   3.874  0.00  0.00    -0.173 NA
ATOM      4  C   UNL     1       9.755   1.622   5.203  0.00  0.00    +0.126 C 
ATOM      5  C   UNL     1       8.802   2.191   6.262  0.00  0.00    +0.127 C 
ATOM      6  N   UNL     1       7.421   1.868   5.878  0.00  0.00    -0.162 NA
ENDROOT
BRANCH   1   8
ATOM      7  N   UNL     1       4.502   2.568   4.288  0.00  0.00    -0.313 N 
ATOM      8  C   UNL     1       5.556   1.728   4.322  0.00  0.00    +0.233 C 
ATOM      9  O   UNL     1       5.387   0.537   4.173  0.00  0.00    -0.274 OA
ATOM     10  H   UNL     1       4.637   3.521   4.407  0.00  0.00    +0.149 HD
BRANCH   7  11
ATOM     11  C   UNL     1       3.152   2.041   4.069  0.00  0.00    +0.115 C 
BRANCH  11  12
ATOM     12  C   UNL     1       2.147   3.195   4.075  0.00  0.00    +0.088 C 
BRANCH  12  13
ATOM     13  S   UNL     1       0.476   2.543   3.804  0.00  0.00    -0.153 S 
BRANCH  13  15
ATOM     14  C   UNL     1      -0.151   4.978   2.728  0.00  0.00    +0.022 C 
ATOM     15  C   UNL     1      -0.581   4.016   3.838  0.00  0.00    +0.008 C 
ATOM     16  C   UNL     1      -0.446   4.710   5.195  0.00  0.00    +0.022 C 
ATOM     17  C   UNL     1      -2.038   3.604   3.619  0.00  0.00    +0.022 C 
ENDBRANCH  13  15
ENDBRANCH  12  13
ENDBRANCH  11  12
ENDBRANCH   7  11
ENDBRANCH   1   8
BRANCH   6  18
ATOM     18  S   UNL     1       6.421   1.061   6.923  0.00  0.00    +0.062 S 
ATOM     19  O   UNL     1       6.842   1.407   8.236  0.00  0.00    -0.153 OA
ATOM     20  O   UNL     1       5.094   1.281   6.466  0.00  0.00    -0.153 OA
BRANCH  18  21
ATOM     21  C   UNL     1       6.743  -0.660   6.728  0.00  0.00    +0.106 A 
ATOM     22  C   UNL     1       5.905  -1.436   5.949  0.00  0.00    +0.028 A 
ATOM     23  C   UNL     1       6.160  -2.785   5.792  0.00  0.00    +0.002 A 
ATOM     24  C   UNL     1       7.248  -3.361   6.422  0.00  0.00    +0.000 A 
ATOM     25  C   UNL     1       8.083  -2.586   7.205  0.00  0.00    +0.002 A 
ATOM     26  C   UNL     1       7.830  -1.236   7.359  0.00  0.00    +0.028 A 
ENDBRANCH  18  21
ENDBRANCH   6  18
BRANCH   3  27
ATOM     27  S   UNL     1      10.274   2.838   2.830  0.00  0.00    +0.061 S 
ATOM     28  O   UNL     1      11.605   2.517   3.210  0.00  0.00    -0.153 OA
ATOM     29  O   UNL     1       9.776   2.595   1.522  0.00  0.00    -0.153 OA
BRANCH  27  30
ATOM     30  C   UNL     1      10.063   4.560   3.138  0.00  0.00    +0.105 A 
ATOM     31  C   UNL     1       9.105   5.274   2.443  0.00  0.00    +0.028 A 
ATOM     32  C   UNL     1       8.936   6.624   2.688  0.00  0.00    +0.002 A 
ATOM     33  C   UNL     1       9.732   7.262   3.621  0.00  0.00    +0.000 A 
ATOM     34  C   UNL     1      10.695   6.549   4.311  0.00  0.00    +0.002 A 
ATOM     35  C   UNL     1      10.860   5.198   4.070  0.00  0.00    +0.028 A 
ENDBRANCH  27  30
ENDBRANCH   3  27
TORSDOF 9
