REMARK  Name = ZINC36558375
REMARK  19 active torsions:
REMARK  status: ('A' for Active; 'I' for Inactive)
REMARK    1  A    between atoms: C_1  and  C_2
REMARK    2  A    between atoms: C_2  and  C_3
REMARK    3  A    between atoms: C_3  and  C_5
REMARK    4  A    between atoms: C_3  and  C_11
REMARK    5  A    between atoms: N_13  and  C_14
REMARK    6  A    between atoms: N_13  and  C_21
REMARK    7  A    between atoms: C_14  and  C_15
REMARK    8  A    between atoms: C_18  and  C_20
REMARK    9  A    between atoms: C_21  and  C_23
REMARK   10  A    between atoms: C_21  and  C_30
REMARK   11  A    between atoms: C_26  and  O_29
REMARK   12  A    between atoms: N_32  and  C_33
REMARK   13  A    between atoms: C_33  and  C_34
REMARK   14  A    between atoms: C_33  and  C_35
REMARK   15  A    between atoms: C_33  and  C_36
REMARK   16  A    between atoms: C_36  and  C_37
REMARK   17  A    between atoms: C_37  and  C_38
REMARK   18  A    between atoms: C_37  and  C_39
REMARK   19  A    between atoms: C_37  and  C_40
REMARK                            x       y       z     vdW  Elec       q    Type
REMARK                         _______ _______ _______ _____ _____    ______ ____
ROOT
ATOM      1  C   UNL     1       5.018   2.647  -1.105  0.00  0.00    +0.193 C 
ENDROOT
BRANCH   1   2
ATOM      2  C   UNL     1       4.913   3.820  -2.044  0.00  0.00    -0.018 A 
ATOM      3  C   UNL     1       3.684   4.411  -2.277  0.00  0.00    +0.009 A 
ATOM      4  C   UNL     1       3.585   5.486  -3.138  0.00  0.00    +0.046 A 
ATOM      5  C   UNL     1       4.720   5.974  -3.770  0.00  0.00    +0.117 A 
ATOM      6  C   UNL     1       5.951   5.380  -3.535  0.00  0.00    +0.046 A 
ATOM      7  C   UNL     1       6.046   4.308  -2.669  0.00  0.00    +0.009 A 
BRANCH   5   8
ATOM      8  O   UNL     1       4.625   7.032  -4.618  0.00  0.00    -0.507 OA
ATOM      9  H   UNL     1       4.735   7.891  -4.189  0.00  0.00    +0.292 HD
ENDBRANCH   5   8
ENDBRANCH   1   2
BRANCH   1  10
ATOM     10  C   UNL     1       4.890   3.129   0.317  0.00  0.00    +0.239 C 
ATOM     11  O   UNL     1       4.140   2.563   1.085  0.00  0.00    -0.273 OA
ATOM     12  N   UNL     1       5.608   4.190   0.737  0.00  0.00    -0.308 N 
ATOM     13  H   UNL     1       6.150   4.689   0.105  0.00  0.00    +0.149 HD
BRANCH  12  14
ATOM     14  C   UNL     1       5.572   4.588   2.146  0.00  0.00    +0.030 C 
ATOM     15  C   UNL     1       4.160   5.052   2.508  0.00  0.00    +0.031 C 
ATOM     16  C   UNL     1       5.958   3.396   3.023  0.00  0.00    +0.031 C 
BRANCH  14  17
ATOM     17  C   UNL     1       6.560   5.733   2.378  0.00  0.00    +0.031 C 
BRANCH  17  18
ATOM     18  C   UNL     1       7.986   5.232   2.139  0.00  0.00    -0.036 C 
ATOM     19  C   UNL     1       8.018   4.365   0.879  0.00  0.00    +0.010 C 
ATOM     20  C   UNL     1       8.923   6.428   1.958  0.00  0.00    +0.010 C 
ATOM     21  C   UNL     1       8.443   4.403   3.341  0.00  0.00    +0.010 C 
ENDBRANCH  17  18
ENDBRANCH  14  17
ENDBRANCH  12  14
ENDBRANCH   1  10
BRANCH   1  24
ATOM     22  C   UNL     1       4.018   0.910  -2.490  0.00  0.00    +0.224 C 
ATOM     23  O   UNL     1       4.931   1.050  -3.276  0.00  0.00    -0.275 OA
ATOM     24  N   UNL     1       3.946   1.692  -1.395  0.00  0.00    -0.278 N 
BRANCH  22  25
ATOM     25  C   UNL     1       2.964  -0.138  -2.739  0.00  0.00    +0.105 C 
BRANCH  25  26
ATOM     26  C   UNL     1       1.901   0.425  -3.648  0.00  0.00    -0.036 A 
ATOM     27  C   UNL     1       2.236   0.863  -4.915  0.00  0.00    +0.004 A 
ATOM     28  C   UNL     1       1.262   1.379  -5.749  0.00  0.00    +0.000 A 
ATOM     29  C   UNL     1      -0.049   1.457  -5.315  0.00  0.00    +0.000 A 
ATOM     30  C   UNL     1      -0.384   1.018  -4.047  0.00  0.00    +0.000 A 
ATOM     31  C   UNL     1       0.590   0.498  -3.215  0.00  0.00    +0.004 A 
ENDBRANCH  25  26
BRANCH  25  33
ATOM     32  C   UNL     1       4.643  -1.965  -2.453  0.00  0.00    +0.005 C 
ATOM     33  C   UNL     1       3.605  -1.359  -3.400  0.00  0.00    +0.014 C 
ENDBRANCH  25  33
ENDBRANCH  22  25
BRANCH  24  34
ATOM     34  C   UNL     1       2.796   1.585  -0.493  0.00  0.00    +0.183 C 
BRANCH  34  35
ATOM     35  C   UNL     1       2.958   0.373   0.387  0.00  0.00    +0.122 A 
ATOM     36  C   UNL     1       3.394   0.378   1.659  0.00  0.00    +0.046 A 
ATOM     37  C   UNL     1       3.389  -0.966   2.099  0.00  0.00    +0.045 A 
ATOM     38  C   UNL     1       2.951  -1.712   1.069  0.00  0.00    +0.102 A 
ATOM     39  O   UNL     1       2.685  -0.894   0.036  0.00  0.00    -0.463 OA
ATOM     40  C   UNL     1       2.781  -3.209   1.073  0.00  0.00    +0.086 C 
ENDBRANCH  34  35
ENDBRANCH  24  34
ENDBRANCH   1  24
TORSDOF 12
