REMARK  Name = ZINC18097671
REMARK  6 active torsions:
REMARK  status: ('A' for Active; 'I' for Inactive)
REMARK    1  A    between atoms: C_1  and  C_2
REMARK    2  A    between atoms: C_5  and  C_17
REMARK    3  A    between atoms: C_7  and  S_8
REMARK    4  A    between atoms: S_8  and  N_11
REMARK    5  A    between atoms: N_19  and  N_20
REMARK    6  A    between atoms: C_21  and  C_23
REMARK                            x       y       z     vdW  Elec       q    Type
REMARK                         _______ _______ _______ _____ _____    ______ ____
ROOT
ATOM      1  C   UNL     1       1.660  -2.453  -0.351  0.00  0.00    +0.046 C 
ATOM      2  C   UNL     1       3.014  -2.077  -0.894  0.00  0.00    -0.024 A 
ATOM      3  C   UNL     1       3.380  -2.474  -2.168  0.00  0.00    +0.006 A 
ATOM      4  C   UNL     1       4.619  -2.132  -2.671  0.00  0.00    +0.013 A 
ATOM      5  C   UNL     1       5.503  -1.385  -1.891  0.00  0.00    +0.040 A 
ATOM      6  C   UNL     1       5.126  -0.984  -0.609  0.00  0.00    +0.042 A 
ATOM      7  C   UNL     1       3.886  -1.336  -0.116  0.00  0.00    +0.109 A 
ENDROOT
BRANCH   5   8
ATOM      8  C   UNL     1       6.832  -1.015  -2.424  0.00  0.00    +0.260 C 
ATOM      9  O   UNL     1       7.600  -0.364  -1.743  0.00  0.00    -0.269 OA
ATOM     10  N   UNL     1       7.192  -1.401  -3.664  0.00  0.00    -0.230 N 
ATOM     11  H   UNL     1       6.579  -1.920  -4.208  0.00  0.00    +0.173 HD
BRANCH  10  12
ATOM     12  N   UNL     1       8.451  -1.051  -4.169  0.00  0.00    -0.230 N 
ATOM     13  C   UNL     1       8.811  -1.436  -5.409  0.00  0.00    +0.262 C 
ATOM     14  O   UNL     1       8.042  -2.087  -6.090  0.00  0.00    -0.269 OA
ATOM     15  H   UNL     1       9.064  -0.531  -3.626  0.00  0.00    +0.173 HD
BRANCH  13  16
ATOM     16  C   UNL     1      10.139  -1.067  -5.942  0.00  0.00    +0.058 A 
ATOM     17  C   UNL     1      11.021  -0.314  -5.164  0.00  0.00    +0.034 A 
ATOM     18  C   UNL     1      12.262   0.023  -5.666  0.00  0.00    +0.042 A 
ATOM     19  C   UNL     1      12.629  -0.375  -6.941  0.00  0.00    +0.021 A 
ATOM     20  C   UNL     1      11.758  -1.116  -7.718  0.00  0.00    +0.022 A 
ATOM     21  C   UNL     1      10.515  -1.465  -7.227  0.00  0.00    +0.053 A 
ATOM     22 CL   UNL     1       9.423  -2.396  -8.204  0.00  0.00    -0.083 Cl
ATOM     23 CL   UNL     1      13.364   0.953  -4.698  0.00  0.00    -0.084 Cl
ENDBRANCH  13  16
ENDBRANCH  10  12
ENDBRANCH   5   8
BRANCH   7  24
ATOM     24  S   UNL     1       3.410  -0.836   1.505  0.00  0.00    +0.061 S 
ATOM     25  O   UNL     1       4.517  -0.136   2.055  0.00  0.00    -0.153 OA
ATOM     26  O   UNL     1       2.842  -1.977   2.132  0.00  0.00    -0.153 OA
BRANCH  24  27
ATOM     27  N   UNL     1       2.188   0.269   1.337  0.00  0.00    -0.177 NA
ATOM     28  C   UNL     1       0.782  -0.154   1.397  0.00  0.00    +0.109 C 
ATOM     29  C   UNL     1       0.062   0.345   0.140  0.00  0.00    +0.017 C 
ATOM     30  C   UNL     1       0.258   1.858   0.013  0.00  0.00    +0.003 C 
ATOM     31  C   UNL     1       1.750   2.171  -0.128  0.00  0.00    +0.017 C 
ATOM     32  C   UNL     1       2.488   1.692   1.125  0.00  0.00    +0.109 C 
ENDBRANCH  24  27
ENDBRANCH   7  24
TORSDOF 5
