REMARK  Name = ZINC65413984
REMARK  10 active torsions:
REMARK  status: ('A' for Active; 'I' for Inactive)
REMARK    1  A    between atoms: C_1  and  C_2
REMARK    2  A    between atoms: C_2  and  N_3
REMARK    3  A    between atoms: C_4  and  C_6
REMARK    4  A    between atoms: C_9  and  N_13
REMARK    5  A    between atoms: C_10  and  C_12
REMARK    6  A    between atoms: N_16  and  C_17
REMARK    7  A    between atoms: C_17  and  C_18
REMARK    8  A    between atoms: C_18  and  C_19
REMARK    9  A    between atoms: C_18  and  N_20
REMARK   10  A    between atoms: C_23  and  C_26
REMARK                            x       y       z     vdW  Elec       q    Type
REMARK                         _______ _______ _______ _____ _____    ______ ____
ROOT
ATOM      1  N   UNL     1       3.518  -3.440   5.981  0.00  0.00    -0.269 N 
ATOM      2  C   UNL     1       4.197  -2.618   6.806  0.00  0.00    +0.304 C 
ATOM      3  O   UNL     1       4.189  -1.418   6.610  0.00  0.00    -0.253 OA
ATOM      4  N   UNL     1       4.885  -3.127   7.847  0.00  0.00    -0.301 N 
ATOM      5  H   UNL     1       3.466  -4.389   6.176  0.00  0.00    +0.156 HD
ATOM      6  H   UNL     1       4.892  -4.084   8.003  0.00  0.00    +0.150 HD
ENDROOT
BRANCH   1  10
ATOM      7  C   UNL     1       1.638  -1.905   2.596  0.00  0.00    +0.037 A 
ATOM      8  C   UNL     1       1.715  -1.139   3.762  0.00  0.00    +0.015 A 
ATOM      9  C   UNL     1       2.337  -1.649   4.879  0.00  0.00    +0.024 A 
ATOM     10  C   UNL     1       2.888  -2.926   4.848  0.00  0.00    +0.038 A 
ATOM     11  C   UNL     1       2.813  -3.692   3.689  0.00  0.00    -0.028 A 
ATOM     12  C   UNL     1       2.188  -3.190   2.570  0.00  0.00    +0.018 A 
ATOM     13  C   UNL     1       3.413  -5.074   3.660  0.00  0.00    +0.045 C 
BRANCH   7  15
ATOM     14  N   UNL     1       0.442  -0.123   1.423  0.00  0.00    -0.312 N 
ATOM     15  C   UNL     1       0.972  -1.362   1.396  0.00  0.00    +0.244 C 
ATOM     16  O   UNL     1       0.900  -2.032   0.384  0.00  0.00    -0.270 OA
ATOM     17  H   UNL     1       0.498   0.412   2.230  0.00  0.00    +0.149 HD
BRANCH  14  19
ATOM     18  C   UNL     1      -0.729   1.829   0.527  0.00  0.00    +0.024 C 
ATOM     19  C   UNL     1      -0.220   0.417   0.232  0.00  0.00    +0.101 C 
ENDBRANCH  14  19
ENDBRANCH   7  15
ENDBRANCH   1  10
BRANCH   4  20
ATOM     20  C   UNL     1       5.624  -2.233   8.743  0.00  0.00    +0.090 C 
BRANCH  20  21
ATOM     21  C   UNL     1       6.419  -3.066   9.751  0.00  0.00    -0.054 C 
ATOM     22  C   UNL     1       7.275  -2.138  10.616  0.00  0.00    -0.012 C 
BRANCH  21  23
ATOM     23  N   UNL     1       7.289  -4.006   9.032  0.00  0.00    +0.382 N 
ATOM     24  C   UNL     1       7.937  -4.904   9.995  0.00  0.00    -0.078 C 
ATOM     25  C   UNL     1       8.781  -5.938   9.245  0.00  0.00    -0.016 C 
ATOM     26  C   UNL     1       9.850  -5.214   8.420  0.00  0.00    -0.018 C 
ATOM     27  C   UNL     1       9.165  -4.226   7.471  0.00  0.00    -0.016 C 
ATOM     28  C   UNL     1       8.307  -3.256   8.287  0.00  0.00    -0.078 C 
ATOM     29  C   UNL     1      10.646  -6.236   7.606  0.00  0.00    +0.007 C 
ATOM     30  H   UNL     1       6.734  -4.550   8.388  0.00  0.00    -0.081 HD
ENDBRANCH  21  23
ENDBRANCH  20  21
ENDBRANCH   4  20
TORSDOF 6
