REMARK  Name = ZINC50698641
REMARK  8 active torsions:
REMARK  status: ('A' for Active; 'I' for Inactive)
REMARK    1  A    between atoms: C_1  and  C_2
REMARK    2  A    between atoms: C_2  and  N_3
REMARK    3  A    between atoms: N_3  and  C_4
REMARK    4  A    between atoms: C_10  and  C_12
REMARK    5  A    between atoms: C_13  and  N_21
REMARK    6  A    between atoms: C_16  and  C_18
REMARK    7  A    between atoms: C_18  and  C_19
REMARK    8  A    between atoms: C_18  and  C_20
REMARK                            x       y       z     vdW  Elec       q    Type
REMARK                         _______ _______ _______ _____ _____    ______ ____
ROOT
ATOM      1  C   UNL     1       2.772  -0.530  -0.134  0.00  0.00    +0.150 A 
ATOM      2  C   UNL     1       3.738   0.487  -0.188  0.00  0.00    +0.074 A 
ATOM      3  C   UNL     1       4.414   0.688  -1.395  0.00  0.00    +0.137 A 
ATOM      4  N   UNL     1       4.122  -0.078  -2.429  0.00  0.00    -0.238 NA
ATOM      5  C   UNL     1       3.207  -1.025  -2.339  0.00  0.00    +0.132 A 
ATOM      6  N   UNL     1       2.547  -1.258  -1.227  0.00  0.00    -0.225 NA
ENDROOT
BRANCH   1   8
ATOM      7  N   UNL     1       0.744  -0.384   1.232  0.00  0.00    -0.293 N 
ATOM      8  C   UNL     1       2.023  -0.793   1.115  0.00  0.00    +0.267 C 
ATOM      9  O   UNL     1       2.561  -1.377   2.035  0.00  0.00    -0.268 OA
BRANCH   7  10
ATOM     10  C   UNL     1       0.037  -0.546   2.505  0.00  0.00    +0.076 C 
ATOM     11  C   UNL     1       0.774   0.227   3.600  0.00  0.00    +0.022 C 
ATOM     12  C   UNL     1       0.036   0.057   4.929  0.00  0.00    +0.002 C 
ATOM     13  C   UNL     1      -0.015  -1.427   5.299  0.00  0.00    +0.000 C 
ATOM     14  C   UNL     1      -0.752  -2.200   4.204  0.00  0.00    +0.002 C 
ATOM     15  C   UNL     1      -0.014  -2.030   2.874  0.00  0.00    +0.022 C 
ENDBRANCH   7  10
BRANCH   7  17
ATOM     16  C   UNL     1       0.176   1.746   0.173  0.00  0.00    +0.024 C 
ATOM     17  C   UNL     1       0.061   0.223   0.087  0.00  0.00    +0.105 C 
ENDBRANCH   7  17
ENDBRANCH   1   8
BRANCH   5  18
ATOM     18  C   UNL     1       2.912  -1.871  -3.552  0.00  0.00    +0.051 C 
ATOM     19  C   UNL     1       2.428  -0.974  -4.693  0.00  0.00    +0.015 C 
ATOM     20  C   UNL     1       4.184  -2.604  -3.983  0.00  0.00    +0.015 C 
ENDBRANCH   5  18
BRANCH   2  21
ATOM     21  N   UNL     1       4.014   1.270   0.925  0.00  0.00    -0.355 N 
ATOM     22  H   UNL     1       3.486   1.168   1.732  0.00  0.00    +0.142 HD
ATOM     23  H   UNL     1       4.734   1.919   0.895  0.00  0.00    +0.142 HD
ENDBRANCH   2  21
TORSDOF 5
