REMARK  Name = ZINC18138607
REMARK  9 active torsions:
REMARK  status: ('A' for Active; 'I' for Inactive)
REMARK    1  A    between atoms: C_4  and  S_7
REMARK    2  A    between atoms: S_7  and  C_8
REMARK    3  A    between atoms: C_8  and  C_9
REMARK    4  A    between atoms: C_9  and  N_10
REMARK    5  A    between atoms: N_10  and  C_11
REMARK    6  A    between atoms: C_11  and  N_13
REMARK    7  A    between atoms: N_13  and  N_14
REMARK    8  A    between atoms: C_15  and  C_17
REMARK    9  A    between atoms: C_19  and  C_27
REMARK                            x       y       z     vdW  Elec       q    Type
REMARK                         _______ _______ _______ _____ _____    ______ ____
ROOT
ATOM      1  N   UNL     1       0.002  -0.004   0.020  0.00  0.00    -0.231 N 
ATOM      2  C   UNL     1      -0.016   1.344   0.009  0.00  0.00    +0.261 C 
ATOM      3  O   UNL     1       1.028   1.965  -0.013  0.00  0.00    -0.269 OA
ATOM      4  H   UNL     1      -0.831  -0.500   0.038  0.00  0.00    +0.173 HD
ENDROOT
BRANCH   2   5
ATOM      5  C   UNL     1      -1.307   2.066   0.019  0.00  0.00    +0.049 A 
ATOM      6  C   UNL     1      -2.510   1.382  -0.076  0.00  0.00    +0.042 A 
ATOM      7  C   UNL     1      -3.715   2.100  -0.063  0.00  0.00    +0.072 A 
ATOM      8  N   UNL     1      -3.736   3.413   0.039  0.00  0.00    -0.247 NA
ATOM      9  C   UNL     1      -2.614   4.129   0.134  0.00  0.00    +0.072 A 
ATOM     10  C   UNL     1      -1.354   3.479   0.134  0.00  0.00    +0.013 A 
ATOM     11  C   UNL     1      -0.182   4.240   0.228  0.00  0.00    +0.011 A 
ATOM     12  C   UNL     1      -0.264   5.596   0.331  0.00  0.00    +0.001 A 
ATOM     13  C   UNL     1      -1.500   6.239   0.338  0.00  0.00    +0.002 A 
ATOM     14  C   UNL     1      -2.659   5.532   0.242  0.00  0.00    +0.028 A 
BRANCH   7  15
ATOM     15  C   UNL     1      -4.998   1.362  -0.166  0.00  0.00    +0.003 A 
ATOM     16  C   UNL     1      -5.017  -0.031  -0.281  0.00  0.00    +0.030 A 
ATOM     17  C   UNL     1      -6.233  -0.679  -0.370  0.00  0.00    +0.111 A 
ATOM     18  N   UNL     1      -7.364  -0.000  -0.357  0.00  0.00    -0.263 NA
ATOM     19  C   UNL     1      -7.389   1.315  -0.255  0.00  0.00    +0.111 A 
ATOM     20  C   UNL     1      -6.220   2.040  -0.156  0.00  0.00    +0.030 A 
ENDBRANCH   7  15
ENDBRANCH   2   5
BRANCH   1  21
ATOM     21  N   UNL     1       1.225  -0.688   0.004  0.00  0.00    -0.246 N 
ATOM     22  H   UNL     1       2.058  -0.192  -0.014  0.00  0.00    +0.172 HD
BRANCH  21  23
ATOM     23  C   UNL     1       1.243  -2.036   0.015  0.00  0.00    +0.147 C 
ATOM     24  S   UNL     1       2.737  -2.872  -0.004  0.00  0.00    -0.017 S 
BRANCH  23  25
ATOM     25  N   UNL     1       0.086  -2.725   0.040  0.00  0.00    -0.325 N 
ATOM     26  H   UNL     1      -0.761  -2.252   0.051  0.00  0.00    +0.148 HD
BRANCH  25  27
ATOM     27  C   UNL     1       0.106  -4.190   0.051  0.00  0.00    +0.114 C 
BRANCH  27  28
ATOM     28  C   UNL     1      -1.330  -4.720   0.080  0.00  0.00    +0.093 C 
BRANCH  28  29
ATOM     29  S   UNL     1      -1.305  -6.533   0.094  0.00  0.00    -0.124 S 
BRANCH  29  33
ATOM     30  C   UNL     1      -5.684  -7.688   0.176  0.00  0.00    +0.000 A 
ATOM     31  C   UNL     1      -4.711  -8.671   0.168  0.00  0.00    +0.001 A 
ATOM     32  C   UNL     1      -3.375  -8.323   0.143  0.00  0.00    +0.015 A 
ATOM     33  C   UNL     1      -3.008  -6.983   0.126  0.00  0.00    +0.008 A 
ATOM     34  C   UNL     1      -3.988  -5.997   0.141  0.00  0.00    +0.015 A 
ATOM     35  C   UNL     1      -5.322  -6.353   0.160  0.00  0.00    +0.001 A 
ENDBRANCH  29  33
ENDBRANCH  28  29
ENDBRANCH  27  28
ENDBRANCH  25  27
ENDBRANCH  23  25
ENDBRANCH  21  23
ENDBRANCH   1  21
TORSDOF 9
