REMARK  Name = ZINC54713893
REMARK  6 active torsions:
REMARK  status: ('A' for Active; 'I' for Inactive)
REMARK    1  A    between atoms: C_1  and  C_2
REMARK    2  A    between atoms: C_4  and  C_16
REMARK    3  A    between atoms: C_7  and  N_8
REMARK    4  A    between atoms: C_9  and  C_11
REMARK    5  A    between atoms: C_11  and  C_13
REMARK    6  A    between atoms: C_11  and  C_14
REMARK                            x       y       z     vdW  Elec       q    Type
REMARK                         _______ _______ _______ _____ _____    ______ ____
ROOT
ATOM      1  C   UNL     1      -0.012   1.493   0.004  0.00  0.00    +0.045 C 
ATOM      2  C   UNL     1       0.014  -0.014   0.002  0.00  0.00    -0.029 A 
ATOM      3  C   UNL     1       0.026  -0.701  -1.193  0.00  0.00    +0.018 A 
ATOM      4  C   UNL     1       0.050  -2.096  -1.194  0.00  0.00    +0.039 A 
ATOM      5  C   UNL     1       0.061  -2.792   0.017  0.00  0.00    +0.015 A 
ATOM      6  C   UNL     1       0.049  -2.100   1.208  0.00  0.00    +0.024 A 
ATOM      7  C   UNL     1       0.031  -0.710   1.205  0.00  0.00    +0.036 A 
ENDROOT
BRANCH   4   8
ATOM      8  C   UNL     1       0.062  -2.836  -2.473  0.00  0.00    +0.248 A 
ATOM      9  N   UNL     1       0.059  -2.311  -3.676  0.00  0.00    -0.108 NA
ATOM     10  N   UNL     1       0.073  -3.254  -4.551  0.00  0.00    -0.116 NA
ATOM     11  C   UNL     1       0.086  -4.409  -3.946  0.00  0.00    +0.332 A 
ATOM     12  O   UNL     1       0.085  -4.176  -2.622  0.00  0.00    -0.423 OA
ENDBRANCH   4   8
BRANCH   7  13
ATOM     13  N   UNL     1       0.025  -0.010   2.415  0.00  0.00    -0.285 N 
ATOM     14  C   UNL     1      -0.632  -0.511   3.480  0.00  0.00    +0.221 C 
ATOM     15  O   UNL     1      -1.149  -1.607   3.413  0.00  0.00    -0.275 OA
ATOM     16  H   UNL     1       0.494   0.836   2.489  0.00  0.00    +0.155 HD
BRANCH  14  17
ATOM     17  C   UNL     1      -0.725   0.289   4.753  0.00  0.00    +0.087 C 
ATOM     18  C   UNL     1       0.682   0.567   5.285  0.00  0.00    +0.018 C 
BRANCH  17  19
ATOM     19  C   UNL     1      -1.518  -0.502   5.796  0.00  0.00    +0.121 C 
ATOM     20 CL   UNL     1      -1.755   0.514   7.267  0.00  0.00    -0.125 Cl
ENDBRANCH  17  19
ENDBRANCH  14  17
ENDBRANCH   7  13
TORSDOF 4
