REMARK  Name = ZINC34749170
REMARK  11 active torsions:
REMARK  status: ('A' for Active; 'I' for Inactive)
REMARK    1  A    between atoms: C_1  and  C_2
REMARK    2  A    between atoms: C_2  and  C_3
REMARK    3  A    between atoms: C_4  and  C_37
REMARK    4  A    between atoms: N_10  and  C_28
REMARK    5  A    between atoms: N_16  and  C_19
REMARK    6  A    between atoms: C_19  and  C_20
REMARK    7  A    between atoms: C_23  and  C_27
REMARK    8  A    between atoms: C_25  and  C_26
REMARK    9  A    between atoms: C_28  and  C_29
REMARK   10  A    between atoms: C_31  and  C_36
REMARK   11  A    between atoms: C_34  and  C_35
REMARK                            x       y       z     vdW  Elec       q    Type
REMARK                         _______ _______ _______ _____ _____    ______ ____
ROOT
ATOM      1  C   UNL     1      -2.088  -0.765   0.000  0.00  0.00    -0.023 A 
ATOM      2  C   UNL     1      -2.953  -0.815   1.024  0.00  0.00    -0.007 A 
ATOM      3  S   UNL     1      -4.491  -1.266   0.244  0.00  0.00    -0.073 S 
ATOM      4  C   UNL     1      -3.928  -1.376  -1.435  0.00  0.00    +0.117 A 
ATOM      5  C   UNL     1      -2.561  -1.052  -1.343  0.00  0.00    +0.076 A 
ATOM      6  C   UNL     1      -1.836  -1.057  -2.577  0.00  0.00    +0.264 A 
ATOM      7  O   UNL     1      -0.646  -0.794  -2.595  0.00  0.00    -0.267 OA
ATOM      8  N   UNL     1      -2.486  -1.356  -3.717  0.00  0.00    -0.276 N 
ATOM      9  C   UNL     1      -3.817  -1.653  -3.716  0.00  0.00    +0.202 A 
ATOM     10  N   UNL     1      -4.506  -1.666  -2.594  0.00  0.00    -0.208 NA
ATOM     11  N   UNL     1      -4.444  -1.953  -4.900  0.00  0.00    -0.304 N 
ATOM     12  C   UNL     1      -5.349  -3.107  -5.005  0.00  0.00    +0.089 C 
ATOM     13  C   UNL     1      -6.663  -2.638  -5.637  0.00  0.00    -0.059 C 
ATOM     14  N   UNL     1      -6.380  -1.972  -6.915  0.00  0.00    +0.384 N 
ATOM     15  C   UNL     1      -5.597  -0.752  -6.680  0.00  0.00    -0.059 C 
ATOM     16  C   UNL     1      -4.235  -1.125  -6.097  0.00  0.00    +0.089 C 
ATOM     17  C   UNL     1      -2.688  -0.552   2.484  0.00  0.00    +0.052 C 
ATOM     18  H   UNL     1      -5.857  -2.597  -7.510  0.00  0.00    -0.081 HD
ENDROOT
BRANCH   1  20
ATOM     19  C   UNL     1      -0.466   1.106   0.133  0.00  0.00    +0.009 C 
ATOM     20  C   UNL     1      -0.643  -0.410   0.240  0.00  0.00    +0.033 C 
ENDBRANCH   1  20
BRANCH  14  21
ATOM     21  C   UNL     1      -7.646  -1.620  -7.573  0.00  0.00    -0.043 C 
BRANCH  21  22
ATOM     22  C   UNL     1      -7.361  -1.048  -8.937  0.00  0.00    -0.061 A 
ATOM     23  C   UNL     1      -7.370   0.321  -9.128  0.00  0.00    +0.002 A 
ATOM     24  C   UNL     1      -7.108   0.846 -10.380  0.00  0.00    +0.003 A 
ATOM     25  C   UNL     1      -6.837   0.002 -11.441  0.00  0.00    -0.050 A 
ATOM     26  C   UNL     1      -6.827  -1.367 -11.249  0.00  0.00    +0.007 A 
ATOM     27  C   UNL     1      -7.084  -1.892  -9.996  0.00  0.00    -0.049 A 
ATOM     28  C   UNL     1      -7.068  -3.384  -9.787  0.00  0.00    +0.044 C 
ATOM     29  C   UNL     1      -6.552   0.574 -12.806  0.00  0.00    +0.044 C 
ENDBRANCH  21  22
ENDBRANCH  14  21
BRANCH   8  30
ATOM     30  C   UNL     1      -1.749  -1.363  -4.983  0.00  0.00    +0.163 C 
BRANCH  30  31
ATOM     31  C   UNL     1      -0.654  -2.397  -4.922  0.00  0.00    -0.024 A 
ATOM     32  C   UNL     1       0.661  -2.002  -4.761  0.00  0.00    +0.009 A 
ATOM     33  C   UNL     1       1.665  -2.950  -4.705  0.00  0.00    -0.050 A 
ATOM     34  C   UNL     1       1.354  -4.293  -4.809  0.00  0.00    +0.003 A 
ATOM     35  C   UNL     1       0.039  -4.688  -4.968  0.00  0.00    +0.004 A 
ATOM     36  C   UNL     1      -0.966  -3.740  -5.020  0.00  0.00    -0.046 A 
ATOM     37  C   UNL     1      -2.400  -4.170  -5.189  0.00  0.00    +0.044 C 
ATOM     38  C   UNL     1       3.099  -2.520  -4.531  0.00  0.00    +0.044 C 
ENDBRANCH  30  31
ENDBRANCH   8  30
TORSDOF 5
