REMARK  Name = ZINC46342334
REMARK  9 active torsions:
REMARK  status: ('A' for Active; 'I' for Inactive)
REMARK    1  A    between atoms: N_9  and  C_10
REMARK    2  A    between atoms: C_10  and  C_11
REMARK    3  A    between atoms: C_11  and  C_13
REMARK    4  A    between atoms: C_11  and  O_22
REMARK    5  A    between atoms: C_13  and  O_14
REMARK    6  A    between atoms: O_14  and  C_15
REMARK    7  A    between atoms: N_23  and  C_24
REMARK    8  A    between atoms: C_24  and  C_25
REMARK    9  A    between atoms: C_25  and  O_26
REMARK                            x       y       z     vdW  Elec       q    Type
REMARK                         _______ _______ _______ _____ _____    ______ ____
ROOT
ATOM      1  C   UNL     1      -0.017   1.373   0.010  0.00  0.00    +0.002 A 
ATOM      2  C   UNL     1       1.169   2.093   0.002  0.00  0.00    +0.002 A 
ATOM      3  C   UNL     1       2.384   1.439  -0.013  0.00  0.00    +0.028 A 
ATOM      4  C   UNL     1       2.421   0.053  -0.021  0.00  0.00    +0.068 A 
ATOM      5  C   UNL     1       1.224  -0.681  -0.013  0.00  0.00    +0.065 A 
ATOM      6  C   UNL     1       0.002  -0.004   0.002  0.00  0.00    +0.028 A 
ATOM      7  N   UNL     1       1.562  -1.998  -0.024  0.00  0.00    -0.327 N 
ATOM      8  C   UNL     1       2.866  -2.117  -0.037  0.00  0.00    +0.174 A 
ATOM      9  N   UNL     1       3.445  -0.880  -0.036  0.00  0.00    -0.311 N 
ATOM     10  N   UNL     1       3.552  -3.313  -0.050  0.00  0.00    -0.314 N 
ATOM     11  H   UNL     1       4.522  -3.316  -0.059  0.00  0.00    +0.149 HD
ATOM     12  H   UNL     1       0.933  -2.736  -0.021  0.00  0.00    +0.169 HD
ENDROOT
BRANCH   9  13
ATOM     13  C   UNL     1       4.882  -0.594  -0.049  0.00  0.00    +0.159 C 
BRANCH  13  14
ATOM     14  C   UNL     1       5.396  -0.501   1.389  0.00  0.00    +0.172 C 
BRANCH  14  15
ATOM     15  O   UNL     1       5.271  -1.776   2.023  0.00  0.00    -0.387 OA
ATOM     16  H   UNL     1       5.767  -2.482   1.588  0.00  0.00    +0.210 HD
ENDBRANCH  14  15
BRANCH  14  17
ATOM     17  C   UNL     1       6.867  -0.080   1.379  0.00  0.00    +0.262 C 
BRANCH  17  18
ATOM     18  O   UNL     1       7.315   0.120   2.721  0.00  0.00    -0.489 OA
BRANCH  18  19
ATOM     19  C   UNL     1       8.609   0.500   2.889  0.00  0.00    +0.121 A 
ATOM     20  C   UNL     1       9.429   0.683   1.785  0.00  0.00    +0.047 A 
ATOM     21  C   UNL     1      10.743   1.070   1.958  0.00  0.00    +0.019 A 
ATOM     22  C   UNL     1      11.243   1.274   3.232  0.00  0.00    +0.018 A 
ATOM     23  C   UNL     1      10.428   1.092   4.335  0.00  0.00    +0.019 A 
ATOM     24  C   UNL     1       9.111   0.712   4.165  0.00  0.00    +0.047 A 
ATOM     25 BR   UNL     1      13.043   1.803   3.466  0.00  0.00    -0.050 Br
ENDBRANCH  18  19
ENDBRANCH  17  18
ENDBRANCH  14  17
ENDBRANCH  13  14
ENDBRANCH   9  13
BRANCH  10  26
ATOM     26  C   UNL     1       2.816  -4.580  -0.050  0.00  0.00    +0.132 C 
BRANCH  26  27
ATOM     27  C   UNL     1       3.807  -5.745  -0.066  0.00  0.00    +0.174 C 
BRANCH  27  28
ATOM     28  O   UNL     1       4.561  -5.746   1.149  0.00  0.00    -0.393 OA
ATOM     29  H   UNL     1       5.210  -6.460   1.208  0.00  0.00    +0.209 HD
ENDBRANCH  27  28
ENDBRANCH  26  27
ENDBRANCH  10  26
TORSDOF 9
