REMARK  Name = ZINC26850307
REMARK  6 active torsions:
REMARK  status: ('A' for Active; 'I' for Inactive)
REMARK    1  A    between atoms: C_1  and  C_2
REMARK    2  A    between atoms: C_5  and  C_23
REMARK    3  A    between atoms: C_6  and  S_8
REMARK    4  A    between atoms: S_8  and  N_11
REMARK    5  A    between atoms: N_11  and  C_12
REMARK    6  A    between atoms: N_21  and  C_22
REMARK                            x       y       z     vdW  Elec       q    Type
REMARK                         _______ _______ _______ _____ _____    ______ ____
ROOT
ATOM      1  N   UNL     1       3.398   2.522  -1.091  0.00  0.00    -0.182 NA
ATOM      2  H   UNL     1       3.569   2.244  -2.142  0.00  0.00    +0.149 HD
ENDROOT
BRANCH   1   3
ATOM      3  C   UNL     1       2.682   1.607  -0.199  0.00  0.00    +0.110 C 
ATOM      4  C   UNL     1       2.902   0.160  -0.658  0.00  0.00    +0.025 C 
ATOM      5  C   UNL     1       1.956  -0.769   0.107  0.00  0.00    +0.008 C 
ATOM      6  C   UNL     1       0.515  -0.533  -0.363  0.00  0.00    +0.055 C 
ATOM      7  C   UNL     1       0.239   0.949  -0.324  0.00  0.00    +0.044 A 
ATOM      8  C   UNL     1       1.203   1.901  -0.249  0.00  0.00    +0.012 A 
ATOM      9  C   UNL     1       0.578   3.146  -0.231  0.00  0.00    +0.139 A 
ATOM     10  N   UNL     1      -0.717   2.952  -0.293  0.00  0.00    -0.179 NA
ATOM     11  N   UNL     1      -0.952   1.570  -0.348  0.00  0.00    -0.271 N 
ATOM     12  C   UNL     1      -2.263   0.920  -0.422  0.00  0.00    +0.172 C 
ENDBRANCH   1   3
BRANCH   1  13
ATOM     13  S   UNL     1       4.165   3.852  -0.470  0.00  0.00    +0.059 S 
ATOM     14  O   UNL     1       4.771   4.520  -1.568  0.00  0.00    -0.153 OA
ATOM     15  O   UNL     1       3.233   4.492   0.391  0.00  0.00    -0.153 OA
BRANCH  13  21
ATOM     16  C   UNL     1       6.449   3.305   4.199  0.00  0.00    +0.044 C 
ATOM     17  C   UNL     1       6.478   3.047   2.715  0.00  0.00    -0.049 A 
ATOM     18  C   UNL     1       7.535   2.353   2.154  0.00  0.00    +0.004 A 
ATOM     19  C   UNL     1       7.562   2.117   0.792  0.00  0.00    +0.005 A 
ATOM     20  C   UNL     1       6.533   2.575  -0.009  0.00  0.00    -0.024 A 
ATOM     21  C   UNL     1       5.476   3.268   0.551  0.00  0.00    +0.108 A 
ATOM     22  C   UNL     1       5.452   3.508   1.913  0.00  0.00    +0.032 A 
ATOM     23  C   UNL     1       6.563   2.319  -1.494  0.00  0.00    +0.046 C 
ENDBRANCH  13  21
ENDBRANCH   1  13
TORSDOF 3
