REMARK  Name = ZINC36075330
REMARK  10 active torsions:
REMARK  status: ('A' for Active; 'I' for Inactive)
REMARK    1  A    between atoms: C_1  and  C_2
REMARK    2  A    between atoms: C_2  and  C_3
REMARK    3  A    between atoms: C_6  and  C_9
REMARK    4  A    between atoms: N_13  and  C_17
REMARK    5  A    between atoms: C_17  and  C_18
REMARK    6  A    between atoms: C_18  and  C_19
REMARK    7  A    between atoms: C_19  and  C_20
REMARK    8  A    between atoms: N_22  and  C_23
REMARK    9  A    between atoms: C_25  and  N_30
REMARK   10  A    between atoms: C_28  and  O_29
REMARK                            x       y       z     vdW  Elec       q    Type
REMARK                         _______ _______ _______ _____ _____    ______ ____
ROOT
ATOM      1  C   UNL     1      -9.246  -2.961  -3.159  0.00  0.00    +0.115 C 
ENDROOT
BRANCH   1   6
ATOM      2  C   UNL     1      -5.128  -1.889  -0.609  0.00  0.00    +0.028 C 
ATOM      3  C   UNL     1      -5.905  -2.086  -1.703  0.00  0.00    +0.077 C 
ATOM      4  C   UNL     1      -7.332  -2.465  -1.790  0.00  0.00    +0.258 C 
ATOM      5  O   UNL     1      -8.005  -2.653  -0.794  0.00  0.00    -0.269 OA
ATOM      6  N   UNL     1      -7.838  -2.587  -3.005  0.00  0.00    -0.255 N 
ATOM      7  C   UNL     1      -7.088  -2.377  -4.106  0.00  0.00    +0.121 C 
ATOM      8  S   UNL     1      -7.558  -2.486  -5.749  0.00  0.00    -0.027 S 
ATOM      9  S   UNL     1      -5.489  -1.951  -3.436  0.00  0.00    -0.061 S 
BRANCH   2  13
ATOM     10  C   UNL     1      -0.956  -1.277  -1.055  0.00  0.00    -0.048 A 
ATOM     11  C   UNL     1      -1.573  -0.964   0.144  0.00  0.00    +0.004 A 
ATOM     12  C   UNL     1      -2.929  -1.159   0.297  0.00  0.00    +0.008 A 
ATOM     13  C   UNL     1      -3.682  -1.676  -0.764  0.00  0.00    -0.024 A 
ATOM     14  C   UNL     1      -3.050  -1.990  -1.972  0.00  0.00    +0.008 A 
ATOM     15  C   UNL     1      -1.694  -1.784  -2.111  0.00  0.00    +0.004 A 
BRANCH  10  17
ATOM     16  C   UNL     1       0.782   0.355  -1.738  0.00  0.00    +0.009 C 
ATOM     17  C   UNL     1       0.527  -1.060  -1.213  0.00  0.00    +0.032 C 
ENDBRANCH  10  17
ENDBRANCH   2  13
ENDBRANCH   1   6
BRANCH   1  18
ATOM     18  C   UNL     1     -10.108  -1.697  -3.199  0.00  0.00    +0.029 C 
BRANCH  18  19
ATOM     19  C   UNL     1     -11.578  -2.087  -3.360  0.00  0.00    +0.097 C 
BRANCH  19  20
ATOM     20  C   UNL     1     -12.427  -0.842  -3.400  0.00  0.00    +0.217 C 
ATOM     21  O   UNL     1     -11.906   0.250  -3.308  0.00  0.00    -0.275 OA
ATOM     22  N   UNL     1     -13.764  -0.942  -3.537  0.00  0.00    -0.283 N 
ATOM     23  H   UNL     1     -14.187  -1.815  -3.540  0.00  0.00    +0.155 HD
BRANCH  22  24
ATOM     24  C   UNL     1     -14.542   0.215  -3.675  0.00  0.00    +0.078 A 
ATOM     25  C   UNL     1     -13.952   1.408  -4.067  0.00  0.00    +0.059 A 
ATOM     26  C   UNL     1     -14.722   2.547  -4.202  0.00  0.00    +0.128 A 
ATOM     27  C   UNL     1     -16.080   2.503  -3.948  0.00  0.00    +0.036 A 
ATOM     28  C   UNL     1     -16.675   1.318  -3.557  0.00  0.00    +0.049 A 
ATOM     29  C   UNL     1     -15.912   0.169  -3.425  0.00  0.00    +0.138 A 
BRANCH  26  30
ATOM     30  N   UNL     1     -14.090   3.820  -4.620  0.00  0.00    +0.056 N 
ATOM     31  O   UNL     1     -12.903   3.861  -4.842  0.00  0.00    -0.126 OA
ATOM     32  O   UNL     1     -14.762   4.817  -4.739  0.00  0.00    -0.126 OA
ENDBRANCH  26  30
BRANCH  29  33
ATOM     33  O   UNL     1     -16.497  -0.998  -3.046  0.00  0.00    -0.505 OA
ATOM     34  H   UNL     1     -16.518  -1.135  -2.089  0.00  0.00    +0.292 HD
ENDBRANCH  29  33
ENDBRANCH  22  24
ENDBRANCH  19  20
ENDBRANCH  18  19
ENDBRANCH   1  18
TORSDOF 9
