REMARK  Name = ZINC20413336
REMARK  8 active torsions:
REMARK  status: ('A' for Active; 'I' for Inactive)
REMARK    1  A    between atoms: C_1  and  C_2
REMARK    2  A    between atoms: C_9  and  O_19
REMARK    3  A    between atoms: C_21  and  C_22
REMARK    4  A    between atoms: N_24  and  C_25
REMARK    5  A    between atoms: C_25  and  C_27
REMARK    6  A    between atoms: C_25  and  C_28
REMARK    7  A    between atoms: C_28  and  C_29
REMARK    8  A    between atoms: C_29  and  C_30
REMARK                            x       y       z     vdW  Elec       q    Type
REMARK                         _______ _______ _______ _____ _____    ______ ____
ROOT
ATOM      1  C   UNL     1      -3.207   5.114  -0.054  0.00  0.00    +0.048 C 
ATOM      2  C   UNL     1      -2.741   3.682  -0.114  0.00  0.00    +0.008 A 
ATOM      3  C   UNL     1      -1.369   3.210  -0.301  0.00  0.00    +0.033 A 
ATOM      4  C   UNL     1      -1.443   1.806  -0.294  0.00  0.00    +0.137 A 
ATOM      5  C   UNL     1      -0.278   1.065  -0.449  0.00  0.00    +0.050 A 
ATOM      6  C   UNL     1       0.928   1.707  -0.612  0.00  0.00    +0.049 A 
ATOM      7  C   UNL     1       1.005   3.102  -0.623  0.00  0.00    +0.128 A 
ATOM      8  C   UNL     1      -0.138   3.854  -0.472  0.00  0.00    +0.034 A 
ATOM      9  C   UNL     1      -0.097   5.361  -0.489  0.00  0.00    +0.152 C 
ATOM     10  C   UNL     1       1.334   5.842  -0.233  0.00  0.00    +0.084 C 
ATOM     11  C   UNL     1       2.278   5.055  -1.149  0.00  0.00    +0.113 C 
ATOM     12  O   UNL     1       2.227   3.678  -0.780  0.00  0.00    -0.485 OA
ATOM     13  C   UNL     1       1.833   5.219  -2.603  0.00  0.00    +0.048 C 
ATOM     14  C   UNL     1       2.778   4.434  -3.516  0.00  0.00    +0.004 C 
ATOM     15  C   UNL     1       4.203   4.965  -3.353  0.00  0.00    +0.000 C 
ATOM     16  C   UNL     1       4.647   4.797  -1.898  0.00  0.00    +0.004 C 
ATOM     17  C   UNL     1       3.704   5.582  -0.985  0.00  0.00    +0.048 C 
ATOM     18  O   UNL     1      -2.735   1.467  -0.110  0.00  0.00    -0.450 OA
ATOM     19  C   UNL     1      -3.510   2.567  -0.005  0.00  0.00    +0.193 A 
ENDROOT
BRANCH  19  20
ATOM     20  C   UNL     1      -4.966   2.560   0.196  0.00  0.00    +0.280 C 
ATOM     21  O   UNL     1      -5.574   3.611   0.277  0.00  0.00    -0.267 OA
ATOM     22  N   UNL     1      -5.627   1.390   0.290  0.00  0.00    -0.306 N 
ATOM     23  H   UNL     1      -5.078   0.440   0.216  0.00  0.00    +0.149 HD
BRANCH  22  24
ATOM     24  C   UNL     1      -7.079   1.383   0.490  0.00  0.00    +0.071 C 
ATOM     25  C   UNL     1      -7.781   1.503  -0.864  0.00  0.00    +0.028 C 
BRANCH  24  26
ATOM     26  C   UNL     1      -7.494   0.074   1.166  0.00  0.00    +0.026 C 
BRANCH  26  27
ATOM     27  C   UNL     1      -6.891   0.012   2.571  0.00  0.00    +0.037 C 
BRANCH  27  28
ATOM     28  C   UNL     1      -7.300  -1.276   3.237  0.00  0.00    -0.047 A 
ATOM     29  C   UNL     1      -8.459  -1.328   3.989  0.00  0.00    +0.003 A 
ATOM     30  C   UNL     1      -8.836  -2.512   4.596  0.00  0.00    +0.000 A 
ATOM     31  C   UNL     1      -8.050  -3.640   4.459  0.00  0.00    +0.000 A 
ATOM     32  C   UNL     1      -6.888  -3.587   3.712  0.00  0.00    +0.000 A 
ATOM     33  C   UNL     1      -6.513  -2.405   3.100  0.00  0.00    +0.003 A 
ENDBRANCH  27  28
ENDBRANCH  26  27
ENDBRANCH  24  26
ENDBRANCH  22  24
ENDBRANCH  19  20
BRANCH   9  34
ATOM     34  O   UNL     1      -0.959   5.872   0.529  0.00  0.00    -0.387 OA
ATOM     35  H   UNL     1      -1.061   6.958   0.671  0.00  0.00    +0.210 HD
ENDBRANCH   9  34
TORSDOF 6
