REMARK  Name = ZINC05149586
REMARK  9 active torsions:
REMARK  status: ('A' for Active; 'I' for Inactive)
REMARK    1  A    between atoms: C_1  and  C_2
REMARK    2  A    between atoms: C_2  and  C_3
REMARK    3  A    between atoms: C_3  and  C_4
REMARK    4  A    between atoms: C_4  and  C_5
REMARK    5  A    between atoms: C_5  and  O_6
REMARK    6  A    between atoms: O_6  and  C_7
REMARK    7  A    between atoms: C_7  and  C_9
REMARK    8  A    between atoms: N_20  and  C_23
REMARK    9  A    between atoms: C_21  and  N_22
REMARK                            x       y       z     vdW  Elec       q    Type
REMARK                         _______ _______ _______ _____ _____    ______ ____
ROOT
ATOM      1  C   UNL     1      -3.249   2.817   0.739  0.00  0.00    +0.126 A 
ATOM      2  C   UNL     1      -3.002   3.395  -0.593  0.00  0.00    +0.125 A 
ATOM      3  C   UNL     1      -1.692   2.883  -1.002  0.00  0.00    +0.167 A 
ATOM      4  N   UNL     1      -1.200   3.226  -2.173  0.00  0.00    -0.225 NA
ATOM      5  C   UNL     1      -1.892   4.048  -2.973  0.00  0.00    +0.092 A 
ATOM      6  C   UNL     1      -1.370   4.426  -4.224  0.00  0.00    +0.030 A 
ATOM      7  C   UNL     1      -2.081   5.261  -5.030  0.00  0.00    +0.002 A 
ATOM      8  C   UNL     1      -3.325   5.751  -4.636  0.00  0.00    +0.002 A 
ATOM      9  C   UNL     1      -3.862   5.408  -3.434  0.00  0.00    +0.030 A 
ATOM     10  C   UNL     1      -3.157   4.547  -2.572  0.00  0.00    +0.090 A 
ATOM     11  N   UNL     1      -3.675   4.202  -1.387  0.00  0.00    -0.241 NA
ATOM     12  N   UNL     1      -1.239   2.070   0.019  0.00  0.00    -0.280 N 
ATOM     13  C   UNL     1      -2.141   2.030   1.039  0.00  0.00    +0.119 A 
ENDROOT
BRANCH  12  14
ATOM     14  C   UNL     1      -0.017   1.385   0.010  0.00  0.00    +0.052 A 
ATOM     15  C   UNL     1       0.002  -0.004   0.002  0.00  0.00    +0.026 A 
ATOM     16  C   UNL     1       1.208  -0.678  -0.013  0.00  0.00    +0.005 A 
ATOM     17  C   UNL     1       2.396   0.028  -0.021  0.00  0.00    +0.038 A 
ATOM     18  C   UNL     1       2.382   1.413  -0.013  0.00  0.00    +0.125 A 
ATOM     19  C   UNL     1       1.177   2.092   0.002  0.00  0.00    +0.064 A 
ATOM     20  F   UNL     1       3.545   2.100  -0.020  0.00  0.00    -0.205 F 
ENDBRANCH  12  14
BRANCH  13  21
ATOM     21  N   UNL     1      -1.980   1.316   2.198  0.00  0.00    -0.343 N 
ATOM     22  H   UNL     1      -1.178   0.789   2.335  0.00  0.00    +0.144 HD
ATOM     23  H   UNL     1      -2.670   1.338   2.880  0.00  0.00    +0.144 HD
ENDBRANCH  13  21
BRANCH   1  24
ATOM     24  C   UNL     1      -4.389   3.022   1.554  0.00  0.00    +0.345 C 
ATOM     25  O   UNL     1      -4.410   3.941   2.351  0.00  0.00    -0.245 OA
BRANCH  24  26
ATOM     26  O   UNL     1      -5.452   2.198   1.445  0.00  0.00    -0.461 OA
BRANCH  26  27
ATOM     27  C   UNL     1      -6.568   2.463   2.298  0.00  0.00    +0.232 C 
BRANCH  27  28
ATOM     28  C   UNL     1      -7.668   1.433   2.034  0.00  0.00    +0.041 C 
BRANCH  28  29
ATOM     29  C   UNL     1      -8.862   1.717   2.946  0.00  0.00    +0.003 C 
BRANCH  29  31
ATOM     30  C   UNL     1     -11.157   0.971   3.595  0.00  0.00    +0.004 C 
ATOM     31  C   UNL     1      -9.962   0.687   2.683  0.00  0.00    -0.003 C 
ENDBRANCH  29  31
ENDBRANCH  28  29
ENDBRANCH  27  28
ENDBRANCH  26  27
ENDBRANCH  24  26
ENDBRANCH   1  24
TORSDOF 8
