REMARK  Name = ZINC27238310
REMARK  13 active torsions:
REMARK  status: ('A' for Active; 'I' for Inactive)
REMARK    1  A    between atoms: C_1  and  C_2
REMARK    2  A    between atoms: C_2  and  O_3
REMARK    3  A    between atoms: O_3  and  C_4
REMARK    4  A    between atoms: C_7  and  C_10
REMARK    5  A    between atoms: C_10  and  C_11
REMARK    6  A    between atoms: C_10  and  C_18
REMARK    7  A    between atoms: C_10  and  O_37
REMARK    8  A    between atoms: C_14  and  C_17
REMARK    9  A    between atoms: C_18  and  C_20
REMARK   10  A    between atoms: C_18  and  O_28
REMARK   11  A    between atoms: C_20  and  N_21
REMARK   12  A    between atoms: O_28  and  C_29
REMARK   13  A    between atoms: C_34  and  C_35
REMARK                            x       y       z     vdW  Elec       q    Type
REMARK                         _______ _______ _______ _____ _____    ______ ____
ROOT
ATOM      1  C   UNL     1       2.245   5.046   0.658  0.00  0.00    +0.151 C 
ENDROOT
BRANCH   1   2
ATOM      2  C   UNL     1       2.098   3.627   1.146  0.00  0.00    -0.008 A 
ATOM      3  C   UNL     1       2.101   2.582   0.241  0.00  0.00    +0.007 A 
ATOM      4  C   UNL     1       1.972   1.280   0.689  0.00  0.00    +0.004 A 
ATOM      5  C   UNL     1       1.828   1.025   2.040  0.00  0.00    -0.050 A 
ATOM      6  C   UNL     1       1.819   2.071   2.944  0.00  0.00    +0.004 A 
ATOM      7  C   UNL     1       1.954   3.372   2.497  0.00  0.00    +0.007 A 
ATOM      8  C   UNL     1       1.682  -0.393   2.527  0.00  0.00    +0.044 C 
ENDBRANCH   1   2
BRANCH   1  12
ATOM      9  C   UNL     1      -1.284   6.197  -1.460  0.00  0.00    +0.121 A 
ATOM     10  C   UNL     1      -0.703   7.070  -0.552  0.00  0.00    +0.046 A 
ATOM     11  C   UNL     1       0.438   6.695   0.132  0.00  0.00    +0.010 A 
ATOM     12  C   UNL     1       1.000   5.452  -0.089  0.00  0.00    -0.008 A 
ATOM     13  C   UNL     1       0.426   4.582  -0.997  0.00  0.00    +0.010 A 
ATOM     14  C   UNL     1      -0.718   4.949  -1.679  0.00  0.00    +0.046 A 
BRANCH   9  15
ATOM     15  O   UNL     1      -2.405   6.563  -2.135  0.00  0.00    -0.492 OA
BRANCH  15  17
ATOM     16  C   UNL     1      -4.199   6.199  -3.712  0.00  0.00    +0.048 C 
ATOM     17  C   UNL     1      -2.949   5.614  -3.054  0.00  0.00    +0.225 C 
ENDBRANCH  15  17
ENDBRANCH   9  15
ENDBRANCH   1  12
BRANCH   1  18
ATOM     18  O   UNL     1       2.435   5.916   1.776  0.00  0.00    -0.376 OA
ATOM     19  H   UNL     1       3.297   5.774   2.443  0.00  0.00    +0.211 HD
ENDBRANCH   1  18
BRANCH   1  20
ATOM     20  C   UNL     1       3.454   5.142  -0.274  0.00  0.00    +0.198 C 
BRANCH  20  21
ATOM     21  C   UNL     1       3.665   6.600  -0.687  0.00  0.00    -0.030 C 
BRANCH  21  22
ATOM     22  N   UNL     1       4.900   6.713  -1.474  0.00  0.00    +0.382 N 
ATOM     23  C   UNL     1       6.088   6.418  -0.641  0.00  0.00    -0.079 C 
ATOM     24  C   UNL     1       7.381   6.780  -1.319  0.00  0.00    -0.019 C 
ATOM     25  C   UNL     1       7.778   8.207  -0.886  0.00  0.00    -0.002 C 
ATOM     26  C   UNL     1       7.023   9.230  -1.601  0.00  0.00    -0.002 C 
ATOM     27  C   UNL     1       5.505   9.121  -1.343  0.00  0.00    -0.019 C 
ATOM     28  C   UNL     1       4.956   8.006  -2.191  0.00  0.00    -0.079 C 
ATOM     29  H   UNL     1       4.893   5.942  -2.258  0.00  0.00    -0.082 HD
ENDBRANCH  21  22
ENDBRANCH  20  21
BRANCH  20  30
ATOM     30  O   UNL     1       3.222   4.347  -1.439  0.00  0.00    -0.487 OA
BRANCH  30  31
ATOM     31  C   UNL     1       4.109   3.349  -1.692  0.00  0.00    +0.124 A 
ATOM     32  C   UNL     1       5.109   3.059  -0.774  0.00  0.00    +0.047 A 
ATOM     33  C   UNL     1       6.010   2.045  -1.032  0.00  0.00    +0.023 A 
ATOM     34  C   UNL     1       5.917   1.319  -2.206  0.00  0.00    +0.041 A 
ATOM     35  C   UNL     1       4.921   1.606  -3.123  0.00  0.00    +0.027 A 
ATOM     36  C   UNL     1       4.018   2.620  -2.868  0.00  0.00    -0.007 A 
ATOM     37  C   UNL     1       2.937   2.937  -3.869  0.00  0.00    +0.047 C 
ATOM     38 CL   UNL     1       7.051   0.045  -2.530  0.00  0.00    -0.084 Cl
ENDBRANCH  30  31
ENDBRANCH  20  30
ENDBRANCH   1  20
TORSDOF 10
