REMARK  Name = ZINC09048481
REMARK  10 active torsions:
REMARK  status: ('A' for Active; 'I' for Inactive)
REMARK    1  A    between atoms: C_1  and  C_2
REMARK    2  A    between atoms: C_2  and  C_34
REMARK    3  A    between atoms: N_5  and  C_9
REMARK    4  A    between atoms: C_9  and  C_10
REMARK    5  A    between atoms: N_12  and  C_13
REMARK    6  A    between atoms: C_13  and  C_14
REMARK    7  A    between atoms: C_14  and  C_16
REMARK    8  A    between atoms: C_14  and  C_24
REMARK    9  A    between atoms: C_19  and  O_22
REMARK   10  A    between atoms: O_22  and  C_23
REMARK                            x       y       z     vdW  Elec       q    Type
REMARK                         _______ _______ _______ _____ _____    ______ ____
ROOT
ATOM      1  C   UNL     1      -2.449   1.117   0.020  0.00  0.00    +0.117 C 
ENDROOT
BRANCH   1   4
ATOM      2  C   UNL     1      -0.014   1.209   0.009  0.00  0.00    +0.231 C 
ATOM      3  O   UNL     1       0.002  -0.004   0.002  0.00  0.00    -0.274 OA
ATOM      4  N   UNL     1      -1.191   1.867   0.018  0.00  0.00    -0.313 N 
ATOM      5  H   UNL     1      -1.204   2.837   0.023  0.00  0.00    +0.149 HD
BRANCH   2   6
ATOM      6  C   UNL     1       1.280   1.980   0.001  0.00  0.00    +0.213 C 
BRANCH   6  11
ATOM      7  C   UNL     1       5.447   0.149  -1.162  0.00  0.00    +0.050 C 
ATOM      8  C   UNL     1       4.088  -0.356  -0.673  0.00  0.00    +0.168 C 
ATOM      9  C   UNL     1       2.978   0.565  -1.138  0.00  0.00    +0.254 C 
ATOM     10  O   UNL     1       2.668   0.818  -2.283  0.00  0.00    -0.272 OA
ATOM     11  N   UNL     1       2.407   1.043  -0.015  0.00  0.00    -0.215 N 
ATOM     12  C   UNL     1       2.999   0.561   1.083  0.00  0.00    +0.310 C 
ATOM     13  O   UNL     1       2.662   0.851   2.215  0.00  0.00    -0.252 OA
ATOM     14  N   UNL     1       4.006  -0.283   0.796  0.00  0.00    -0.279 N 
ATOM     15  H   UNL     1       4.571  -0.750   1.432  0.00  0.00    +0.152 HD
BRANCH   8  16
ATOM     16  C   UNL     1       3.843  -1.765  -1.149  0.00  0.00    +0.137 A 
ATOM     17  C   UNL     1       4.233  -2.887  -0.518  0.00  0.00    +0.047 A 
ATOM     18  C   UNL     1       3.797  -3.974  -1.310  0.00  0.00    +0.041 A 
ATOM     19  C   UNL     1       3.167  -3.451  -2.377  0.00  0.00    +0.195 A 
ATOM     20  O   UNL     1       3.192  -2.113  -2.271  0.00  0.00    -0.465 OA
ENDBRANCH   8  16
ENDBRANCH   6  11
ENDBRANCH   2   6
ENDBRANCH   1   4
BRANCH   1  21
ATOM     21  C   UNL     1      -3.626   2.095   0.031  0.00  0.00    +0.068 C 
BRANCH  21  22
ATOM     22  C   UNL     1      -3.622   2.871   1.323  0.00  0.00    -0.013 A 
ATOM     23  C   UNL     1      -3.718   2.361   2.561  0.00  0.00    +0.088 A 
ATOM     24  N   UNL     1      -3.679   3.369   3.485  0.00  0.00    -0.360 N 
ATOM     25  H   UNL     1      -3.732   3.247   4.446  0.00  0.00    +0.165 HD
ATOM     26  C   UNL     1      -3.553   4.583   2.848  0.00  0.00    +0.047 A 
ATOM     27  C   UNL     1      -3.505   4.324   1.466  0.00  0.00    +0.003 A 
ATOM     28  C   UNL     1      -3.384   5.382   0.563  0.00  0.00    +0.010 A 
ATOM     29  C   UNL     1      -3.302   6.665   1.027  0.00  0.00    +0.001 A 
ATOM     30  C   UNL     1      -3.342   6.925   2.390  0.00  0.00    +0.002 A 
ATOM     31  C   UNL     1      -3.466   5.897   3.298  0.00  0.00    +0.026 A 
ENDBRANCH  21  22
BRANCH  21  32
ATOM     32  C   UNL     1      -4.917   1.329  -0.091  0.00  0.00    -0.038 A 
ATOM     33  C   UNL     1      -5.252   0.385   0.862  0.00  0.00    +0.008 A 
ATOM     34  C   UNL     1      -6.439  -0.315   0.755  0.00  0.00    +0.046 A 
ATOM     35  C   UNL     1      -7.289  -0.078  -0.315  0.00  0.00    +0.120 A 
ATOM     36  C   UNL     1      -6.948   0.866  -1.273  0.00  0.00    +0.046 A 
ATOM     37  C   UNL     1      -5.763   1.567  -1.159  0.00  0.00    +0.008 A 
BRANCH  35  38
ATOM     38  O   UNL     1      -8.453  -0.770  -0.426  0.00  0.00    -0.495 OA
ATOM     39  C   UNL     1      -8.739  -1.726   0.597  0.00  0.00    +0.277 C 
ENDBRANCH  35  38
ENDBRANCH  21  32
ENDBRANCH   1  21
TORSDOF 8
