REMARK  Name = ZINC02910264
REMARK  1 active torsions:
REMARK  status: ('A' for Active; 'I' for Inactive)
REMARK    1  A    between atoms: C_6  and  C_7
REMARK                            x       y       z     vdW  Elec       q    Type
REMARK                         _______ _______ _______ _____ _____    ______ ____
ROOT
ATOM      1  C   UNL     1      -0.074   5.597   0.031  0.00  0.00    +0.047 C 
ATOM      2  C   UNL     1      -1.187   6.355   0.046  0.00  0.00    +0.023 C 
ATOM      3  C   UNL     1      -0.700   7.778   0.032  0.00  0.00    +0.138 C 
ATOM      4  C   UNL     1      -1.355   8.676  -0.976  0.00  0.00    +0.018 A 
ATOM      5  C   UNL     1      -2.613   8.492  -1.468  0.00  0.00    +0.029 A 
ATOM      6  C   UNL     1      -3.114   9.366  -2.422  0.00  0.00    +0.042 A 
ATOM      7  C   UNL     1      -2.329  10.411  -2.878  0.00  0.00    +0.023 A 
ATOM      8  C   UNL     1      -1.053  10.597  -2.385  0.00  0.00    +0.047 A 
ATOM      9  C   UNL     1      -0.545   9.734  -1.425  0.00  0.00    +0.128 A 
ATOM     10  O   UNL     1       0.698   9.912  -0.917  0.00  0.00    -0.469 OA
ATOM     11  C   UNL     1       1.438   8.818  -0.354  0.00  0.00    +0.180 C 
ATOM     12  N   UNL     1       0.685   7.598  -0.501  0.00  0.00    -0.177 NA
ATOM     13  N   UNL     1       1.069   6.422   0.030  0.00  0.00    -0.273 N 
ATOM     14  C   UNL     1       2.783   8.710  -1.082  0.00  0.00    +0.066 C 
ATOM     15  C   UNL     1       3.536  10.035  -0.955  0.00  0.00    +0.005 C 
ATOM     16  C   UNL     1       3.787  10.341   0.523  0.00  0.00    +0.000 C 
ATOM     17  C   UNL     1       2.449  10.439   1.257  0.00  0.00    +0.005 C 
ATOM     18  C   UNL     1       1.697   9.114   1.128  0.00  0.00    +0.066 C 
ATOM     19 CL   UNL     1      -4.721   9.149  -3.043  0.00  0.00    -0.084 Cl
ATOM     20  H   UNL     1       1.955   6.187   0.347  0.00  0.00    +0.167 HD
ENDROOT
BRANCH   1  26
ATOM     21  C   UNL     1       1.162   3.433   0.009  0.00  0.00    +0.012 A 
ATOM     22  C   UNL     1       1.176   2.054   0.002  0.00  0.00    +0.039 A 
ATOM     23  C   UNL     1      -0.016   1.347   0.009  0.00  0.00    +0.123 A 
ATOM     24  C   UNL     1      -1.227   2.021   0.019  0.00  0.00    +0.039 A 
ATOM     25  C   UNL     1      -1.251   3.400   0.032  0.00  0.00    +0.012 A 
ATOM     26  C   UNL     1      -0.054   4.116   0.024  0.00  0.00    -0.003 A 
ATOM     27  F   UNL     1       0.002  -0.004   0.002  0.00  0.00    -0.205 F 
ENDBRANCH   1  26
TORSDOF 1
