REMARK  Name = ZINC00544141
REMARK  5 active torsions:
REMARK  status: ('A' for Active; 'I' for Inactive)
REMARK    1  A    between atoms: C_1  and  C_2
REMARK    2  A    between atoms: C_2  and  C_3
REMARK    3  A    between atoms: C_2  and  C_4
REMARK    4  A    between atoms: C_7  and  C_10
REMARK    5  A    between atoms: N_11  and  N_12
REMARK                            x       y       z     vdW  Elec       q    Type
REMARK                         _______ _______ _______ _____ _____    ______ ____
ROOT
ATOM      1  N   UNL     1      -3.586   4.666   6.049  0.00  0.00    -0.184 N 
ATOM      2  C   UNL     1      -4.083   3.771   6.943  0.00  0.00    +0.227 A 
ATOM      3  N   UNL     1      -4.782   4.146   7.977  0.00  0.00    -0.233 NA
ATOM      4  C   UNL     1      -5.045   5.444   8.206  0.00  0.00    +0.103 A 
ATOM      5  C   UNL     1      -5.784   6.162   9.253  0.00  0.00    +0.029 A 
ATOM      6  C   UNL     1      -6.481   5.753  10.391  0.00  0.00    +0.050 A 
ATOM      7  C   UNL     1      -7.086   6.692  11.197  0.00  0.00    +0.124 A 
ATOM      8  C   UNL     1      -7.003   8.044  10.882  0.00  0.00    +0.040 A 
ATOM      9  C   UNL     1      -6.319   8.462   9.763  0.00  0.00    +0.029 A 
ATOM     10  C   UNL     1      -5.701   7.529   8.934  0.00  0.00    +0.049 A 
ATOM     11  N   UNL     1      -4.965   7.657   7.775  0.00  0.00    -0.349 N 
ATOM     12  H   UNL     1      -4.758   8.498   7.338  0.00  0.00    +0.166 HD
ATOM     13  C   UNL     1      -4.564   6.413   7.326  0.00  0.00    +0.133 A 
ATOM     14  C   UNL     1      -3.803   5.989   6.213  0.00  0.00    +0.298 A 
ATOM     15  O   UNL     1      -3.357   6.798   5.418  0.00  0.00    -0.263 OA
ATOM     16  F   UNL     1      -7.761   6.299  12.299  0.00  0.00    -0.205 F 
ENDROOT
BRANCH   1  18
ATOM     17  C   UNL     1      -2.711   2.941   4.735  0.00  0.00    +0.141 C 
ATOM     18  N   UNL     1      -2.840   4.214   4.953  0.00  0.00    -0.170 NA
BRANCH  17  22
ATOM     19  C   UNL     1      -0.726   1.574   1.242  0.00  0.00    -0.045 A 
ATOM     20  C   UNL     1      -0.856   2.932   1.473  0.00  0.00    +0.004 A 
ATOM     21  C   UNL     1      -1.504   3.383   2.604  0.00  0.00    +0.010 A 
ATOM     22  C   UNL     1      -2.021   2.466   3.522  0.00  0.00    -0.005 A 
ATOM     23  C   UNL     1      -1.881   1.096   3.285  0.00  0.00    +0.010 A 
ATOM     24  C   UNL     1      -1.235   0.659   2.147  0.00  0.00    +0.004 A 
BRANCH  19  26
ATOM     25  C   UNL     1       1.417   1.611  -0.006  0.00  0.00    +0.012 C 
ATOM     26  C   UNL     1      -0.021   1.088   0.002  0.00  0.00    +0.013 C 
ATOM     27  C   UNL     1      -0.757   1.602  -1.237  0.00  0.00    +0.012 C 
ENDBRANCH  19  26
ENDBRANCH  17  22
ENDBRANCH   1  18
TORSDOF 3
