REMARK  Name = ZINC03227169
REMARK  3 active torsions:
REMARK  status: ('A' for Active; 'I' for Inactive)
REMARK    1  A    between atoms: C_4  and  C_7
REMARK    2  A    between atoms: C_7  and  C_23
REMARK    3  A    between atoms: C_8  and  C_21
REMARK                            x       y       z     vdW  Elec       q    Type
REMARK                         _______ _______ _______ _____ _____    ______ ____
ROOT
ATOM      1  C   UNL     1       1.188   3.323   0.009  0.00  0.00    +0.194 C 
ATOM      2  C   UNL     1      -0.263   3.747  -0.131  0.00  0.00    +0.094 C 
ATOM      3  C   UNL     1      -1.213   2.763  -0.098  0.00  0.00    +0.097 C 
ATOM      4  N   UNL     1      -0.923   1.424   0.049  0.00  0.00    -0.216 N 
ATOM      5  C   UNL     1      -2.011   0.529   0.059  0.00  0.00    +0.057 A 
ATOM      6  C   UNL     1      -1.930  -0.866   0.203  0.00  0.00    +0.025 A 
ATOM      7  C   UNL     1      -3.066  -1.641   0.198  0.00  0.00    +0.002 A 
ATOM      8  C   UNL     1      -4.321  -1.074   0.053  0.00  0.00    +0.001 A 
ATOM      9  C   UNL     1      -4.428   0.299  -0.090  0.00  0.00    +0.017 A 
ATOM     10  C   UNL     1      -3.289   1.071  -0.085  0.00  0.00    +0.036 A 
ATOM     11  S   UNL     1      -2.987   2.816  -0.222  0.00  0.00    -0.071 S 
ATOM     12  C   UNL     1       0.376   1.039   0.180  0.00  0.00    +0.312 C 
ATOM     13  O   UNL     1       0.605  -0.147   0.313  0.00  0.00    -0.252 OA
ATOM     14  N   UNL     1       1.418   1.877   0.167  0.00  0.00    -0.277 N 
ATOM     15  H   UNL     1       2.320   1.535   0.262  0.00  0.00    +0.152 HD
ENDROOT
BRANCH   1  19
ATOM     16  C   UNL     1       3.294   4.638  -3.467  0.00  0.00    +0.000 A 
ATOM     17  C   UNL     1       3.213   3.289  -3.178  0.00  0.00    +0.000 A 
ATOM     18  C   UNL     1       2.531   2.863  -2.053  0.00  0.00    +0.006 A 
ATOM     19  C   UNL     1       1.931   3.787  -1.218  0.00  0.00    -0.010 A 
ATOM     20  C   UNL     1       2.007   5.136  -1.510  0.00  0.00    +0.006 A 
ATOM     21  C   UNL     1       2.693   5.561  -2.632  0.00  0.00    +0.000 A 
ENDBRANCH   1  19
BRANCH   1  22
ATOM     22  C   UNL     1       1.781   4.038   1.224  0.00  0.00    +0.420 C 
ATOM     23  F   UNL     1       3.153   3.775   1.296  0.00  0.00    -0.168 F 
ATOM     24  F   UNL     1       1.576   5.417   1.099  0.00  0.00    -0.168 F 
ATOM     25  F   UNL     1       1.156   3.577   2.388  0.00  0.00    -0.168 F 
ENDBRANCH   1  22
BRANCH   2  26
ATOM     26  C   UNL     1      -0.623   5.124  -0.292  0.00  0.00    +0.100 C 
ATOM     27  N   UNL     1      -0.909   6.216  -0.420  0.00  0.00    -0.191 NA
ENDBRANCH   2  26
TORSDOF 3
