REMARK  Name = ZINC39553782
REMARK  5 active torsions:
REMARK  status: ('A' for Active; 'I' for Inactive)
REMARK    1  A    between atoms: C_1  and  C_2
REMARK    2  A    between atoms: C_4  and  N_26
REMARK    3  A    between atoms: C_7  and  N_8
REMARK    4  A    between atoms: C_9  and  C_11
REMARK    5  A    between atoms: C_13  and  C_25
REMARK                            x       y       z     vdW  Elec       q    Type
REMARK                         _______ _______ _______ _____ _____    ______ ____
ROOT
ATOM      1  N   UNL     1       0.025  -0.011   2.417  0.00  0.00    -0.281 N 
ATOM      2  C   UNL     1      -0.057  -0.689   3.579  0.00  0.00    +0.250 C 
ATOM      3  O   UNL     1      -0.040  -1.904   3.577  0.00  0.00    -0.270 OA
ATOM      4  H   UNL     1       0.078   0.958   2.423  0.00  0.00    +0.155 HD
ENDROOT
BRANCH   2   5
ATOM      5  C   UNL     1      -0.166   0.046   4.857  0.00  0.00    +0.068 A 
ATOM      6  C   UNL     1      -0.192   1.442   4.885  0.00  0.00    +0.038 A 
ATOM      7  C   UNL     1      -0.295   2.094   6.101  0.00  0.00    +0.041 A 
ATOM      8  N   UNL     1      -0.372   1.429   7.235  0.00  0.00    -0.233 NA
ATOM      9  C   UNL     1      -0.356   0.108   7.274  0.00  0.00    +0.161 A 
ATOM     10  C   UNL     1      -0.252  -0.640   6.085  0.00  0.00    +0.120 A 
ATOM     11  N   UNL     1      -0.255  -1.941   6.431  0.00  0.00    -0.230 NA
ATOM     12  C   UNL     1      -0.362  -2.055   7.726  0.00  0.00    +0.112 A 
ATOM     13  N   UNL     1      -0.429  -0.819   8.291  0.00  0.00    -0.312 N 
ATOM     14  C   UNL     1      -0.580  -0.524   9.719  0.00  0.00    +0.125 C 
ATOM     15  C   UNL     1       0.041  -1.653  10.544  0.00  0.00    +0.022 C 
ATOM     16  C   UNL     1      -1.010  -2.727  10.819  0.00  0.00    +0.002 C 
ATOM     17  C   UNL     1      -1.510  -3.329   9.510  0.00  0.00    +0.008 C 
ATOM     18  C   UNL     1      -0.391  -3.358   8.488  0.00  0.00    +0.074 C 
ATOM     19  C   UNL     1      -0.320   3.600   6.128  0.00  0.00    +0.065 C 
ENDBRANCH   2   5
BRANCH   1  26
ATOM     20  C   UNL     1      -1.266   1.183   0.182  0.00  0.00    +0.046 C 
ATOM     21  C   UNL     1      -0.586  -0.158   0.085  0.00  0.00    -0.027 A 
ATOM     22  C   UNL     1      -0.573  -0.840  -1.116  0.00  0.00    +0.028 A 
ATOM     23  C   UNL     1       0.054  -2.076  -1.205  0.00  0.00    +0.030 A 
ATOM     24  C   UNL     1       0.668  -2.626  -0.087  0.00  0.00    +0.025 A 
ATOM     25  C   UNL     1       0.655  -1.944   1.113  0.00  0.00    +0.025 A 
ATOM     26  C   UNL     1       0.033  -0.705   1.201  0.00  0.00    +0.037 A 
BRANCH  23  27
ATOM     27  N   UNL     1       0.067  -2.767  -2.422  0.00  0.00    -0.330 N 
ATOM     28  C   UNL     1      -0.536  -2.300  -3.679  0.00  0.00    +0.105 C 
ATOM     29  C   UNL     1      -0.297  -3.398  -4.737  0.00  0.00    +0.020 C 
ATOM     30  C   UNL     1      -0.068  -4.668  -3.875  0.00  0.00    +0.020 C 
ATOM     31  C   UNL     1       0.693  -4.081  -2.657  0.00  0.00    +0.105 C 
ENDBRANCH  23  27
ENDBRANCH   1  26
TORSDOF 3
