REMARK  Name = ZINC32619841
REMARK  6 active torsions:
REMARK  status: ('A' for Active; 'I' for Inactive)
REMARK    1  A    between atoms: C_9  and  S_11
REMARK    2  A    between atoms: S_11  and  C_12
REMARK    3  A    between atoms: C_13  and  N_27
REMARK    4  A    between atoms: C_15  and  S_21
REMARK    5  A    between atoms: C_17  and  N_18
REMARK    6  A    between atoms: S_21  and  C_23
REMARK                            x       y       z     vdW  Elec       q    Type
REMARK                         _______ _______ _______ _____ _____    ______ ____
ROOT
ATOM      1  C   UNL     1      -1.326   3.326   0.026  0.00  0.00    +0.076 A 
ATOM      2  C   UNL     1      -2.541   4.000   0.035  0.00  0.00    +0.143 A 
ATOM      3  C   UNL     1      -3.724   3.288   0.037  0.00  0.00    +0.051 A 
ATOM      4  C   UNL     1      -3.701   1.905   0.029  0.00  0.00    +0.052 A 
ATOM      5  C   UNL     1      -2.493   1.231   0.015  0.00  0.00    +0.051 A 
ATOM      6  C   UNL     1      -1.306   1.936   0.019  0.00  0.00    +0.143 A 
ENDROOT
BRANCH   6   7
ATOM      7  N   UNL     1      -0.014   1.214   0.009  0.00  0.00    +0.058 N 
ATOM      8  O   UNL     1       0.002  -0.004   0.002  0.00  0.00    -0.126 OA
ATOM      9  O   UNL     1       1.032   1.837   0.002  0.00  0.00    -0.126 OA
ENDBRANCH   6   7
BRANCH   2  10
ATOM     10  N   UNL     1      -2.567   5.480   0.043  0.00  0.00    +0.058 N 
ATOM     11  O   UNL     1      -3.632   6.070   0.051  0.00  0.00    -0.126 OA
ATOM     12  O   UNL     1      -1.523   6.107   0.042  0.00  0.00    -0.126 OA
ENDBRANCH   2  10
BRANCH   4  13
ATOM     13  S   UNL     1      -5.213   1.000   0.029  0.00  0.00    +0.157 S 
ATOM     14  O   UNL     1      -6.149   1.896   0.612  0.00  0.00    -0.244 OA
BRANCH  13  15
ATOM     15  C   UNL     1      -5.596   0.785  -1.731  0.00  0.00    +0.477 C 
ATOM     16  F   UNL     1      -4.559   0.079  -2.351  0.00  0.00    -0.158 F 
ATOM     17  F   UNL     1      -6.791   0.071  -1.864  0.00  0.00    -0.158 F 
ATOM     18  F   UNL     1      -5.732   2.040  -2.335  0.00  0.00    -0.158 F 
ENDBRANCH  13  15
ENDBRANCH   4  13
BRANCH   1  19
ATOM     19  S   UNL     1       0.186   4.230   0.024  0.00  0.00    -0.047 S 
BRANCH  19  28
ATOM     20  C   UNL     1       1.614   5.138  -6.033  0.00  0.00    +0.002 A 
ATOM     21  C   UNL     1       0.436   4.435  -6.238  0.00  0.00    +0.002 A 
ATOM     22  C   UNL     1      -0.303   3.983  -5.168  0.00  0.00    +0.030 A 
ATOM     23  C   UNL     1       0.137   4.234  -3.865  0.00  0.00    +0.090 A 
ATOM     24  C   UNL     1       1.330   4.947  -3.664  0.00  0.00    +0.067 A 
ATOM     25  C   UNL     1       2.062   5.394  -4.754  0.00  0.00    +0.028 A 
ATOM     26  N   UNL     1       1.497   5.040  -2.292  0.00  0.00    -0.333 N 
ATOM     27  H   UNL     1       2.370   5.567  -1.879  0.00  0.00    +0.168 HD
ATOM     28  C   UNL     1       0.440   4.397  -1.711  0.00  0.00    +0.172 A 
ATOM     29  N   UNL     1      -0.358   3.927  -2.638  0.00  0.00    -0.222 NA
ENDBRANCH  19  28
ENDBRANCH   1  19
TORSDOF 6
