REMARK  Name = ZINC19874325
REMARK  2 active torsions:
REMARK  status: ('A' for Active; 'I' for Inactive)
REMARK    1  A    between atoms: C_1  and  C_2
REMARK    2  A    between atoms: C_3  and  C_7
REMARK                            x       y       z     vdW  Elec       q    Type
REMARK                         _______ _______ _______ _____ _____    ______ ____
ROOT
ATOM      1  C   UNL     1      -3.705   2.604   0.034  0.00  0.00    +0.137 A 
ATOM      2  N   UNL     1      -2.645   3.401   0.034  0.00  0.00    -0.140 NA
ATOM      3  N   UNL     1      -1.469   2.946   0.031  0.00  0.00    -0.126 NA
ATOM      4  C   UNL     1      -1.221   1.643   0.017  0.00  0.00    +0.179 A 
ATOM      5  S   UNL     1      -2.895   1.007   0.021  0.00  0.00    -0.031 S 
ATOM      6  N   UNL     1      -0.011   0.966   0.007  0.00  0.00    -0.336 N 
ATOM      7  H   UNL     1       0.004  -0.134  -0.004  0.00  0.00    +0.144 HD
ATOM      8  H   UNL     1       0.934   1.529   0.011  0.00  0.00    +0.144 HD
ENDROOT
BRANCH   1  11
ATOM      9  C   UNL     1      -4.944   5.483   0.070  0.00  0.00    +0.087 C 
ATOM     10  C   UNL     1      -5.701   4.180   0.059  0.00  0.00    +0.112 A 
ATOM     11  C   UNL     1      -5.146   2.938   0.044  0.00  0.00    +0.050 A 
ATOM     12  C   UNL     1      -6.274   1.999   0.045  0.00  0.00    +0.052 A 
ATOM     13  C   UNL     1      -7.386   2.753   0.055  0.00  0.00    +0.196 A 
ATOM     14  O   UNL     1      -7.035   4.048   0.060  0.00  0.00    -0.467 OA
ENDBRANCH   1  11
TORSDOF 1
