REMARK  Name = ZINC22172962
REMARK  13 active torsions:
REMARK  status: ('A' for Active; 'I' for Inactive)
REMARK    1  A    between atoms: C_1  and  C_2
REMARK    2  A    between atoms: C_2  and  O_3
REMARK    3  A    between atoms: O_3  and  C_4
REMARK    4  A    between atoms: C_4  and  C_6
REMARK    5  A    between atoms: C_10  and  N_11
REMARK    6  A    between atoms: C_12  and  C_14
REMARK    7  A    between atoms: C_14  and  S_15
REMARK    8  A    between atoms: S_15  and  C_16
REMARK    9  A    between atoms: N_21  and  C_22
REMARK   10  A    between atoms: C_25  and  C_31
REMARK   11  A    between atoms: C_25  and  C_32
REMARK   12  A    between atoms: C_27  and  C_29
REMARK   13  A    between atoms: C_27  and  C_30
REMARK                            x       y       z     vdW  Elec       q    Type
REMARK                         _______ _______ _______ _____ _____    ______ ____
ROOT
ATOM      1  C   UNL     1      -8.986  -6.194   4.131  0.00  0.00    +0.091 A 
ATOM      2  C   UNL     1     -10.224  -6.455   4.834  0.00  0.00    -0.024 A 
ATOM      3  C   UNL     1     -10.828  -5.372   5.374  0.00  0.00    -0.016 A 
ATOM      4  S   UNL     1      -9.764  -4.018   4.967  0.00  0.00    -0.079 S 
ATOM      5  C   UNL     1      -8.541  -4.877   4.090  0.00  0.00    +0.086 A 
ATOM      6  C   UNL     1     -12.115  -5.356   6.132  0.00  0.00    -0.041 C 
ATOM      7  N   UNL     1     -12.590  -6.706   6.417  0.00  0.00    +0.389 N 
ATOM      8  C   UNL     1     -11.628  -7.795   6.352  0.00  0.00    -0.069 C 
ATOM      9  C   UNL     1     -10.878  -7.818   5.015  0.00  0.00    +0.024 C 
ATOM     10  C   UNL     1     -10.616  -7.706   7.497  0.00  0.00    -0.010 C 
ATOM     11  C   UNL     1     -12.385  -9.129   6.492  0.00  0.00    -0.010 C 
ATOM     12  C   UNL     1     -11.929  -4.569   7.436  0.00  0.00    -0.005 C 
ATOM     13  C   UNL     1     -13.170  -4.624   5.281  0.00  0.00    -0.005 C 
ATOM     14  H   UNL     1     -12.996  -6.744   7.439  0.00  0.00    -0.084 HD
ATOM     15  H   UNL     1     -13.378  -6.977   5.699  0.00  0.00    -0.084 HD
ENDROOT
BRANCH   5  16
ATOM     16  N   UNL     1      -7.396  -4.374   3.491  0.00  0.00    -0.279 N 
ATOM     17  C   UNL     1      -7.125  -3.055   3.555  0.00  0.00    +0.228 C 
ATOM     18  O   UNL     1      -7.883  -2.308   4.137  0.00  0.00    -0.275 OA
ATOM     19  H   UNL     1      -6.708  -5.052   2.964  0.00  0.00    +0.155 HD
BRANCH  17  20
ATOM     20  C   UNL     1      -5.881  -2.509   2.904  0.00  0.00    +0.172 C 
BRANCH  20  21
ATOM     21  S   UNL     1      -5.800  -0.716   3.163  0.00  0.00    -0.088 S 
BRANCH  21  22
ATOM     22  C   UNL     1      -4.311  -0.235   2.354  0.00  0.00    +0.160 A 
ATOM     23  N   UNL     1      -3.435  -0.977   1.704  0.00  0.00    -0.133 NA
ATOM     24  N   UNL     1      -2.326  -0.391   1.140  0.00  0.00    -0.125 NA
ATOM     25  C   UNL     1      -2.142   0.910   1.253  0.00  0.00    +0.183 A 
ATOM     26  S   UNL     1      -3.578   1.387   2.203  0.00  0.00    -0.025 S 
ATOM     27  N   UNL     1      -1.105   1.699   0.767  0.00  0.00    -0.319 N 
ATOM     28  H   UNL     1      -1.106   2.783   0.953  0.00  0.00    +0.148 HD
BRANCH  27  29
ATOM     29  C   UNL     1      -0.013   1.086   0.008  0.00  0.00    +0.072 C 
ATOM     30  C   UNL     1       0.460   1.806  -1.256  0.00  0.00    +0.024 C 
ATOM     31  C   UNL     1       1.335   1.811  -0.001  0.00  0.00    +0.024 C 
ENDBRANCH  27  29
ENDBRANCH  21  22
ENDBRANCH  20  21
ENDBRANCH  17  20
ENDBRANCH   5  16
BRANCH   1  32
ATOM     32  C   UNL     1      -8.225  -7.264   3.482  0.00  0.00    +0.342 C 
ATOM     33  O   UNL     1      -7.368  -7.864   4.103  0.00  0.00    -0.245 OA
BRANCH  32  34
ATOM     34  O   UNL     1      -8.474  -7.584   2.195  0.00  0.00    -0.461 OA
BRANCH  34  36
ATOM     35  C   UNL     1      -8.104  -8.872   0.162  0.00  0.00    +0.048 C 
ATOM     36  C   UNL     1      -7.682  -8.654   1.617  0.00  0.00    +0.229 C 
ENDBRANCH  34  36
ENDBRANCH  32  34
ENDBRANCH   1  32
TORSDOF 8
