REMARK  Name = ZINC18119887
REMARK  6 active torsions:
REMARK  status: ('A' for Active; 'I' for Inactive)
REMARK    1  A    between atoms: C_1  and  C_2
REMARK    2  A    between atoms: C_8  and  C_10
REMARK    3  A    between atoms: C_10  and  S_11
REMARK    4  A    between atoms: S_11  and  C_12
REMARK    5  A    between atoms: C_15  and  C_24
REMARK    6  A    between atoms: N_16  and  C_17
REMARK                            x       y       z     vdW  Elec       q    Type
REMARK                         _______ _______ _______ _____ _____    ______ ____
ROOT
ATOM      1  C   UNL     1      -6.268  -5.421   0.001  0.00  0.00    +0.197 A 
ATOM      2  N   UNL     1      -5.739  -6.623  -0.003  0.00  0.00    -0.122 NA
ATOM      3  N   UNL     1      -6.664  -7.514  -0.004  0.00  0.00    -0.128 NA
ATOM      4  C   UNL     1      -7.845  -6.938  -0.002  0.00  0.00    +0.171 A 
ATOM      5  N   UNL     1      -7.629  -5.577   0.007  0.00  0.00    -0.270 N 
ENDROOT
BRANCH   4   6
ATOM      6  C   UNL     1      -9.155  -7.619  -0.004  0.00  0.00    +0.045 A 
ATOM      7  C   UNL     1     -10.377  -7.028  -0.008  0.00  0.00    +0.095 A 
ATOM      8  N   UNL     1     -11.351  -7.984  -0.009  0.00  0.00    -0.360 N 
ATOM      9  H   UNL     1     -12.305  -7.804  -0.011  0.00  0.00    +0.165 HD
ATOM     10  C   UNL     1     -10.785  -9.240  -0.005  0.00  0.00    +0.047 A 
ATOM     11  C   UNL     1      -9.390  -9.073  -0.007  0.00  0.00    +0.010 A 
ATOM     12  C   UNL     1      -8.554 -10.188  -0.010  0.00  0.00    +0.011 A 
ATOM     13  C   UNL     1      -9.102 -11.452  -0.014  0.00  0.00    +0.001 A 
ATOM     14  C   UNL     1     -10.480 -11.618  -0.015  0.00  0.00    +0.002 A 
ATOM     15  C   UNL     1     -11.319 -10.525  -0.004  0.00  0.00    +0.026 A 
ENDBRANCH   4   6
BRANCH   5  16
ATOM     16  C   UNL     1      -8.599  -4.565   0.016  0.00  0.00    +0.051 A 
ATOM     17  C   UNL     1      -9.437  -4.415   1.113  0.00  0.00    +0.028 A 
ATOM     18  C   UNL     1     -10.392  -3.417   1.120  0.00  0.00    +0.022 A 
ATOM     19  C   UNL     1     -10.513  -2.567   0.035  0.00  0.00    +0.041 A 
ATOM     20  C   UNL     1      -9.679  -2.714  -1.059  0.00  0.00    +0.022 A 
ATOM     21  C   UNL     1      -8.719  -3.706  -1.068  0.00  0.00    +0.028 A 
ATOM     22 CL   UNL     1     -11.714  -1.313   0.047  0.00  0.00    -0.084 Cl
ENDBRANCH   5  16
BRANCH   1  23
ATOM     23  S   UNL     1      -5.390  -3.893   0.006  0.00  0.00    -0.076 S 
BRANCH  23  24
ATOM     24  C   UNL     1      -3.646  -4.389  -0.006  0.00  0.00    +0.173 C 
BRANCH  24  32
ATOM     25  C   UNL     1      -0.018   1.503   0.010  0.00  0.00    +0.089 C 
ATOM     26  C   UNL     1       0.002  -0.004   0.002  0.00  0.00    +0.136 A 
ATOM     27  C   UNL     1      -1.076  -0.808   0.003  0.00  0.00    +0.091 A 
ATOM     28  C   UNL     1      -0.625  -2.147  -0.007  0.00  0.00    +0.168 A 
ATOM     29  N   UNL     1       0.683  -2.130  -0.013  0.00  0.00    -0.063 NA
ATOM     30  O   UNL     1       1.100  -0.776  -0.013  0.00  0.00    -0.358 OA
ATOM     31  N   UNL     1      -1.432  -3.285  -0.010  0.00  0.00    -0.267 N 
ATOM     32  C   UNL     1      -2.774  -3.159  -0.003  0.00  0.00    +0.229 C 
ATOM     33  O   UNL     1      -3.280  -2.057   0.006  0.00  0.00    -0.275 OA
ATOM     34  H   UNL     1      -1.027  -4.166  -0.017  0.00  0.00    +0.156 HD
ENDBRANCH  24  32
ENDBRANCH  23  24
ENDBRANCH   1  23
TORSDOF 5
