REMARK  Name = ZINC63980798
REMARK  10 active torsions:
REMARK  status: ('A' for Active; 'I' for Inactive)
REMARK    1  A    between atoms: C_1  and  C_2
REMARK    2  A    between atoms: N_4  and  C_5
REMARK    3  A    between atoms: C_9  and  N_31
REMARK    4  A    between atoms: N_13  and  C_20
REMARK    5  A    between atoms: C_14  and  C_16
REMARK    6  A    between atoms: C_16  and  O_18
REMARK    7  A    between atoms: O_18  and  C_19
REMARK    8  A    between atoms: C_20  and  C_21
REMARK    9  A    between atoms: C_21  and  C_22
REMARK   10  A    between atoms: N_31  and  C_32
REMARK                            x       y       z     vdW  Elec       q    Type
REMARK                         _______ _______ _______ _____ _____    ______ ____
ROOT
ATOM      1  C   UNL     1       0.020  -2.136  -1.177  0.00  0.00    +0.138 C 
ATOM      2  C   UNL     1      -1.387  -2.684  -1.120  0.00  0.00    +0.015 A 
ATOM      3  C   UNL     1      -2.378  -2.553  -0.166  0.00  0.00    +0.033 A 
ATOM      4  C   UNL     1      -3.602  -3.182  -0.389  0.00  0.00    +0.044 A 
ATOM      5  C   UNL     1      -3.774  -3.912  -1.555  0.00  0.00    +0.107 A 
ATOM      6  N   UNL     1      -2.806  -4.013  -2.441  0.00  0.00    -0.348 N 
ATOM      7  C   UNL     1      -1.621  -3.428  -2.268  0.00  0.00    +0.105 A 
ATOM      8  N   UNL     1      -0.506  -3.441  -3.104  0.00  0.00    -0.301 N 
ATOM      9  C   UNL     1       0.584  -2.659  -2.509  0.00  0.00    +0.208 C 
ATOM     10  H   UNL     1      -2.959  -4.532  -3.246  0.00  0.00    +0.167 HD
ENDROOT
BRANCH   1  14
ATOM     11  C   UNL     1      -0.018   1.503   0.010  0.00  0.00    +0.109 C 
ATOM     12  C   UNL     1       0.002  -0.004   0.002  0.00  0.00    +0.210 C 
ATOM     13  O   UNL     1       0.020  -0.616   1.049  0.00  0.00    -0.276 OA
ATOM     14  N   UNL     1       0.000  -0.672  -1.169  0.00  0.00    -0.306 N 
ATOM     15  H   UNL     1      -0.015  -0.182  -2.006  0.00  0.00    +0.149 HD
ENDBRANCH   1  14
BRANCH   9  16
ATOM     16  C   UNL     1       1.784  -3.535  -2.261  0.00  0.00    +0.330 C 
ATOM     17  O   UNL     1       1.669  -4.737  -2.277  0.00  0.00    -0.249 OA
BRANCH  16  18
ATOM     18  O   UNL     1       2.983  -2.979  -2.022  0.00  0.00    -0.467 OA
ATOM     19  C   UNL     1       4.077  -3.870  -1.795  0.00  0.00    +0.280 C 
ENDBRANCH  16  18
ENDBRANCH   9  16
BRANCH   4  20
ATOM     20  N   UNL     1      -4.638  -3.080   0.548  0.00  0.00    -0.340 N 
ATOM     21  H   UNL     1      -4.507  -2.567   1.362  0.00  0.00    +0.146 HD
BRANCH  20  22
ATOM     22  C   UNL     1      -5.918  -3.747   0.301  0.00  0.00    +0.070 C 
ATOM     23  C   UNL     1      -7.058  -2.778  -0.056  0.00  0.00    +0.022 C 
ATOM     24  C   UNL     1      -7.970  -3.652   0.821  0.00  0.00    +0.004 C 
ATOM     25  C   UNL     1      -6.702  -4.072   1.583  0.00  0.00    +0.022 C 
ENDBRANCH  20  22
ENDBRANCH   4  20
BRANCH   8  26
ATOM     26  C   UNL     1      -0.432  -4.138  -4.390  0.00  0.00    +0.112 C 
BRANCH  26  27
ATOM     27  C   UNL     1      -0.893  -3.199  -5.506  0.00  0.00    +0.052 C 
BRANCH  27  28
ATOM     28  C   UNL     1      -0.816  -3.915  -6.830  0.00  0.00    -0.040 C 
ATOM     29  C   UNL     1      -1.820  -4.564  -7.462  0.00  0.00    -0.001 A 
ATOM     30  C   UNL     1      -3.230  -4.790  -7.120  0.00  0.00    +0.010 A 
ATOM     31  C   UNL     1      -4.007  -5.496  -7.972  0.00  0.00    +0.001 A 
ATOM     32  C   UNL     1      -3.502  -6.017  -9.171  0.00  0.00    +0.002 A 
ATOM     33  C   UNL     1      -2.218  -5.851  -9.554  0.00  0.00    +0.026 A 
ATOM     34  C   UNL     1      -1.311  -5.125  -8.734  0.00  0.00    +0.043 A 
ATOM     35  N   UNL     1      -0.041  -4.833  -8.883  0.00  0.00    -0.380 N 
ATOM     36  C   UNL     1       0.397  -4.049  -7.723  0.00  0.00    +0.144 C 
ATOM     37  H   UNL     1       0.514  -5.089  -9.635  0.00  0.00    +0.160 HD
ENDBRANCH  27  28
ENDBRANCH  26  27
ENDBRANCH   8  26
TORSDOF 8
