REMARK  Name = ZINC36302355
REMARK  19 active torsions:
REMARK  status: ('A' for Active; 'I' for Inactive)
REMARK    1  A    between atoms: C_1  and  C_2
REMARK    2  A    between atoms: C_3  and  C_22
REMARK    3  A    between atoms: C_4  and  O_13
REMARK    4  A    between atoms: N_5  and  C_7
REMARK    5  A    between atoms: O_13  and  C_14
REMARK    6  A    between atoms: C_17  and  O_20
REMARK    7  A    between atoms: O_20  and  C_21
REMARK    8  A    between atoms: C_22  and  N_23
REMARK    9  A    between atoms: N_23  and  C_24
REMARK   10  A    between atoms: N_23  and  C_36
REMARK   11  A    between atoms: C_24  and  C_25
REMARK   12  A    between atoms: C_25  and  C_27
REMARK   13  A    between atoms: C_25  and  O_35
REMARK   14  A    between atoms: C_27  and  O_28
REMARK   15  A    between atoms: O_28  and  C_29
REMARK   16  A    between atoms: C_29  and  C_30
REMARK   17  A    between atoms: C_36  and  C_37
REMARK   18  A    between atoms: C_37  and  C_38
REMARK   19  A    between atoms: C_37  and  C_39
REMARK                            x       y       z     vdW  Elec       q    Type
REMARK                         _______ _______ _______ _____ _____    ______ ____
ROOT
ATOM      1  C   UNL     1       0.298   1.834   1.015  0.00  0.00    +0.068 C 
ATOM      2  C   UNL     1       0.565   0.366   0.801  0.00  0.00    +0.065 A 
ATOM      3  C   UNL     1       0.438  -0.320  -0.410  0.00  0.00    +0.021 A 
ATOM      4  C   UNL     1       0.766  -1.621  -0.190  0.00  0.00    +0.225 A 
ATOM      5  N   UNL     1       1.090  -1.744   1.125  0.00  0.00    -0.200 N 
ATOM      6  N   UNL     1       0.959  -0.481   1.718  0.00  0.00    -0.168 NA
ENDROOT
BRANCH   5   7
ATOM      7  C   UNL     1       1.488  -2.922   1.771  0.00  0.00    +0.069 A 
ATOM      8  C   UNL     1       0.817  -4.112   1.524  0.00  0.00    +0.028 A 
ATOM      9  C   UNL     1       1.212  -5.271   2.162  0.00  0.00    +0.002 A 
ATOM     10  C   UNL     1       2.274  -5.248   3.046  0.00  0.00    +0.000 A 
ATOM     11  C   UNL     1       2.944  -4.064   3.296  0.00  0.00    +0.002 A 
ATOM     12  C   UNL     1       2.558  -2.903   2.656  0.00  0.00    +0.028 A 
ENDBRANCH   5   7
BRANCH   4  13
ATOM     13  O   UNL     1       0.770  -2.615  -1.114  0.00  0.00    -0.438 OA
BRANCH  13  14
ATOM     14  C   UNL     1      -0.395  -3.277  -1.344  0.00  0.00    +0.131 A 
ATOM     15  C   UNL     1      -1.566  -2.854  -0.730  0.00  0.00    +0.050 A 
ATOM     16  C   UNL     1      -2.750  -3.526  -0.965  0.00  0.00    +0.049 A 
ATOM     17  C   UNL     1      -2.768  -4.624  -1.813  0.00  0.00    +0.120 A 
ATOM     18  C   UNL     1      -1.598  -5.046  -2.426  0.00  0.00    +0.049 A 
ATOM     19  C   UNL     1      -0.415  -4.371  -2.197  0.00  0.00    +0.050 A 
BRANCH  17  20
ATOM     20  O   UNL     1      -3.934  -5.285  -2.043  0.00  0.00    -0.495 OA
ATOM     21  C   UNL     1      -3.879  -6.407  -2.927  0.00  0.00    +0.277 C 
ENDBRANCH  17  20
ENDBRANCH  13  14
ENDBRANCH   4  13
BRANCH   3  22
ATOM     22  C   UNL     1       0.011   0.277  -1.727  0.00  0.00    -0.036 C 
BRANCH  22  23
ATOM     23  N   UNL     1       1.195   0.754  -2.454  0.00  0.00    +0.384 N 
ATOM     24  H   UNL     1       1.694   1.420  -1.884  0.00  0.00    -0.081 HD
BRANCH  23  25
ATOM     25  C   UNL     1       0.773   1.400  -3.705  0.00  0.00    -0.044 C 
BRANCH  25  26
ATOM     26  C   UNL     1       0.010   2.686  -3.383  0.00  0.00    +0.124 C 
BRANCH  26  27
ATOM     27  O   UNL     1      -1.244   2.359  -2.781  0.00  0.00    -0.391 OA
ATOM     28  H   UNL     1      -1.819   1.818  -3.340  0.00  0.00    +0.210 HD
ENDBRANCH  26  27
BRANCH  26  29
ATOM     29  C   UNL     1      -0.233   3.471  -4.673  0.00  0.00    +0.189 C 
BRANCH  29  30
ATOM     30  O   UNL     1      -0.842   4.726  -4.360  0.00  0.00    -0.370 OA
BRANCH  30  31
ATOM     31  C   UNL     1      -1.113   5.541  -5.502  0.00  0.00    +0.234 C 
BRANCH  31  32
ATOM     32  C   UNL     1      -1.750   6.832  -5.057  0.00  0.00    +0.130 A 
ATOM     33  C   UNL     1      -1.096   7.964  -4.739  0.00  0.00    +0.047 A 
ATOM     34  C   UNL     1      -2.077   8.917  -4.380  0.00  0.00    +0.041 A 
ATOM     35  C   UNL     1      -3.272   8.311  -4.501  0.00  0.00    +0.195 A 
ATOM     36  O   UNL     1      -3.068   7.050  -4.917  0.00  0.00    -0.465 OA
ENDBRANCH  31  32
ENDBRANCH  30  31
ENDBRANCH  29  30
ENDBRANCH  26  29
ENDBRANCH  25  26
ENDBRANCH  23  25
BRANCH  23  37
ATOM     37  C   UNL     1       2.072  -0.383  -2.762  0.00  0.00    -0.075 C 
BRANCH  37  38
ATOM     38  C   UNL     1       3.354   0.127  -3.424  0.00  0.00    -0.034 C 
ATOM     39  C   UNL     1       4.087   1.065  -2.463  0.00  0.00    +0.005 C 
ATOM     40  C   UNL     1       4.257  -1.060  -3.766  0.00  0.00    +0.005 C 
ENDBRANCH  37  38
ENDBRANCH  23  37
ENDBRANCH  22  23
ENDBRANCH   3  22
TORSDOF 15
