REMARK  Name = ZINC20483808
REMARK  7 active torsions:
REMARK  status: ('A' for Active; 'I' for Inactive)
REMARK    1  A    between atoms: C_1  and  C_2
REMARK    2  A    between atoms: C_4  and  N_21
REMARK    3  A    between atoms: C_7  and  N_8
REMARK    4  A    between atoms: C_9  and  C_11
REMARK    5  A    between atoms: C_11  and  C_12
REMARK    6  A    between atoms: C_12  and  S_13
REMARK    7  A    between atoms: S_13  and  C_14
REMARK                            x       y       z     vdW  Elec       q    Type
REMARK                         _______ _______ _______ _____ _____    ______ ____
ROOT
ATOM      1  N   UNL     1       0.025  -0.010   2.418  0.00  0.00    -0.285 N 
ATOM      2  C   UNL     1      -0.057  -0.688   3.580  0.00  0.00    +0.218 C 
ATOM      3  O   UNL     1      -0.040  -1.901   3.578  0.00  0.00    -0.275 OA
ATOM      4  H   UNL     1       0.078   0.958   2.424  0.00  0.00    +0.155 HD
ENDROOT
BRANCH   1  11
ATOM      5  C   UNL     1      -1.265   1.183   0.182  0.00  0.00    +0.046 C 
ATOM      6  C   UNL     1      -0.585  -0.158   0.085  0.00  0.00    -0.028 A 
ATOM      7  C   UNL     1      -0.572  -0.840  -1.116  0.00  0.00    +0.028 A 
ATOM      8  C   UNL     1       0.055  -2.076  -1.205  0.00  0.00    +0.025 A 
ATOM      9  C   UNL     1       0.669  -2.626  -0.087  0.00  0.00    +0.024 A 
ATOM     10  C   UNL     1       0.656  -1.944   1.113  0.00  0.00    +0.025 A 
ATOM     11  C   UNL     1       0.034  -0.705   1.201  0.00  0.00    +0.036 A 
BRANCH   8  12
ATOM     12  N   UNL     1       0.068  -2.767  -2.422  0.00  0.00    -0.358 N 
ATOM     13  H   UNL     1      -0.361  -2.383  -3.202  0.00  0.00    +0.142 HD
ATOM     14  H   UNL     1       0.506  -3.630  -2.484  0.00  0.00    +0.142 HD
ENDBRANCH   8  12
ENDBRANCH   1  11
BRANCH   2  15
ATOM     15  C   UNL     1      -0.168   0.062   4.883  0.00  0.00    +0.107 C 
BRANCH  15  16
ATOM     16  C   UNL     1      -0.245  -0.936   6.040  0.00  0.00    +0.086 C 
BRANCH  16  17
ATOM     17  S   UNL     1      -0.379  -0.034   7.608  0.00  0.00    -0.087 S 
BRANCH  17  18
ATOM     18  C   UNL     1      -0.457  -1.305   8.826  0.00  0.00    +0.169 A 
ATOM     19  N   UNL     1      -0.405  -2.568   8.449  0.00  0.00    -0.232 NA
ATOM     20  C   UNL     1      -0.460  -3.558   9.336  0.00  0.00    +0.119 A 
ATOM     21  C   UNL     1      -0.573  -3.280  10.668  0.00  0.00    +0.090 A 
ATOM     22  C   UNL     1      -0.629  -1.936  11.079  0.00  0.00    +0.252 A 
ATOM     23  N   UNL     1      -0.564  -0.967  10.141  0.00  0.00    -0.302 N 
ATOM     24  O   UNL     1      -0.730  -1.651  12.261  0.00  0.00    -0.268 OA
ATOM     25  H   UNL     1      -0.597  -0.034  10.402  0.00  0.00    +0.171 HD
ENDBRANCH  17  18
ENDBRANCH  16  17
ENDBRANCH  15  16
ENDBRANCH   2  15
TORSDOF 6
