REMARK  Name = ZINC63270950
REMARK  11 active torsions:
REMARK  status: ('A' for Active; 'I' for Inactive)
REMARK    1  A    between atoms: C_1  and  O_2
REMARK    2  A    between atoms: O_2  and  C_3
REMARK    3  A    between atoms: C_5  and  N_13
REMARK    4  A    between atoms: C_7  and  O_11
REMARK    5  A    between atoms: C_8  and  O_9
REMARK    6  A    between atoms: O_9  and  C_10
REMARK    7  A    between atoms: O_11  and  C_12
REMARK    8  A    between atoms: C_14  and  C_16
REMARK    9  A    between atoms: C_16  and  C_17
REMARK   10  A    between atoms: C_17  and  C_18
REMARK   11  A    between atoms: C_18  and  N_19
REMARK                            x       y       z     vdW  Elec       q    Type
REMARK                         _______ _______ _______ _____ _____    ______ ____
ROOT
ATOM      1  C   UNL     1       5.172   0.509  -8.243  0.00  0.00    +0.106 C 
ENDROOT
BRANCH   1   2
ATOM      2  N   UNL     1       5.840  -0.365  -9.211  0.00  0.00    -0.299 N 
ATOM      3  C   UNL     1       6.544   0.169 -10.228  0.00  0.00    +0.302 C 
ATOM      4  O   UNL     1       6.702   1.373 -10.292  0.00  0.00    -0.253 OA
ATOM      5  N   UNL     1       7.073  -0.631 -11.175  0.00  0.00    -0.283 N 
ATOM      6  C   UNL     1       6.969  -2.087 -11.035  0.00  0.00    +0.114 C 
ATOM      7  C   UNL     1       6.250  -2.671 -12.265  0.00  0.00    +0.052 C 
ATOM      8  C   UNL     1       6.864  -2.015 -13.477  0.00  0.00    -0.036 C 
ATOM      9  C   UNL     1       7.381  -2.529 -14.586  0.00  0.00    -0.001 A 
ATOM     10  C   UNL     1       7.445  -3.911 -15.088  0.00  0.00    +0.010 A 
ATOM     11  C   UNL     1       8.078  -4.088 -16.277  0.00  0.00    +0.001 A 
ATOM     12  C   UNL     1       8.647  -3.041 -17.009  0.00  0.00    +0.002 A 
ATOM     13  C   UNL     1       8.628  -1.739 -16.628  0.00  0.00    +0.026 A 
ATOM     14  C   UNL     1       7.982  -1.426 -15.396  0.00  0.00    +0.043 A 
ATOM     15  N   UNL     1       7.798  -0.280 -14.811  0.00  0.00    -0.376 N 
ATOM     16  C   UNL     1       7.010  -0.502 -13.598  0.00  0.00    +0.124 C 
ATOM     17  C   UNL     1       7.742  -0.034 -12.341  0.00  0.00    +0.138 C 
ATOM     18  H   UNL     1       5.775  -1.329  -9.119  0.00  0.00    +0.150 HD
ATOM     19  H   UNL     1       8.127   0.577 -15.124  0.00  0.00    +0.160 HD
ENDBRANCH   1   2
BRANCH   1  20
ATOM     20  C   UNL     1       4.449  -0.344  -7.199  0.00  0.00    +0.028 C 
BRANCH  20  21
ATOM     21  C   UNL     1       3.751   0.570  -6.189  0.00  0.00    +0.097 C 
BRANCH  21  23
ATOM     22  N   UNL     1       2.351   0.323  -4.165  0.00  0.00    -0.285 N 
ATOM     23  C   UNL     1       3.039  -0.270  -5.160  0.00  0.00    +0.217 C 
ATOM     24  O   UNL     1       3.085  -1.481  -5.229  0.00  0.00    -0.275 OA
ATOM     25  H   UNL     1       2.252   1.288  -4.152  0.00  0.00    +0.155 HD
BRANCH  22  28
ATOM     26  C   UNL     1       1.841  -2.388  -1.725  0.00  0.00    +0.167 A 
ATOM     27  C   UNL     1       2.406  -1.620  -2.731  0.00  0.00    +0.073 A 
ATOM     28  C   UNL     1       1.779  -0.454  -3.149  0.00  0.00    +0.041 A 
ATOM     29  C   UNL     1       0.586  -0.057  -2.561  0.00  0.00    +0.073 A 
ATOM     30  C   UNL     1       0.020  -0.824  -1.555  0.00  0.00    +0.167 A 
ATOM     31  C   UNL     1       0.644  -1.995  -1.139  0.00  0.00    +0.204 A 
BRANCH  26  33
ATOM     32  C   UNL     1       3.683  -3.875  -1.962  0.00  0.00    +0.277 C 
ATOM     33  O   UNL     1       2.455  -3.531  -1.316  0.00  0.00    -0.491 OA
ENDBRANCH  26  33
BRANCH  31  34
ATOM     34  O   UNL     1       0.086  -2.752  -0.155  0.00  0.00    -0.488 OA
ATOM     35  C   UNL     1       0.466  -2.452   1.189  0.00  0.00    +0.277 C 
ENDBRANCH  31  34
BRANCH  30  36
ATOM     36  O   UNL     1      -1.149  -0.435  -0.978  0.00  0.00    -0.491 OA
ATOM     37  C   UNL     1      -1.737   0.775  -1.458  0.00  0.00    +0.277 C 
ENDBRANCH  30  36
ENDBRANCH  22  28
ENDBRANCH  21  23
ENDBRANCH  20  21
ENDBRANCH   1  20
TORSDOF 8
