REMARK  Name = ZINC08507516
REMARK  3 active torsions:
REMARK  status: ('A' for Active; 'I' for Inactive)
REMARK    1  A    between atoms: C_1  and  C_2
REMARK    2  A    between atoms: C_5  and  C_8
REMARK    3  A    between atoms: C_13  and  C_21
REMARK                            x       y       z     vdW  Elec       q    Type
REMARK                         _______ _______ _______ _____ _____    ______ ____
ROOT
ATOM      1  C   UNL     1       0.059  -4.275  -0.021  0.00  0.00    +0.032 C 
ATOM      2  C   UNL     1      -1.170  -4.811   0.715  0.00  0.00    +0.060 C 
ATOM      3  C   UNL     1      -1.129  -6.321   0.739  0.00  0.00    +0.020 C 
ATOM      4  C   UNL     1       0.049  -6.981   0.775  0.00  0.00    +0.041 C 
ATOM      5  C   UNL     1       0.122  -8.492   0.818  0.00  0.00    +0.176 C 
ATOM      6  N   UNL     1      -1.174  -9.063   0.477  0.00  0.00    -0.221 N 
ATOM      7  C   UNL     1      -2.321  -8.342   0.439  0.00  0.00    +0.218 A 
ATOM      8  N   UNL     1      -3.293  -9.147   0.109  0.00  0.00    -0.201 NA
ATOM      9  C   UNL     1      -2.810 -10.380  -0.075  0.00  0.00    +0.247 A 
ATOM     10  N   UNL     1      -1.517 -10.372   0.139  0.00  0.00    -0.156 NA
ATOM     11  N   UNL     1      -2.332  -6.985   0.718  0.00  0.00    -0.287 N 
ATOM     12  C   UNL     1       1.268  -6.281   0.768  0.00  0.00    +0.164 C 
ATOM     13  O   UNL     1       2.311  -6.904   0.816  0.00  0.00    -0.292 OA
ATOM     14  C   UNL     1       1.313  -4.780   0.702  0.00  0.00    +0.088 C 
ATOM     15  H   UNL     1      -3.163  -6.517   0.893  0.00  0.00    +0.155 HD
ENDROOT
BRANCH   5  16
ATOM     16  C   UNL     1       0.513  -8.934   2.204  0.00  0.00    -0.013 A 
ATOM     17  C   UNL     1      -0.288  -8.611   3.283  0.00  0.00    +0.044 A 
ATOM     18  C   UNL     1       0.069  -9.017   4.558  0.00  0.00    +0.126 A 
ATOM     19  C   UNL     1       1.230  -9.746   4.751  0.00  0.00    +0.076 A 
ATOM     20  C   UNL     1       2.031 -10.069   3.670  0.00  0.00    +0.126 A 
ATOM     21  C   UNL     1       1.668  -9.667   2.396  0.00  0.00    +0.044 A 
ATOM     22  F   UNL     1       3.164 -10.781   3.857  0.00  0.00    -0.205 F 
ATOM     23  F   UNL     1      -0.714  -8.700   5.613  0.00  0.00    -0.205 F 
ENDBRANCH   5  16
BRANCH   1  28
ATOM     24  C   UNL     1      -0.018   1.503   0.010  0.00  0.00    +0.044 C 
ATOM     25  C   UNL     1       0.002  -0.004   0.002  0.00  0.00    -0.050 A 
ATOM     26  C   UNL     1       0.006  -0.689  -1.199  0.00  0.00    +0.003 A 
ATOM     27  C   UNL     1       0.025  -2.071  -1.206  0.00  0.00    +0.004 A 
ATOM     28  C   UNL     1       0.040  -2.768  -0.013  0.00  0.00    -0.043 A 
ATOM     29  C   UNL     1       0.037  -2.084   1.188  0.00  0.00    +0.004 A 
ATOM     30  C   UNL     1       0.023  -0.702   1.195  0.00  0.00    +0.003 A 
ENDBRANCH   1  28
TORSDOF 2
