REMARK  Name = ZINC36597710
REMARK  18 active torsions:
REMARK  status: ('A' for Active; 'I' for Inactive)
REMARK    1  A    between atoms: C_1  and  C_2
REMARK    2  A    between atoms: C_5  and  C_7
REMARK    3  A    between atoms: C_7  and  N_8
REMARK    4  A    between atoms: N_8  and  C_9
REMARK    5  A    between atoms: C_9  and  C_11
REMARK    6  A    between atoms: C_9  and  C_18
REMARK    7  A    between atoms: C_16  and  O_17
REMARK    8  A    between atoms: N_20  and  C_21
REMARK    9  A    between atoms: C_21  and  C_22
REMARK   10  A    between atoms: C_21  and  C_23
REMARK   11  A    between atoms: C_21  and  C_24
REMARK   12  A    between atoms: C_24  and  C_25
REMARK   13  A    between atoms: C_25  and  C_26
REMARK   14  A    between atoms: C_25  and  C_27
REMARK   15  A    between atoms: C_25  and  C_28
REMARK   16  A    between atoms: C_29  and  C_31
REMARK   17  A    between atoms: C_35  and  O_38
REMARK   18  A    between atoms: C_36  and  O_37
REMARK                            x       y       z     vdW  Elec       q    Type
REMARK                         _______ _______ _______ _____ _____    ______ ____
ROOT
ATOM      1  C   UNL     1       3.688  -3.119  -0.520  0.00  0.00    +0.196 C 
ENDROOT
BRANCH   1   2
ATOM      2  C   UNL     1       2.710  -1.973  -0.474  0.00  0.00    +0.023 A 
ATOM      3  C   UNL     1       2.192  -1.555   0.737  0.00  0.00    +0.009 A 
ATOM      4  C   UNL     1       1.294  -0.504   0.780  0.00  0.00    +0.001 A 
ATOM      5  C   UNL     1       0.913   0.131  -0.388  0.00  0.00    +0.004 A 
ATOM      6  C   UNL     1       1.428  -0.283  -1.600  0.00  0.00    +0.046 A 
ATOM      7  C   UNL     1       2.333  -1.334  -1.646  0.00  0.00    +0.122 A 
BRANCH   7   8
ATOM      8  O   UNL     1       2.846  -1.740  -2.837  0.00  0.00    -0.506 OA
ATOM      9  H   UNL     1       2.325  -2.426  -3.276  0.00  0.00    +0.292 HD
ENDBRANCH   7   8
ENDBRANCH   1   2
BRANCH   1  10
ATOM     10  C   UNL     1       5.094  -2.577  -0.567  0.00  0.00    +0.239 C 
ATOM     11  O   UNL     1       5.920  -2.964   0.232  0.00  0.00    -0.273 OA
ATOM     12  N   UNL     1       5.433  -1.663  -1.498  0.00  0.00    -0.308 N 
ATOM     13  H   UNL     1       4.758  -1.310  -2.099  0.00  0.00    +0.149 HD
BRANCH  12  14
ATOM     14  C   UNL     1       6.820  -1.204  -1.602  0.00  0.00    +0.030 C 
ATOM     15  C   UNL     1       7.133  -0.262  -0.438  0.00  0.00    +0.031 C 
ATOM     16  C   UNL     1       7.762  -2.408  -1.551  0.00  0.00    +0.031 C 
BRANCH  14  17
ATOM     17  C   UNL     1       7.013  -0.461  -2.925  0.00  0.00    +0.031 C 
BRANCH  17  18
ATOM     18  C   UNL     1       6.412  -1.285  -4.065  0.00  0.00    -0.036 C 
ATOM     19  C   UNL     1       4.889  -1.140  -4.051  0.00  0.00    +0.010 C 
ATOM     20  C   UNL     1       6.960  -0.782  -5.402  0.00  0.00    +0.010 C 
ATOM     21  C   UNL     1       6.786  -2.758  -3.882  0.00  0.00    +0.010 C 
ENDBRANCH  17  18
ENDBRANCH  14  17
ENDBRANCH  12  14
ENDBRANCH   1  10
BRANCH   1  22
ATOM     22  N   UNL     1       3.525  -3.949   0.676  0.00  0.00    -0.274 N 
ATOM     23  C   UNL     1       2.345  -4.552   0.921  0.00  0.00    +0.252 C 
ATOM     24  O   UNL     1       2.147  -5.088   1.995  0.00  0.00    -0.270 OA
BRANCH  23  25
ATOM     25  C   UNL     1       1.292  -4.563  -0.113  0.00  0.00    +0.082 A 
ATOM     26  C   UNL     1       1.478  -3.867  -1.311  0.00  0.00    +0.017 A 
ATOM     27  C   UNL     1       0.494  -3.880  -2.275  0.00  0.00    +0.005 A 
ATOM     28  C   UNL     1      -0.684  -4.579  -2.063  0.00  0.00    +0.049 A 
ATOM     29  C   UNL     1      -0.883  -5.272  -0.881  0.00  0.00    +0.159 A 
ATOM     30  C   UNL     1       0.105  -5.274   0.099  0.00  0.00    +0.171 A 
BRANCH  30  31
ATOM     31  O   UNL     1      -0.084  -5.957   1.257  0.00  0.00    -0.503 OA
ATOM     32  H   UNL     1      -0.503  -5.437   1.956  0.00  0.00    +0.292 HD
ENDBRANCH  30  31
BRANCH  29  33
ATOM     33  O   UNL     1      -2.041  -5.955  -0.681  0.00  0.00    -0.503 OA
ATOM     34  H   UNL     1      -2.014  -6.873  -0.984  0.00  0.00    +0.292 HD
ENDBRANCH  29  33
ENDBRANCH  23  25
BRANCH  22  35
ATOM     35  C   UNL     1       4.644  -4.123   1.605  0.00  0.00    +0.183 C 
BRANCH  35  40
ATOM     36  C   UNL     1       6.095  -8.931   1.132  0.00  0.00    +0.086 C 
ATOM     37  C   UNL     1       6.072  -7.430   1.003  0.00  0.00    +0.102 A 
ATOM     38  C   UNL     1       6.979  -6.682   0.349  0.00  0.00    +0.045 A 
ATOM     39  C   UNL     1       6.573  -5.335   0.481  0.00  0.00    +0.046 A 
ATOM     40  C   UNL     1       5.441  -5.339   1.208  0.00  0.00    +0.122 A 
ATOM     41  O   UNL     1       5.139  -6.611   1.517  0.00  0.00    -0.463 OA
ENDBRANCH  35  40
ENDBRANCH  22  35
ENDBRANCH   1  22
TORSDOF 12
