REMARK  Name = ZINC06871412
REMARK  10 active torsions:
REMARK  status: ('A' for Active; 'I' for Inactive)
REMARK    1  A    between atoms: C_1  and  N_57
REMARK    2  A    between atoms: C_2  and  N_57
REMARK    3  A    between atoms: C_3  and  C_4
REMARK    4  A    between atoms: C_3  and  N_57
REMARK    5  A    between atoms: C_4  and  C_5
REMARK    6  A    between atoms: C_5  and  N_6
REMARK    7  A    between atoms: C_7  and  C_22
REMARK    8  A    between atoms: C_25  and  N_28
REMARK    9  A    between atoms: N_28  and  C_29
REMARK   10  A    between atoms: N_28  and  C_30
REMARK                            x       y       z     vdW  Elec       q    Type
REMARK                         _______ _______ _______ _____ _____    ______ ____
ROOT
ATOM      1  N   UNL     1      -1.256   3.276   0.912  0.00  0.00    -0.284 N 
ATOM      2  C   UNL     1      -1.333   2.113   0.020  0.00  0.00    +0.144 C 
ATOM      3  C   UNL     1      -1.633   2.660  -1.351  0.00  0.00    +0.072 A 
ATOM      4  C   UNL     1      -1.827   2.019  -2.655  0.00  0.00    +0.199 A 
ATOM      5  O   UNL     1      -1.758   0.810  -2.791  0.00  0.00    -0.287 OA
ATOM      6  C   UNL     1      -2.111   2.912  -3.796  0.00  0.00    +0.064 A 
ATOM      7  C   UNL     1      -2.313   2.409  -5.080  0.00  0.00    +0.015 A 
ATOM      8  C   UNL     1      -2.572   3.271  -6.110  0.00  0.00    +0.001 A 
ATOM      9  C   UNL     1      -2.636   4.638  -5.882  0.00  0.00    +0.004 A 
ATOM     10  C   UNL     1      -2.439   5.152  -4.619  0.00  0.00    +0.047 A 
ATOM     11  C   UNL     1      -2.173   4.295  -3.555  0.00  0.00    +0.139 A 
ATOM     12  O   UNL     1      -1.978   4.781  -2.316  0.00  0.00    -0.450 OA
ATOM     13  C   UNL     1      -1.717   4.008  -1.243  0.00  0.00    +0.199 A 
ATOM     14  C   UNL     1      -1.480   4.378   0.175  0.00  0.00    +0.283 C 
ATOM     15  O   UNL     1      -1.487   5.513   0.608  0.00  0.00    -0.267 OA
ENDROOT
BRANCH   2  16
ATOM     16  C   UNL     1      -0.017   1.379   0.010  0.00  0.00    -0.022 A 
ATOM     17  C   UNL     1       1.169   2.089   0.002  0.00  0.00    +0.007 A 
ATOM     18  C   UNL     1       2.377   1.420  -0.013  0.00  0.00    +0.023 A 
ATOM     19  C   UNL     1       2.400   0.031  -0.021  0.00  0.00    +0.029 A 
ATOM     20  C   UNL     1       1.206  -0.680  -0.013  0.00  0.00    +0.023 A 
ATOM     21  C   UNL     1       0.002  -0.004   0.002  0.00  0.00    +0.007 A 
BRANCH  19  22
ATOM     22  N   UNL     1       3.620  -0.649  -0.036  0.00  0.00    -0.336 N 
ATOM     23  C   UNL     1       3.641  -2.114  -0.043  0.00  0.00    +0.129 C 
ATOM     24  C   UNL     1       4.877   0.102  -0.044  0.00  0.00    +0.129 C 
ENDBRANCH  19  22
ENDBRANCH   2  16
BRANCH   1  25
ATOM     25  C   UNL     1      -0.984   3.242   2.351  0.00  0.00    +0.107 C 
BRANCH  25  26
ATOM     26  C   UNL     1       0.524   3.340   2.587  0.00  0.00    +0.000 C 
BRANCH  26  27
ATOM     27  C   UNL     1       0.808   3.304   4.090  0.00  0.00    -0.078 C 
BRANCH  27  30
ATOM     28  C   UNL     1       2.554   3.605   5.741  0.00  0.00    -0.097 C 
ATOM     29  C   UNL     1       2.948   2.208   3.803  0.00  0.00    -0.097 C 
ATOM     30  N   UNL     1       2.266   3.421   4.303  0.00  0.00    +0.376 N 
ATOM     31  H   UNL     1       2.614   4.236   3.786  0.00  0.00    -0.083 HD
ENDBRANCH  27  30
ENDBRANCH  26  27
ENDBRANCH  25  26
ENDBRANCH   1  25
TORSDOF 6
