REMARK  Name = ZINC06291869
REMARK  5 active torsions:
REMARK  status: ('A' for Active; 'I' for Inactive)
REMARK    1  A    between atoms: C_1  and  C_2
REMARK    2  A    between atoms: C_15  and  C_17
REMARK    3  A    between atoms: C_17  and  C_19
REMARK    4  A    between atoms: C_17  and  S_20
REMARK    5  A    between atoms: S_20  and  C_21
REMARK                            x       y       z     vdW  Elec       q    Type
REMARK                         _______ _______ _______ _____ _____    ______ ____
ROOT
ATOM      1  C   UNL     1      14.579  -1.990   1.165  0.00  0.00    +0.008 C 
ATOM      2  C   UNL     1      13.054  -1.880   1.191  0.00  0.00    -0.009 C 
ATOM      3  C   UNL     1      12.472  -2.493  -0.086  0.00  0.00    +0.008 C 
ATOM      4  C   UNL     1      10.953  -2.616   0.042  0.00  0.00    +0.037 C 
ATOM      5  C   UNL     1      10.382  -1.258   0.439  0.00  0.00    -0.023 A 
ATOM      6  C   UNL     1      11.174  -0.307   0.976  0.00  0.00    -0.004 A 
ATOM      7  S   UNL     1      10.101   1.073   1.270  0.00  0.00    -0.073 S 
ATOM      8  C   UNL     1       8.588   0.366   0.670  0.00  0.00    +0.116 A 
ATOM      9  C   UNL     1       8.970  -0.922   0.261  0.00  0.00    +0.075 A 
ATOM     10  C   UNL     1       7.922  -1.738  -0.279  0.00  0.00    +0.260 A 
ATOM     11  O   UNL     1       8.154  -2.871  -0.662  0.00  0.00    -0.267 OA
ATOM     12  N   UNL     1       6.677  -1.230  -0.356  0.00  0.00    -0.309 N 
ATOM     13  H   UNL     1       5.941  -1.794  -0.732  0.00  0.00    +0.170 HD
ATOM     14  C   UNL     1       6.401   0.030   0.065  0.00  0.00    +0.124 A 
ATOM     15  N   UNL     1       7.335   0.799   0.557  0.00  0.00    -0.225 NA
ATOM     16  C   UNL     1      12.642  -0.402   1.260  0.00  0.00    +0.046 C 
ENDROOT
BRANCH  14  17
ATOM     17  C   UNL     1       4.992   0.554  -0.043  0.00  0.00    +0.117 C 
ATOM     18  C   UNL     1       4.840   1.344  -1.344  0.00  0.00    +0.027 C 
BRANCH  17  19
ATOM     19  S   UNL     1       3.830  -0.833  -0.039  0.00  0.00    -0.075 S 
BRANCH  19  20
ATOM     20  C   UNL     1       2.303   0.046  -0.020  0.00  0.00    +0.189 A 
ATOM     21  N   UNL     1       1.165  -0.634  -0.013  0.00  0.00    -0.230 NA
ATOM     22  C   UNL     1       0.002  -0.004   0.002  0.00  0.00    +0.115 A 
ATOM     23  C   UNL     1      -0.017   1.382   0.010  0.00  0.00    +0.039 A 
ATOM     24  C   UNL     1       1.192   2.061   0.002  0.00  0.00    +0.115 A 
ATOM     25  N   UNL     1       2.320   1.371  -0.013  0.00  0.00    -0.230 NA
ENDBRANCH  19  20
ENDBRANCH  17  19
ENDBRANCH  14  17
TORSDOF 3
