REMARK  Name = ZINC40060446
REMARK  6 active torsions:
REMARK  status: ('A' for Active; 'I' for Inactive)
REMARK    1  A    between atoms: C_6  and  C_7
REMARK    2  A    between atoms: C_11  and  C_15
REMARK    3  A    between atoms: C_15  and  S_16
REMARK    4  A    between atoms: S_16  and  C_17
REMARK    5  A    between atoms: N_18  and  C_19
REMARK    6  A    between atoms: C_19  and  C_20
REMARK                            x       y       z     vdW  Elec       q    Type
REMARK                         _______ _______ _______ _____ _____    ______ ____
ROOT
ATOM      1  C   UNL     1      -1.252  -0.757   0.010  0.00  0.00    -0.015 C 
ATOM      2  C   UNL     1      -1.620  -1.549  -1.050  0.00  0.00    +0.075 C 
ATOM      3  C   UNL     1      -2.899  -2.266  -0.947  0.00  0.00    +0.112 C 
ATOM      4  N   UNL     1      -3.312  -3.040  -1.925  0.00  0.00    -0.227 NA
ATOM      5  C   UNL     1      -2.595  -3.199  -3.026  0.00  0.00    +0.134 C 
ATOM      6  N   UNL     1      -1.441  -2.608  -3.225  0.00  0.00    -0.160 NA
ATOM      7  C   UNL     1      -0.885  -1.790  -2.326  0.00  0.00    +0.272 C 
ATOM      8  O   UNL     1       0.191  -1.256  -2.542  0.00  0.00    -0.268 OA
ATOM      9  S   UNL     1      -3.555  -1.811   0.638  0.00  0.00    -0.100 S 
ATOM     10  C   UNL     1      -2.196  -0.702   1.189  0.00  0.00    +0.112 C 
ENDROOT
BRANCH   1  16
ATOM     11  C   UNL     1      -0.017   1.399   0.010  0.00  0.00    +0.009 A 
ATOM     12  C   UNL     1       1.168   2.099   0.002  0.00  0.00    +0.020 A 
ATOM     13  C   UNL     1       2.378   1.423  -0.013  0.00  0.00    +0.041 A 
ATOM     14  C   UNL     1       2.407   0.036  -0.021  0.00  0.00    +0.020 A 
ATOM     15  C   UNL     1       1.232  -0.681  -0.014  0.00  0.00    +0.009 A 
ATOM     16  C   UNL     1       0.002  -0.004   0.002  0.00  0.00    -0.020 A 
ATOM     17 CL   UNL     1       3.867   2.316  -0.024  0.00  0.00    -0.084 Cl
ENDBRANCH   1  16
BRANCH   5  18
ATOM     18  C   UNL     1      -3.132  -4.103  -4.105  0.00  0.00    +0.150 C 
BRANCH  18  19
ATOM     19  S   UNL     1      -1.966  -4.144  -5.495  0.00  0.00    -0.085 S 
BRANCH  19  20
ATOM     20  C   UNL     1      -2.727  -5.228  -6.657  0.00  0.00    +0.126 C 
ATOM     21  N   UNL     1      -2.139  -5.483  -7.793  0.00  0.00    -0.364 N 
ATOM     22  N   UNL     1      -3.941  -5.806  -6.366  0.00  0.00    -0.339 N 
ATOM     23  H   UNL     1      -4.379  -5.617  -5.522  0.00  0.00    +0.144 HD
ATOM     24  H   UNL     1      -4.360  -6.403  -7.006  0.00  0.00    +0.144 HD
ATOM     25  H   UNL     1      -1.283  -5.076  -7.998  0.00  0.00    +0.161 HD
BRANCH  21  26
ATOM     26  C   UNL     1      -2.771  -6.384  -8.759  0.00  0.00    +0.159 C 
BRANCH  26  27
ATOM     27  C   UNL     1      -1.880  -6.511  -9.997  0.00  0.00    +0.195 C 
ATOM     28  C   UNL     1      -2.553  -7.396 -11.075  0.00  0.00    +0.076 C 
ATOM     29  C   UNL     1      -2.158  -6.676 -12.354  0.00  0.00    +0.014 C 
ATOM     30  C   UNL     1      -1.726  -5.481 -12.014  0.00  0.00    +0.183 C 
ATOM     31  O   UNL     1      -1.766  -5.248 -10.682  0.00  0.00    -0.495 OA
ENDBRANCH  26  27
ENDBRANCH  21  26
ENDBRANCH  19  20
ENDBRANCH  18  19
ENDBRANCH   5  18
TORSDOF 6
