REMARK  Name = ZINC13794602
REMARK  11 active torsions:
REMARK  status: ('A' for Active; 'I' for Inactive)
REMARK    1  A    between atoms: C_1  and  C_2
REMARK    2  A    between atoms: C_2  and  O_3
REMARK    3  A    between atoms: O_3  and  C_4
REMARK    4  A    between atoms: C_4  and  C_5
REMARK    5  A    between atoms: C_5  and  N_6
REMARK    6  A    between atoms: C_10  and  S_29
REMARK    7  A    between atoms: N_15  and  C_16
REMARK    8  A    between atoms: C_16  and  C_18
REMARK    9  A    between atoms: N_24  and  S_25
REMARK   10  A    between atoms: S_25  and  C_28
REMARK   11  A    between atoms: S_29  and  N_32
REMARK                            x       y       z     vdW  Elec       q    Type
REMARK                         _______ _______ _______ _____ _____    ______ ____
ROOT
ATOM      1  N   UNL     1      -4.190  -3.105   2.861  0.00  0.00    -0.319 N 
ATOM      2  C   UNL     1      -5.353  -3.343   2.154  0.00  0.00    +0.058 A 
ATOM      3  C   UNL     1      -6.283  -4.380   2.331  0.00  0.00    +0.029 A 
ATOM      4  C   UNL     1      -7.398  -4.468   1.531  0.00  0.00    +0.030 A 
ATOM      5  C   UNL     1      -7.638  -3.542   0.529  0.00  0.00    +0.106 A 
ATOM      6  C   UNL     1      -6.737  -2.510   0.332  0.00  0.00    +0.045 A 
ATOM      7  C   UNL     1      -5.622  -2.421   1.132  0.00  0.00    +0.041 A 
ATOM      8  S   UNL     1      -4.254  -1.294   1.232  0.00  0.00    -0.052 S 
ATOM      9  C   UNL     1      -3.405  -2.041   2.546  0.00  0.00    +0.167 A 
ATOM     10  N   UNL     1      -2.263  -1.660   3.114  0.00  0.00    -0.155 NA
ENDROOT
BRANCH   5  11
ATOM     11  S   UNL     1      -9.074  -3.675  -0.483  0.00  0.00    +0.056 S 
ATOM     12  O   UNL     1      -8.779  -2.999  -1.697  0.00  0.00    -0.153 OA
ATOM     13  O   UNL     1      -9.470  -5.040  -0.448  0.00  0.00    -0.153 OA
BRANCH  11  14
ATOM     14  N   UNL     1     -10.278  -2.814   0.259  0.00  0.00    -0.204 NA
ATOM     15  H   UNL     1     -10.102  -2.359   1.098  0.00  0.00    +0.144 HD
ATOM     16  H   UNL     1     -11.158  -2.763  -0.145  0.00  0.00    +0.144 HD
ENDBRANCH  11  14
ENDBRANCH   5  11
BRANCH  10  17
ATOM     17  C   UNL     1      -1.627  -0.582   2.669  0.00  0.00    +0.257 C 
ATOM     18  O   UNL     1      -2.089   0.058   1.743  0.00  0.00    -0.272 OA
BRANCH  17  19
ATOM     19  C   UNL     1      -0.334  -0.151   3.311  0.00  0.00    +0.167 C 
ATOM     20  C   UNL     1      -0.538   1.186   4.023  0.00  0.00    +0.030 C 
ATOM     21  C   UNL     1       0.806   1.690   4.552  0.00  0.00    +0.003 C 
ATOM     22  C   UNL     1       1.768   1.906   3.382  0.00  0.00    +0.017 C 
ATOM     23  C   UNL     1       2.001   0.573   2.664  0.00  0.00    +0.110 C 
ATOM     24  N   UNL     1       0.700   0.010   2.279  0.00  0.00    -0.169 NA
BRANCH  24  25
ATOM     25  S   UNL     1       0.401  -0.429   0.711  0.00  0.00    +0.030 S 
ATOM     26  O   UNL     1      -0.554  -1.478   0.803  0.00  0.00    -0.158 OA
ATOM     27  O   UNL     1       1.685  -0.665   0.149  0.00  0.00    -0.158 OA
ATOM     28  C   UNL     1      -0.353   1.036  -0.048  0.00  0.00    +0.215 C 
ENDBRANCH  24  25
ENDBRANCH  17  19
ENDBRANCH  10  17
BRANCH   1  29
ATOM     29  C   UNL     1      -3.802  -4.001   3.954  0.00  0.00    +0.152 C 
BRANCH  29  30
ATOM     30  C   UNL     1      -4.402  -3.494   5.267  0.00  0.00    +0.181 C 
BRANCH  30  31
ATOM     31  O   UNL     1      -4.023  -4.368   6.332  0.00  0.00    -0.378 OA
BRANCH  31  33
ATOM     32  C   UNL     1      -4.069  -4.984   8.669  0.00  0.00    +0.034 C 
ATOM     33  C   UNL     1      -4.535  -3.982   7.610  0.00  0.00    +0.156 C 
ENDBRANCH  31  33
ENDBRANCH  30  31
ENDBRANCH  29  30
ENDBRANCH   1  29
TORSDOF 9
