REMARK  Name = ZINC19973338
REMARK  13 active torsions:
REMARK  status: ('A' for Active; 'I' for Inactive)
REMARK    1  A    between atoms: C_1  and  C_2
REMARK    2  A    between atoms: C_2  and  O_3
REMARK    3  A    between atoms: O_3  and  C_4
REMARK    4  A    between atoms: C_11  and  C_16
REMARK    5  A    between atoms: C_16  and  C_18
REMARK    6  A    between atoms: C_16  and  N_27
REMARK    7  A    between atoms: N_22  and  C_23
REMARK    8  A    between atoms: C_23  and  C_24
REMARK    9  A    between atoms: C_23  and  C_25
REMARK   10  A    between atoms: C_23  and  C_26
REMARK   11  A    between atoms: N_30  and  C_33
REMARK   12  A    between atoms: C_38  and  O_39
REMARK   13  A    between atoms: O_39  and  C_40
REMARK                            x       y       z     vdW  Elec       q    Type
REMARK                         _______ _______ _______ _____ _____    ______ ____
ROOT
ATOM      1  C   UNL     1       2.205   1.588  -0.319  0.00  0.00    +0.162 C 
ENDROOT
BRANCH   1   9
ATOM      2  C   UNL     1      -1.276   5.727  -3.348  0.00  0.00    +0.121 A 
ATOM      3  C   UNL     1      -2.026   6.128  -2.245  0.00  0.00    +0.047 A 
ATOM      4  C   UNL     1      -1.812   5.562  -1.008  0.00  0.00    +0.030 A 
ATOM      5  C   UNL     1      -0.829   4.591  -0.849  0.00  0.00    +0.049 A 
ATOM      6  C   UNL     1      -0.066   4.186  -1.960  0.00  0.00    +0.002 A 
ATOM      7  C   UNL     1      -0.299   4.761  -3.213  0.00  0.00    +0.055 A 
ATOM      8  C   UNL     1       0.963   3.160  -1.779  0.00  0.00    +0.021 A 
ATOM      9  C   UNL     1       1.151   2.642  -0.540  0.00  0.00    +0.042 A 
ATOM     10  C   UNL     1       0.362   3.085   0.543  0.00  0.00    +0.254 A 
ATOM     11  O   UNL     1       0.548   2.606   1.648  0.00  0.00    -0.268 OA
ATOM     12  N   UNL     1      -0.588   4.023   0.386  0.00  0.00    -0.322 N 
ATOM     13  H   UNL     1      -1.178   4.337   1.260  0.00  0.00    +0.169 HD
BRANCH   2  14
ATOM     14  O   UNL     1      -1.508   6.289  -4.564  0.00  0.00    -0.492 OA
BRANCH  14  16
ATOM     15  C   UNL     1      -2.648   7.796  -6.072  0.00  0.00    +0.048 C 
ATOM     16  C   UNL     1      -2.533   7.282  -4.635  0.00  0.00    +0.225 C 
ENDBRANCH  14  16
ENDBRANCH   2  14
ENDBRANCH   1   9
BRANCH   1  17
ATOM     17  N   UNL     1       3.182   2.071   0.665  0.00  0.00    -0.286 NA
ATOM     18  C   UNL     1       3.779   3.343   0.233  0.00  0.00    +0.104 C 
ATOM     19  C   UNL     1       4.730   3.852   1.319  0.00  0.00    +0.120 C 
ATOM     20  N   UNL     1       5.769   2.843   1.569  0.00  0.00    -0.325 N 
ATOM     21  C   UNL     1       5.172   1.572   2.001  0.00  0.00    +0.120 C 
ATOM     22  C   UNL     1       4.221   1.063   0.915  0.00  0.00    +0.104 C 
BRANCH  20  23
ATOM     23  C   UNL     1       6.700   3.304   2.507  0.00  0.00    +0.072 A 
ATOM     24  C   UNL     1       6.453   4.470   3.217  0.00  0.00    +0.027 A 
ATOM     25  C   UNL     1       7.372   4.920   4.146  0.00  0.00    +0.002 A 
ATOM     26  C   UNL     1       8.543   4.217   4.363  0.00  0.00    +0.004 A 
ATOM     27  C   UNL     1       8.798   3.057   3.655  0.00  0.00    +0.047 A 
ATOM     28  C   UNL     1       7.880   2.596   2.725  0.00  0.00    +0.141 A 
BRANCH  28  29
ATOM     29  O   UNL     1       8.130   1.456   2.027  0.00  0.00    -0.493 OA
ATOM     30  C   UNL     1       9.361   0.783   2.304  0.00  0.00    +0.277 C 
ENDBRANCH  28  29
ENDBRANCH  20  23
ENDBRANCH   1  17
BRANCH   1  31
ATOM     31  C   UNL     1       2.905   1.297  -1.622  0.00  0.00    +0.174 A 
ATOM     32  N   UNL     1       3.756   2.076  -2.244  0.00  0.00    -0.111 NA
ATOM     33  N   UNL     1       4.133   1.476  -3.320  0.00  0.00    -0.023 NA
ATOM     34  N   UNL     1       3.544   0.334  -3.400  0.00  0.00    -0.043 NA
ATOM     35  N   UNL     1       2.783   0.184  -2.369  0.00  0.00    -0.222 N 
BRANCH  35  36
ATOM     36  C   UNL     1       1.940  -0.977  -2.070  0.00  0.00    +0.059 C 
ATOM     37  C   UNL     1       0.495  -0.519  -1.864  0.00  0.00    +0.036 C 
ATOM     38  C   UNL     1       2.001  -1.965  -3.237  0.00  0.00    +0.036 C 
ATOM     39  C   UNL     1       2.446  -1.659  -0.797  0.00  0.00    +0.036 C 
ENDBRANCH  35  36
ENDBRANCH   1  31
TORSDOF 8
