REMARK  Name = ZINC14015095
REMARK  9 active torsions:
REMARK  status: ('A' for Active; 'I' for Inactive)
REMARK    1  A    between atoms: C_1  and  C_2
REMARK    2  A    between atoms: C_5  and  N_8
REMARK    3  A    between atoms: C_20  and  C_22
REMARK    4  A    between atoms: C_22  and  C_23
REMARK    5  A    between atoms: N_25  and  C_26
REMARK    6  A    between atoms: C_26  and  C_28
REMARK    7  A    between atoms: C_26  and  C_29
REMARK    8  A    between atoms: C_29  and  C_30
REMARK    9  A    between atoms: C_30  and  C_31
REMARK                            x       y       z     vdW  Elec       q    Type
REMARK                         _______ _______ _______ _____ _____    ______ ____
ROOT
ATOM      1  N   UNL     1       1.081   3.832  -0.399  0.00  0.00    -0.214 N 
ATOM      2  C   UNL     1       1.982   4.538   0.338  0.00  0.00    +0.171 A 
ATOM      3  C   UNL     1       1.706   5.898   0.121  0.00  0.00    +0.103 A 
ATOM      4  C   UNL     1       0.605   5.959  -0.761  0.00  0.00    +0.150 A 
ATOM      5  N   UNL     1       0.246   4.742  -1.060  0.00  0.00    -0.172 NA
ATOM      6  C   UNL     1       2.503   6.866   0.768  0.00  0.00    +0.266 A 
ATOM      7  O   UNL     1       2.280   8.052   0.600  0.00  0.00    -0.267 OA
ATOM      8  N   UNL     1       3.530   6.469   1.588  0.00  0.00    -0.283 N 
ATOM      9  C   UNL     1       3.730   5.127   1.736  0.00  0.00    +0.174 A 
ATOM     10  N   UNL     1       2.999   4.211   1.141  0.00  0.00    -0.203 NA
ATOM     11  S   UNL     1       5.112   4.933   2.842  0.00  0.00    -0.085 S 
ATOM     12  C   UNL     1       5.488   6.696   3.160  0.00  0.00    +0.103 C 
ATOM     13  C   UNL     1       4.415   7.386   2.306  0.00  0.00    +0.112 C 
ENDROOT
BRANCH   1  18
ATOM     14  C   UNL     1       0.747  -1.824  -0.719  0.00  0.00    +0.044 C 
ATOM     15  C   UNL     1       0.835  -0.322  -0.634  0.00  0.00    -0.050 A 
ATOM     16  C   UNL     1      -0.318   0.441  -0.671  0.00  0.00    +0.005 A 
ATOM     17  C   UNL     1      -0.240   1.817  -0.593  0.00  0.00    +0.028 A 
ATOM     18  C   UNL     1       0.998   2.436  -0.478  0.00  0.00    +0.068 A 
ATOM     19  C   UNL     1       2.154   1.667  -0.440  0.00  0.00    +0.028 A 
ATOM     20  C   UNL     1       2.070   0.291  -0.519  0.00  0.00    +0.005 A 
ENDBRANCH   1  18
BRANCH  13  21
ATOM     21  C   UNL     1       3.562   8.269   3.218  0.00  0.00    +0.121 C 
BRANCH  21  22
ATOM     22  C   UNL     1       4.432   9.321   3.855  0.00  0.00    +0.215 C 
ATOM     23  O   UNL     1       5.593   9.431   3.522  0.00  0.00    -0.276 OA
ATOM     24  N   UNL     1       3.920  10.141   4.795  0.00  0.00    -0.313 N 
ATOM     25  H   UNL     1       2.992  10.053   5.062  0.00  0.00    +0.149 HD
BRANCH  24  26
ATOM     26  C   UNL     1       4.766  11.164   5.415  0.00  0.00    +0.070 C 
ATOM     27  C   UNL     1       5.540  10.548   6.582  0.00  0.00    +0.028 C 
BRANCH  26  28
ATOM     28  C   UNL     1       3.890  12.307   5.930  0.00  0.00    +0.026 C 
BRANCH  28  29
ATOM     29  C   UNL     1       3.212  13.003   4.748  0.00  0.00    +0.037 C 
BRANCH  29  30
ATOM     30  C   UNL     1       2.349  14.129   5.256  0.00  0.00    -0.047 A 
ATOM     31  C   UNL     1       1.024  13.895   5.572  0.00  0.00    +0.003 A 
ATOM     32  C   UNL     1       0.233  14.927   6.043  0.00  0.00    +0.000 A 
ATOM     33  C   UNL     1       0.764  16.195   6.186  0.00  0.00    +0.000 A 
ATOM     34  C   UNL     1       2.088  16.430   5.865  0.00  0.00    +0.000 A 
ATOM     35  C   UNL     1       2.880  15.397   5.399  0.00  0.00    +0.003 A 
ENDBRANCH  29  30
ENDBRANCH  28  29
ENDBRANCH  26  28
ENDBRANCH  24  26
ENDBRANCH  21  22
ENDBRANCH  13  21
TORSDOF 7
