REMARK  Name = ZINC11664129
REMARK  9 active torsions:
REMARK  status: ('A' for Active; 'I' for Inactive)
REMARK    1  A    between atoms: C_1  and  C_2
REMARK    2  A    between atoms: C_4  and  C_29
REMARK    3  A    between atoms: C_6  and  C_8
REMARK    4  A    between atoms: C_8  and  C_9
REMARK    5  A    between atoms: C_9  and  N_53
REMARK    6  A    between atoms: C_10  and  C_11
REMARK    7  A    between atoms: C_10  and  N_53
REMARK    8  A    between atoms: C_16  and  C_17
REMARK    9  A    between atoms: C_20  and  C_23
REMARK                            x       y       z     vdW  Elec       q    Type
REMARK                         _______ _______ _______ _____ _____    ______ ____
ROOT
ATOM      1  C   UNL     1      -0.026   1.339   0.052  0.00  0.00    -0.019 A 
ATOM      2  C   UNL     1      -0.023  -0.012   0.052  0.00  0.00    +0.107 A 
ATOM      3  N   UNL     1       1.260  -0.426  -0.024  0.00  0.00    -0.284 N 
ATOM      4  H   UNL     1       1.570  -1.377  -0.042  0.00  0.00    +0.188 HD
ATOM      5  N   UNL     1       2.082   0.707  -0.072  0.00  0.00    -0.174 NA
ATOM      6  C   UNL     1       1.312   1.774  -0.027  0.00  0.00    +0.094 A 
ENDROOT
BRANCH   6   7
ATOM      7  C   UNL     1       1.771   3.184  -0.055  0.00  0.00    +0.002 A 
ATOM      8  C   UNL     1       2.783   3.571  -0.932  0.00  0.00    +0.010 A 
ATOM      9  C   UNL     1       3.207   4.881  -0.961  0.00  0.00    +0.009 A 
ATOM     10  C   UNL     1       2.630   5.819  -0.105  0.00  0.00    -0.018 A 
ATOM     11  C   UNL     1       1.621   5.431   0.776  0.00  0.00    +0.009 A 
ATOM     12  C   UNL     1       1.194   4.122   0.801  0.00  0.00    +0.010 A 
BRANCH  10  13
ATOM     13  C   UNL     1       3.089   7.229  -0.133  0.00  0.00    -0.018 A 
ATOM     14  C   UNL     1       2.510   8.170   0.717  0.00  0.00    +0.008 A 
ATOM     15  C   UNL     1       2.945   9.480   0.690  0.00  0.00    +0.001 A 
ATOM     16  C   UNL     1       3.946   9.861  -0.185  0.00  0.00    +0.000 A 
ATOM     17  C   UNL     1       4.520   8.933  -1.034  0.00  0.00    +0.001 A 
ATOM     18  C   UNL     1       4.097   7.620  -1.013  0.00  0.00    +0.008 A 
ENDBRANCH  10  13
ENDBRANCH   6   7
BRANCH   1  19
ATOM     19  C   UNL     1      -1.244   2.224   0.118  0.00  0.00    -0.043 C 
BRANCH  19  20
ATOM     20  N   UNL     1      -1.487   2.812  -1.213  0.00  0.00    +0.382 N 
ATOM     21  H   UNL     1      -0.642   3.304  -1.526  0.00  0.00    -0.085 HD
ATOM     22  H   UNL     1      -1.713   2.063  -1.878  0.00  0.00    -0.085 HD
BRANCH  20  23
ATOM     23  C   UNL     1      -2.611   3.765  -1.154  0.00  0.00    -0.074 C 
BRANCH  23  24
ATOM     24  C   UNL     1      -2.839   4.358  -2.546  0.00  0.00    +0.057 C 
BRANCH  24  30
ATOM     25  C   UNL     1      -4.429   8.933  -1.875  0.00  0.00    +0.066 C 
ATOM     26  C   UNL     1      -4.721   7.486  -2.178  0.00  0.00    +0.042 A 
ATOM     27  C   UNL     1      -6.022   7.065  -2.404  0.00  0.00    +0.055 A 
ATOM     28  C   UNL     1      -6.242   5.724  -2.678  0.00  0.00    +0.147 A 
ATOM     29  N   UNL     1      -5.210   4.898  -2.720  0.00  0.00    -0.228 NA
ATOM     30  C   UNL     1      -3.986   5.334  -2.495  0.00  0.00    +0.128 A 
ATOM     31  N   UNL     1      -3.739   6.601  -2.231  0.00  0.00    -0.237 NA
BRANCH  28  32
ATOM     32  C   UNL     1      -7.638   5.216  -2.932  0.00  0.00    +0.434 C 
ATOM     33  F   UNL     1      -7.924   5.299  -4.299  0.00  0.00    -0.164 F 
ATOM     34  F   UNL     1      -7.732   3.884  -2.515  0.00  0.00    -0.164 F 
ATOM     35  F   UNL     1      -8.555   5.994  -2.216  0.00  0.00    -0.164 F 
ENDBRANCH  28  32
ENDBRANCH  24  30
ENDBRANCH  23  24
ENDBRANCH  20  23
ENDBRANCH  19  20
ENDBRANCH   1  19
TORSDOF 8
