REMARK  Name = ZINC12634547
REMARK  11 active torsions:
REMARK  status: ('A' for Active; 'I' for Inactive)
REMARK    1  A    between atoms: C_1  and  N_2
REMARK    2  A    between atoms: N_2  and  C_3
REMARK    3  A    between atoms: N_2  and  C_4
REMARK    4  A    between atoms: C_4  and  C_6
REMARK    5  A    between atoms: C_4  and  C_26
REMARK    6  A    between atoms: C_6  and  N_7
REMARK    7  A    between atoms: C_8  and  C_10
REMARK    8  A    between atoms: N_13  and  S_16
REMARK    9  A    between atoms: S_16  and  C_19
REMARK   10  A    between atoms: C_29  and  O_32
REMARK   11  A    between atoms: O_32  and  C_33
REMARK                            x       y       z     vdW  Elec       q    Type
REMARK                         _______ _______ _______ _____ _____    ______ ____
ROOT
ATOM      1  N   UNL     1       0.205  -2.151   0.753  0.00  0.00    -0.316 N 
ATOM      2  C   UNL     1       0.641  -3.422   0.864  0.00  0.00    +0.216 C 
ATOM      3  O   UNL     1       0.254  -4.266   0.085  0.00  0.00    -0.276 OA
ATOM      4  H   UNL     1       0.515  -1.476   1.377  0.00  0.00    +0.149 HD
ENDROOT
BRANCH   2   5
ATOM      5  C   UNL     1       1.610  -3.793   1.957  0.00  0.00    +0.077 C 
ATOM      6  C   UNL     1       2.893  -2.972   1.802  0.00  0.00    +0.030 C 
ATOM      7  C   UNL     1       3.862  -3.327   2.934  0.00  0.00    +0.110 C 
ATOM      8  N   UNL     1       4.073  -4.781   2.938  0.00  0.00    -0.177 NA
ATOM      9  C   UNL     1       2.900  -5.664   2.993  0.00  0.00    +0.110 C 
ATOM     10  C   UNL     1       1.942  -5.284   1.860  0.00  0.00    +0.030 C 
BRANCH   8  11
ATOM     11  S   UNL     1       5.603  -5.412   2.881  0.00  0.00    +0.061 S 
ATOM     12  O   UNL     1       5.482  -6.723   2.346  0.00  0.00    -0.153 OA
ATOM     13  O   UNL     1       6.429  -4.420   2.287  0.00  0.00    -0.153 OA
BRANCH  11  14
ATOM     14  C   UNL     1       6.153  -5.595   4.545  0.00  0.00    +0.106 A 
ATOM     15  C   UNL     1       6.819  -4.558   5.170  0.00  0.00    +0.031 A 
ATOM     16  C   UNL     1       7.250  -4.701   6.476  0.00  0.00    +0.040 A 
ATOM     17  C   UNL     1       7.015  -5.883   7.156  0.00  0.00    +0.124 A 
ATOM     18  C   UNL     1       6.348  -6.922   6.529  0.00  0.00    +0.040 A 
ATOM     19  C   UNL     1       5.913  -6.775   5.225  0.00  0.00    +0.031 A 
ATOM     20  F   UNL     1       7.437  -6.024   8.432  0.00  0.00    -0.205 F 
ENDBRANCH  11  14
ENDBRANCH   8  11
ENDBRANCH   2   5
BRANCH   1  21
ATOM     21  C   UNL     1      -0.737  -1.791  -0.309  0.00  0.00    +0.093 C 
BRANCH  21  22
ATOM     22  C   UNL     1      -1.168  -0.333  -0.135  0.00  0.00    -0.021 C 
BRANCH  22  23
ATOM     23  C   UNL     1      -1.945  -0.188   1.148  0.00  0.00    -0.059 A 
ATOM     24  C   UNL     1      -3.276  -0.557   1.194  0.00  0.00    +0.005 A 
ATOM     25  C   UNL     1      -3.991  -0.425   2.369  0.00  0.00    +0.046 A 
ATOM     26  C   UNL     1      -3.370   0.078   3.503  0.00  0.00    +0.120 A 
ATOM     27  C   UNL     1      -2.034   0.447   3.455  0.00  0.00    +0.046 A 
ATOM     28  C   UNL     1      -1.323   0.308   2.279  0.00  0.00    +0.005 A 
BRANCH  26  29
ATOM     29  O   UNL     1      -4.071   0.210   4.660  0.00  0.00    -0.495 OA
ATOM     30  C   UNL     1      -3.368   0.735   5.788  0.00  0.00    +0.277 C 
ENDBRANCH  26  29
ENDBRANCH  22  23
BRANCH  22  32
ATOM     31  C   UNL     1      -2.469   1.450  -1.076  0.00  0.00    -0.096 C 
ATOM     32  N   UNL     1      -2.014   0.066  -1.268  0.00  0.00    +0.382 N 
ATOM     33  C   UNL     1      -1.242  -0.027  -2.514  0.00  0.00    -0.096 C 
ATOM     34  H   UNL     1      -2.814  -0.547  -1.322  0.00  0.00    -0.082 HD
ENDBRANCH  22  32
ENDBRANCH  21  22
ENDBRANCH   1  21
TORSDOF 8
