REMARK  Name = ZINC62396736
REMARK  8 active torsions:
REMARK  status: ('A' for Active; 'I' for Inactive)
REMARK    1  A    between atoms: C_1  and  C_2
REMARK    2  A    between atoms: C_2  and  C_3
REMARK    3  A    between atoms: C_6  and  C_20
REMARK    4  A    between atoms: C_7  and  C_11
REMARK    5  A    between atoms: C_13  and  C_19
REMARK    6  A    between atoms: C_16  and  O_17
REMARK    7  A    between atoms: O_17  and  C_18
REMARK    8  A    between atoms: C_20  and  O_21
REMARK                            x       y       z     vdW  Elec       q    Type
REMARK                         _______ _______ _______ _____ _____    ______ ____
ROOT
ATOM      1  C   UNL     1       0.694  -0.461   1.256  0.00  0.00    +0.102 A 
ATOM      2  N   UNL     1       1.226   0.206   2.235  0.00  0.00    -0.162 NA
ATOM      3  N   UNL     1       1.891  -0.436   3.274  0.00  0.00    -0.208 N 
ATOM      4  C   UNL     1       2.561  -0.103   4.444  0.00  0.00    +0.097 A 
ATOM      5  C   UNL     1       2.987  -1.257   5.016  0.00  0.00    +0.101 A 
ATOM      6  N   UNL     1       2.596  -2.282   4.230  0.00  0.00    -0.220 NA
ATOM      7  C   UNL     1       1.952  -1.804   3.206  0.00  0.00    +0.196 A 
ATOM      8  S   UNL     1       1.075  -2.148   1.698  0.00  0.00    -0.033 S 
ENDROOT
BRANCH   5   9
ATOM      9  C   UNL     1       3.749  -1.373   6.283  0.00  0.00    +0.044 A 
ATOM     10  C   UNL     1       3.330  -0.680   7.417  0.00  0.00    +0.017 A 
ATOM     11  C   UNL     1       4.043  -0.791   8.594  0.00  0.00    -0.050 A 
ATOM     12  C   UNL     1       5.172  -1.588   8.652  0.00  0.00    +0.007 A 
ATOM     13  C   UNL     1       5.596  -2.279   7.533  0.00  0.00    +0.046 A 
ATOM     14  C   UNL     1       4.888  -2.181   6.346  0.00  0.00    +0.129 A 
ATOM     15  C   UNL     1       3.589  -0.041   9.819  0.00  0.00    +0.044 C 
BRANCH  14  16
ATOM     16  O   UNL     1       5.301  -2.864   5.247  0.00  0.00    -0.494 OA
ATOM     17  C   UNL     1       6.472  -3.671   5.386  0.00  0.00    +0.277 C 
ENDBRANCH  14  16
ENDBRANCH   5   9
BRANCH   1  19
ATOM     18  C   UNL     1      -0.127   1.584   0.118  0.00  0.00    +0.011 C 
ATOM     19  C   UNL     1      -0.057   0.057   0.056  0.00  0.00    +0.061 C 
ENDBRANCH   1  19
BRANCH   4  20
ATOM     20  C   UNL     1       2.776   1.288   4.981  0.00  0.00    +0.213 C 
BRANCH  20  21
ATOM     21  O   UNL     1       1.629   1.690   5.733  0.00  0.00    -0.389 OA
ATOM     22  H   UNL     1       1.698   2.579   6.110  0.00  0.00    +0.210 HD
ENDBRANCH  20  21
ENDBRANCH   4  20
TORSDOF 5
