REMARK  Name = ZINC35380645
REMARK  7 active torsions:
REMARK  status: ('A' for Active; 'I' for Inactive)
REMARK    1  A    between atoms: C_1  and  C_2
REMARK    2  A    between atoms: C_5  and  C_26
REMARK    3  A    between atoms: C_10  and  C_12
REMARK    4  A    between atoms: C_12  and  O_13
REMARK    5  A    between atoms: O_13  and  C_14
REMARK    6  A    between atoms: C_14  and  C_16
REMARK    7  A    between atoms: C_18  and  N_24
REMARK                            x       y       z     vdW  Elec       q    Type
REMARK                         _______ _______ _______ _____ _____    ______ ____
ROOT
ATOM      1  C   UNL     1       2.219   2.025   5.469  0.00  0.00    +0.360 C 
ATOM      2  O   UNL     1       1.056   1.763   5.699  0.00  0.00    -0.243 OA
ENDROOT
BRANCH   1   3
ATOM      3  C   UNL     1       3.022   2.769   6.464  0.00  0.00    +0.169 A 
ATOM      4  C   UNL     1       2.438   3.160   7.666  0.00  0.00    +0.095 A 
ATOM      5  C   UNL     1       3.209   3.861   8.595  0.00  0.00    +0.067 A 
ATOM      6  C   UNL     1       4.537   4.140   8.277  0.00  0.00    +0.100 A 
ATOM      7  C   UNL     1       5.045   3.716   7.059  0.00  0.00    +0.150 A 
ATOM      8  N   UNL     1       4.294   3.052   6.205  0.00  0.00    -0.226 NA
ATOM      9 CL   UNL     1       6.699   4.060   6.656  0.00  0.00    -0.060 Cl
ATOM     10 CL   UNL     1       5.543   5.009   9.393  0.00  0.00    -0.078 Cl
ATOM     11 CL   UNL     1       0.778   2.783   8.004  0.00  0.00    -0.079 Cl
BRANCH   5  12
ATOM     12  N   UNL     1       2.664   4.272   9.810  0.00  0.00    -0.356 N 
ATOM     13  H   UNL     1       1.738   4.072  10.019  0.00  0.00    +0.142 HD
ATOM     14  H   UNL     1       3.211   4.758  10.447  0.00  0.00    +0.142 HD
ENDBRANCH   5  12
ENDBRANCH   1   3
BRANCH   1  15
ATOM     15  O   UNL     1       2.779   1.638   4.306  0.00  0.00    -0.451 OA
BRANCH  15  16
ATOM     16  C   UNL     1       1.946   0.923   3.391  0.00  0.00    +0.328 C 
BRANCH  16  24
ATOM     17  C   UNL     1      -0.019   1.526   0.010  0.00  0.00    +0.009 C 
ATOM     18  C   UNL     1       0.002  -0.004   0.002  0.00  0.00    +0.004 C 
ATOM     19  C   UNL     1       0.720  -0.498  -1.256  0.00  0.00    +0.009 C 
ATOM     20  C   UNL     1       2.145   0.059  -1.285  0.00  0.00    +0.004 C 
ATOM     21  C   UNL     1       2.912  -0.448  -0.060  0.00  0.00    +0.111 C 
ATOM     22  N   UNL     1       2.153  -0.103   1.150  0.00  0.00    -0.298 N 
ATOM     23  C   UNL     1       0.744  -0.512   1.242  0.00  0.00    +0.111 C 
ATOM     24  C   UNL     1       2.738   0.577   2.157  0.00  0.00    +0.253 C 
ATOM     25  O   UNL     1       3.901   0.908   2.069  0.00  0.00    -0.272 OA
ATOM     26  C   UNL     1       2.850  -0.408  -2.559  0.00  0.00    +0.009 C 
ENDBRANCH  16  24
ENDBRANCH  15  16
ENDBRANCH   1  15
TORSDOF 5
