REMARK  Name = ZINC33428995
REMARK  3 active torsions:
REMARK  status: ('A' for Active; 'I' for Inactive)
REMARK    1  A    between atoms: C_1  and  C_2
REMARK    2  A    between atoms: C_5  and  N_8
REMARK    3  A    between atoms: C_33  and  C_35
REMARK                            x       y       z     vdW  Elec       q    Type
REMARK                         _______ _______ _______ _____ _____    ______ ____
ROOT
ATOM      1  N   UNL     1       0.002  -0.004   0.002  0.00  0.00    -0.160 N 
ATOM      2  C   UNL     1      -1.102  -0.784   0.008  0.00  0.00    +0.253 C 
ATOM      3  O   UNL     1      -2.261  -0.427   0.023  0.00  0.00    -0.272 OA
ATOM      4  C   UNL     1      -0.573  -2.199  -0.007  0.00  0.00    +0.112 C 
ATOM      5  C   UNL     1      -1.025  -2.959   1.233  0.00  0.00    +0.061 C 
ATOM      6  C   UNL     1      -0.748  -4.433   1.060  0.00  0.00    -0.024 A 
ATOM      7  C   UNL     1      -0.815  -5.247   2.179  0.00  0.00    +0.020 A 
ATOM      8  C   UNL     1      -0.592  -6.606   2.072  0.00  0.00    +0.018 A 
ATOM      9  C   UNL     1      -0.300  -7.161   0.838  0.00  0.00    +0.017 A 
ATOM     10  C   UNL     1      -0.227  -6.356  -0.278  0.00  0.00    +0.024 A 
ATOM     11  C   UNL     1      -0.446  -4.981  -0.175  0.00  0.00    +0.033 A 
ATOM     12  N   UNL     1      -0.347  -4.222  -1.337  0.00  0.00    -0.322 N 
ATOM     13  C   UNL     1      -1.045  -2.937  -1.255  0.00  0.00    +0.112 C 
ATOM     14  C   UNL     1      -0.735  -2.110  -2.505  0.00  0.00    +0.130 C 
ATOM     15  N   UNL     1      -1.154  -2.861  -3.697  0.00  0.00    -0.313 N 
ATOM     16  C   UNL     1      -0.462  -4.154  -3.777  0.00  0.00    +0.125 C 
ATOM     17  C   UNL     1      -0.770  -4.978  -2.523  0.00  0.00    +0.124 C 
ATOM     18  C   UNL     1      -0.952  -2.115  -4.853  0.00  0.00    +0.099 A 
ATOM     19  C   UNL     1       0.344  -1.831  -5.272  0.00  0.00    +0.042 A 
ATOM     20  C   UNL     1       0.531  -1.088  -6.423  0.00  0.00    +0.005 A 
ATOM     21  C   UNL     1      -0.589  -0.653  -7.120  0.00  0.00    +0.018 A 
ATOM     22  C   UNL     1      -1.846  -0.971  -6.647  0.00  0.00    +0.084 A 
ATOM     23  N   UNL     1      -1.994  -1.687  -5.548  0.00  0.00    -0.350 N 
ATOM     24 BR   UNL     1      -0.688  -7.705   3.607  0.00  0.00    -0.050 Br
ATOM     25  C   UNL     1       0.926  -2.032  -0.019  0.00  0.00    +0.052 C 
ATOM     26  N   UNL     1       1.161  -0.776  -0.019  0.00  0.00    -0.181 NA
ATOM     27  C   UNL     1       1.952  -3.136  -0.035  0.00  0.00    +0.063 C 
ATOM     28  H   UNL     1      -3.014  -1.925  -5.212  0.00  0.00    +0.166 HD
ENDROOT
BRANCH   1  33
ATOM     29  C   UNL     1      -0.075   5.669   0.032  0.00  0.00    +0.044 C 
ATOM     30  C   UNL     1      -0.054   4.162   0.024  0.00  0.00    -0.050 A 
ATOM     31  C   UNL     1       1.153   3.489   0.009  0.00  0.00    +0.005 A 
ATOM     32  C   UNL     1       1.175   2.108   0.002  0.00  0.00    +0.026 A 
ATOM     33  C   UNL     1      -0.017   1.396   0.010  0.00  0.00    +0.060 A 
ATOM     34  C   UNL     1      -1.228   2.075   0.019  0.00  0.00    +0.026 A 
ATOM     35  C   UNL     1      -1.243   3.456   0.032  0.00  0.00    +0.005 A 
ENDBRANCH   1  33
TORSDOF 1
