REMARK  Name = ZINC38871698
REMARK  8 active torsions:
REMARK  status: ('A' for Active; 'I' for Inactive)
REMARK    1  A    between atoms: C_1  and  C_2
REMARK    2  A    between atoms: C_5  and  C_25
REMARK    3  A    between atoms: C_6  and  C_8
REMARK    4  A    between atoms: C_8  and  C_9
REMARK    5  A    between atoms: C_15  and  C_17
REMARK    6  A    between atoms: N_21  and  C_22
REMARK    7  A    between atoms: C_22  and  C_23
REMARK    8  A    between atoms: C_22  and  C_24
REMARK                            x       y       z     vdW  Elec       q    Type
REMARK                         _______ _______ _______ _____ _____    ______ ____
ROOT
ATOM      1  C   UNL     1       1.476  -3.187   2.852  0.00  0.00    +0.225 C 
ATOM      2  O   UNL     1       2.386  -2.846   2.127  0.00  0.00    -0.275 OA
ATOM      3  N   UNL     1       1.736  -3.871   3.984  0.00  0.00    -0.238 N 
ATOM      4  C   UNL     1       3.043  -4.185   4.319  0.00  0.00    +0.315 A 
ATOM      5  N   UNL     1       4.116  -3.875   3.631  0.00  0.00    -0.092 NA
ATOM      6  N   UNL     1       5.158  -4.325   4.236  0.00  0.00    -0.104 NA
ATOM      7  C   UNL     1       4.791  -4.942   5.335  0.00  0.00    +0.268 A 
ATOM      8  O   UNL     1       3.445  -4.860   5.412  0.00  0.00    -0.403 OA
ATOM      9  H   UNL     1       1.008  -4.143   4.564  0.00  0.00    +0.159 HD
ENDROOT
BRANCH   7  10
ATOM     10  C   UNL     1       5.683  -5.596   6.308  0.00  0.00    +0.125 A 
ATOM     11  C   UNL     1       5.299  -6.250   7.461  0.00  0.00    +0.054 A 
ATOM     12  C   UNL     1       6.455  -6.718   8.085  0.00  0.00    +0.135 A 
ATOM     13  N   UNL     1       7.491  -6.376   7.362  0.00  0.00    -0.179 NA
ATOM     14  N   UNL     1       7.044  -5.674   6.236  0.00  0.00    -0.257 N 
BRANCH  14  15
ATOM     15  C   UNL     1       7.886  -5.121   5.172  0.00  0.00    +0.102 C 
ATOM     16  C   UNL     1       8.862  -4.106   5.771  0.00  0.00    +0.032 C 
ATOM     17  C   UNL     1       8.671  -6.251   4.504  0.00  0.00    +0.032 C 
ENDBRANCH  14  15
ENDBRANCH   7  10
BRANCH   1  18
ATOM     18  C   UNL     1       0.054  -2.845   2.489  0.00  0.00    +0.131 C 
BRANCH  18  24
ATOM     19  C   UNL     1      -0.018   1.503   0.010  0.00  0.00    +0.044 C 
ATOM     20  C   UNL     1       0.002  -0.004   0.002  0.00  0.00    -0.050 A 
ATOM     21  C   UNL     1       0.006  -0.689  -1.199  0.00  0.00    +0.003 A 
ATOM     22  C   UNL     1       0.025  -2.071  -1.207  0.00  0.00    +0.004 A 
ATOM     23  C   UNL     1       0.040  -2.768  -0.013  0.00  0.00    -0.047 A 
ATOM     24  C   UNL     1       0.037  -2.084   1.188  0.00  0.00    -0.035 A 
ATOM     25  C   UNL     1       0.023  -0.702   1.195  0.00  0.00    +0.007 A 
ATOM     26  C   UNL     1       0.059  -4.275  -0.021  0.00  0.00    +0.044 C 
ENDBRANCH  18  24
ENDBRANCH   1  18
TORSDOF 4
