REMARK  Name = ZINC01645723
REMARK  3 active torsions:
REMARK  status: ('A' for Active; 'I' for Inactive)
REMARK    1  A    between atoms: N_9  and  C_10
REMARK    2  A    between atoms: C_10  and  C_11
REMARK    3  A    between atoms: C_11  and  O_16
REMARK                            x       y       z     vdW  Elec       q    Type
REMARK                         _______ _______ _______ _____ _____    ______ ____
ROOT
ATOM      1  C   UNL     1       2.333   1.326  -0.013  0.00  0.00    +0.083 A 
ATOM      2  C   UNL     1       1.119   2.014   0.002  0.00  0.00    +0.125 A 
ATOM      3  N   UNL     1      -0.016   1.320   0.009  0.00  0.00    -0.200 NA
ATOM      4  C   UNL     1       0.002  -0.004   0.002  0.00  0.00    +0.216 A 
ATOM      5  N   UNL     1       1.139  -0.684  -0.012  0.00  0.00    -0.203 NA
ATOM      6  C   UNL     1       2.308  -0.057  -0.020  0.00  0.00    +0.136 A 
ATOM      7 CL   UNL     1       3.789  -0.962  -0.039  0.00  0.00    -0.062 Cl
ATOM      8  N   UNL     1      -1.197  -0.695   0.010  0.00  0.00    -0.327 N 
ATOM      9  N   UNL     1       1.096   3.399   0.009  0.00  0.00    -0.326 N 
ATOM     10  H   UNL     1      -2.037  -0.209   0.020  0.00  0.00    +0.145 HD
ATOM     11  H   UNL     1      -1.198  -1.665   0.005  0.00  0.00    +0.145 HD
ATOM     12  H   UNL     1       0.248   3.870   0.020  0.00  0.00    +0.148 HD
ENDROOT
BRANCH   9  13
ATOM     13  C   UNL     1       2.352   4.152   0.002  0.00  0.00    +0.137 C 
BRANCH  13  14
ATOM     14  C   UNL     1       2.048   5.652   0.012  0.00  0.00    +0.081 C 
ATOM     15  C   UNL     1       1.175   6.022  -1.205  0.00  0.00    +0.036 C 
ATOM     16  C   UNL     1       1.700   7.413  -1.640  0.00  0.00    +0.003 C 
ATOM     17  C   UNL     1       3.228   7.286  -1.416  0.00  0.00    +0.003 C 
ATOM     18  C   UNL     1       3.353   6.455  -0.122  0.00  0.00    +0.036 C 
BRANCH  14  19
ATOM     19  O   UNL     1       1.377   6.006   1.223  0.00  0.00    -0.387 OA
ATOM     20  H   UNL     1       0.540   5.540   1.360  0.00  0.00    +0.210 HD
ENDBRANCH  14  19
ENDBRANCH  13  14
ENDBRANCH   9  13
TORSDOF 3
