REMARK  Name = ZINC14021911
REMARK  6 active torsions:
REMARK  status: ('A' for Active; 'I' for Inactive)
REMARK    1  A    between atoms: C_1  and  C_2
REMARK    2  A    between atoms: C_12  and  C_14
REMARK    3  A    between atoms: N_19  and  S_21
REMARK    4  A    between atoms: S_21  and  C_24
REMARK    5  A    between atoms: C_27  and  O_30
REMARK    6  A    between atoms: O_30  and  C_31
REMARK                            x       y       z     vdW  Elec       q    Type
REMARK                         _______ _______ _______ _____ _____    ______ ____
ROOT
ATOM      1  C   UNL     1       1.280   1.980   0.001  0.00  0.00    +0.091 C 
ATOM      2  C   UNL     1       1.340   2.865  -1.247  0.00  0.00    +0.015 C 
ATOM      3  C   UNL     1       2.640   3.673  -1.240  0.00  0.00    +0.018 C 
ATOM      4  C   UNL     1       3.833   2.713  -1.270  0.00  0.00    +0.109 C 
ATOM      5  N   UNL     1       3.706   1.764  -0.155  0.00  0.00    -0.176 NA
ATOM      6  C   UNL     1       2.458   1.001  -0.016  0.00  0.00    +0.122 C 
ENDROOT
BRANCH   1  18
ATOM      7  C   UNL     1      -6.442   2.617   0.048  0.00  0.00    +0.047 C 
ATOM      8  C   UNL     1      -6.056   1.161   0.038  0.00  0.00    -0.006 A 
ATOM      9  C   UNL     1      -7.034   0.199   0.040  0.00  0.00    +0.046 A 
ATOM     10  C   UNL     1      -6.721  -1.153   0.031  0.00  0.00    +0.021 A 
ATOM     11  C   UNL     1      -5.393  -1.541   0.022  0.00  0.00    +0.019 A 
ATOM     12  C   UNL     1      -4.408  -0.586   0.021  0.00  0.00    +0.041 A 
ATOM     13  C   UNL     1      -4.688   0.800   0.030  0.00  0.00    +0.085 A 
ATOM     14  N   UNL     1      -3.611   1.615   0.033  0.00  0.00    -0.224 NA
ATOM     15  C   UNL     1      -2.381   1.157   0.020  0.00  0.00    +0.165 A 
ATOM     16  S   UNL     1      -2.632  -0.612   0.012  0.00  0.00    -0.052 S 
ATOM     17  N   UNL     1      -1.191   1.866   0.018  0.00  0.00    -0.264 N 
ATOM     18  C   UNL     1      -0.014   1.208   0.009  0.00  0.00    +0.223 C 
ATOM     19  O   UNL     1       0.002  -0.004   0.002  0.00  0.00    -0.275 OA
ATOM     20 CL   UNL     1      -8.700   0.684   0.051  0.00  0.00    -0.083 Cl
ATOM     21  H   UNL     1      -1.204   2.836   0.023  0.00  0.00    +0.157 HD
ENDBRANCH   1  18
BRANCH   5  22
ATOM     22  S   UNL     1       4.945   1.560   0.924  0.00  0.00    +0.061 S 
ATOM     23  O   UNL     1       5.717   2.752   0.887  0.00  0.00    -0.153 OA
ATOM     24  O   UNL     1       4.363   1.065   2.122  0.00  0.00    -0.153 OA
BRANCH  22  25
ATOM     25  C   UNL     1       5.975   0.274   0.297  0.00  0.00    +0.106 A 
ATOM     26  C   UNL     1       5.730  -1.040   0.650  0.00  0.00    +0.032 A 
ATOM     27  C   UNL     1       6.532  -2.050   0.155  0.00  0.00    +0.047 A 
ATOM     28  C   UNL     1       7.591  -1.744  -0.687  0.00  0.00    +0.120 A 
ATOM     29  C   UNL     1       7.838  -0.423  -1.035  0.00  0.00    +0.047 A 
ATOM     30  C   UNL     1       7.029   0.582  -0.542  0.00  0.00    +0.032 A 
BRANCH  28  31
ATOM     31  O   UNL     1       8.386  -2.735  -1.169  0.00  0.00    -0.495 OA
ATOM     32  C   UNL     1       8.073  -4.070  -0.769  0.00  0.00    +0.277 C 
ENDBRANCH  28  31
ENDBRANCH  22  25
ENDBRANCH   5  22
TORSDOF 4
