REMARK  Name = ZINC21181628
REMARK  6 active torsions:
REMARK  status: ('A' for Active; 'I' for Inactive)
REMARK    1  A    between atoms: C_1  and  N_2
REMARK    2  A    between atoms: C_3  and  C_25
REMARK    3  A    between atoms: C_6  and  S_7
REMARK    4  A    between atoms: S_7  and  C_8
REMARK    5  A    between atoms: C_8  and  C_9
REMARK    6  A    between atoms: N_14  and  C_15
REMARK                            x       y       z     vdW  Elec       q    Type
REMARK                         _______ _______ _______ _____ _____    ______ ____
ROOT
ATOM      1  C   UNL     1       1.756   2.096  -0.004  0.00  0.00    +0.173 C 
ENDROOT
BRANCH   1   2
ATOM      2  C   UNL     1       1.984   3.586   0.002  0.00  0.00    +0.231 C 
ATOM      3  O   UNL     1       1.038   4.344   0.015  0.00  0.00    -0.274 OA
ATOM      4  N   UNL     1       3.240   4.076  -0.007  0.00  0.00    -0.239 N 
ATOM      5  C   UNL     1       3.443   5.408  -0.002  0.00  0.00    +0.306 C 
ATOM      6  O   UNL     1       2.495   6.168   0.011  0.00  0.00    -0.252 OA
ATOM      7  N   UNL     1       4.699   5.898  -0.011  0.00  0.00    -0.294 N 
ATOM      8  H   UNL     1       4.098   3.388  -0.019  0.00  0.00    +0.159 HD
ATOM      9  H   UNL     1       5.557   5.210  -0.023  0.00  0.00    +0.151 HD
BRANCH   7  10
ATOM     10  C   UNL     1       4.920   7.346  -0.005  0.00  0.00    +0.037 C 
ATOM     11  C   UNL     1       4.296   7.952   1.253  0.00  0.00    +0.029 C 
ATOM     12  C   UNL     1       4.528   9.465   1.259  0.00  0.00    -0.008 C 
ATOM     13  C   UNL     1       6.031   9.751   1.246  0.00  0.00    +0.007 C 
ATOM     14  C   UNL     1       6.654   9.145  -0.012  0.00  0.00    -0.008 C 
ATOM     15  C   UNL     1       6.423   7.632  -0.018  0.00  0.00    +0.029 C 
ATOM     16  C   UNL     1       6.007   9.764  -1.252  0.00  0.00    +0.007 C 
ATOM     17  C   UNL     1       4.504   9.478  -1.239  0.00  0.00    -0.008 C 
ATOM     18  C   UNL     1       3.880  10.085   0.019  0.00  0.00    +0.007 C 
ATOM     19  C   UNL     1       4.272   7.966  -1.245  0.00  0.00    +0.029 C 
ENDBRANCH   7  10
ENDBRANCH   1   2
BRANCH   1  20
ATOM     20  S   UNL     1      -0.022   1.758   0.012  0.00  0.00    -0.077 S 
BRANCH  20  26
ATOM     21  C   UNL     1      -2.495  -0.437   0.036  0.00  0.00    +0.153 C 
ATOM     22  N   UNL     1      -1.085  -0.831   0.013  0.00  0.00    -0.306 N 
ATOM     23  C   UNL     1      -0.582  -2.103  -0.004  0.00  0.00    +0.178 A 
ATOM     24  N   UNL     1       0.717  -2.007  -0.015  0.00  0.00    -0.130 NA
ATOM     25  N   UNL     1       1.068  -0.770  -0.012  0.00  0.00    -0.122 NA
ATOM     26  C   UNL     1       0.002  -0.004   0.002  0.00  0.00    +0.192 A 
BRANCH  23  27
ATOM     27  C   UNL     1      -1.383  -3.379  -0.004  0.00  0.00    +0.278 C 
ATOM     28  C   UNL     1      -1.317  -4.032   1.384  0.00  0.00    +0.281 C 
ATOM     29  O   UNL     1      -2.075  -5.246   1.345  0.00  0.00    -0.484 OA
ATOM     30  C   UNL     1      -1.865  -6.064   0.278  0.00  0.00    +0.162 A 
ATOM     31  C   UNL     1      -2.273  -7.388   0.345  0.00  0.00    +0.049 A 
ATOM     32  C   UNL     1      -2.069  -8.231  -0.731  0.00  0.00    +0.004 A 
ATOM     33  C   UNL     1      -1.458  -7.757  -1.877  0.00  0.00    +0.004 A 
ATOM     34  C   UNL     1      -1.048  -6.439  -1.950  0.00  0.00    +0.049 A 
ATOM     35  C   UNL     1      -1.248  -5.588  -0.873  0.00  0.00    +0.163 A 
ATOM     36  O   UNL     1      -0.834  -4.295  -0.957  0.00  0.00    -0.474 OA
ENDBRANCH  23  27
ENDBRANCH  20  26
ENDBRANCH   1  20
TORSDOF 5
