REMARK  Name = ZINC12982073
REMARK  11 active torsions:
REMARK  status: ('A' for Active; 'I' for Inactive)
REMARK    1  A    between atoms: C_1  and  N_66
REMARK    2  A    between atoms: C_2  and  N_66
REMARK    3  A    between atoms: C_3  and  C_5
REMARK    4  A    between atoms: C_3  and  C_28
REMARK    5  A    between atoms: C_3  and  N_66
REMARK    6  A    between atoms: C_5  and  N_6
REMARK    7  A    between atoms: C_7  and  C_9
REMARK    8  A    between atoms: C_13  and  S_15
REMARK    9  A    between atoms: S_15  and  N_18
REMARK   10  A    between atoms: C_31  and  O_34
REMARK   11  A    between atoms: O_34  and  C_35
REMARK                            x       y       z     vdW  Elec       q    Type
REMARK                         _______ _______ _______ _____ _____    ______ ____
ROOT
ATOM      1  C   UNL     1       0.065  -2.926  -3.857  0.00  0.00    +0.039 A 
ATOM      2  C   UNL     1       0.036  -3.967  -2.927  0.00  0.00    +0.013 A 
ATOM      3  C   UNL     1      -0.033  -5.274  -3.361  0.00  0.00    +0.003 A 
ATOM      4  C   UNL     1      -0.062  -5.556  -4.715  0.00  0.00    +0.028 A 
ATOM      5  C   UNL     1      -0.028  -4.530  -5.643  0.00  0.00    +0.106 A 
ATOM      6  C   UNL     1       0.035  -3.217  -5.222  0.00  0.00    +0.041 A 
ENDROOT
BRANCH   1   8
ATOM      7  N   UNL     1       0.161  -1.244  -2.080  0.00  0.00    -0.313 N 
ATOM      8  C   UNL     1       0.133  -1.522  -3.399  0.00  0.00    +0.244 C 
ATOM      9  O   UNL     1       0.163  -0.619  -4.211  0.00  0.00    -0.270 OA
ATOM     10  H   UNL     1       0.137  -1.966  -1.432  0.00  0.00    +0.149 HD
BRANCH   7  11
ATOM     11  C   UNL     1       0.229   0.147  -1.626  0.00  0.00    +0.094 C 
BRANCH  11  12
ATOM     12  C   UNL     1       0.074   0.195  -0.105  0.00  0.00    -0.021 C 
BRANCH  12  13
ATOM     13  C   UNL     1       0.242   1.614   0.373  0.00  0.00    -0.059 A 
ATOM     14  C   UNL     1      -0.795   2.517   0.231  0.00  0.00    +0.005 A 
ATOM     15  C   UNL     1      -0.646   3.817   0.673  0.00  0.00    +0.046 A 
ATOM     16  C   UNL     1       0.550   4.220   1.249  0.00  0.00    +0.120 A 
ATOM     17  C   UNL     1       1.591   3.313   1.386  0.00  0.00    +0.046 A 
ATOM     18  C   UNL     1       1.435   2.013   0.948  0.00  0.00    +0.005 A 
BRANCH  16  19
ATOM     19  O   UNL     1       0.701   5.500   1.679  0.00  0.00    -0.495 OA
ATOM     20  C   UNL     1      -0.412   6.379   1.506  0.00  0.00    +0.277 C 
ENDBRANCH  16  19
ENDBRANCH  12  13
BRANCH  12  23
ATOM     21  C   UNL     1      -2.231  -0.041  -0.806  0.00  0.00    -0.096 C 
ATOM     22  C   UNL     1      -1.222  -1.719   0.619  0.00  0.00    -0.096 C 
ATOM     23  N   UNL     1      -1.269  -0.278   0.291  0.00  0.00    +0.382 N 
ATOM     24  H   UNL     1      -1.575   0.243   1.121  0.00  0.00    -0.082 HD
ENDBRANCH  12  23
ENDBRANCH  11  12
ENDBRANCH   7  11
ENDBRANCH   1   8
BRANCH   5  25
ATOM     25  S   UNL     1      -0.066  -4.900  -7.365  0.00  0.00    +0.061 S 
ATOM     26  O   UNL     1      -0.674  -6.177  -7.493  0.00  0.00    -0.153 OA
ATOM     27  O   UNL     1      -0.574  -3.744  -8.017  0.00  0.00    -0.153 OA
BRANCH  25  28
ATOM     28  N   UNL     1       1.504  -5.072  -7.863  0.00  0.00    -0.172 NA
ATOM     29  C   UNL     1       2.279  -3.924  -8.364  0.00  0.00    +0.114 C 
ATOM     30  C   UNL     1       3.439  -3.687  -7.392  0.00  0.00    +0.052 C 
ATOM     31  C   UNL     1       4.147  -4.979  -7.078  0.00  0.00    -0.042 A 
ATOM     32  C   UNL     1       5.438  -4.899  -6.569  0.00  0.00    +0.004 A 
ATOM     33  C   UNL     1       6.138  -6.044  -6.249  0.00  0.00    +0.000 A 
ATOM     34  C   UNL     1       5.552  -7.282  -6.434  0.00  0.00    +0.000 A 
ATOM     35  C   UNL     1       4.272  -7.365  -6.943  0.00  0.00    +0.005 A 
ATOM     36  C   UNL     1       3.568  -6.214  -7.269  0.00  0.00    -0.028 A 
ATOM     37  C   UNL     1       2.177  -6.375  -7.829  0.00  0.00    +0.144 C 
ENDBRANCH  25  28
ENDBRANCH   5  25
TORSDOF 8
