REMARK  Name = ZINC05620214
REMARK  10 active torsions:
REMARK  status: ('A' for Active; 'I' for Inactive)
REMARK    1  A    between atoms: C_1  and  C_2
REMARK    2  A    between atoms: C_2  and  C_4
REMARK    3  A    between atoms: C_2  and  O_14
REMARK    4  A    between atoms: N_6  and  C_7
REMARK    5  A    between atoms: C_7  and  C_8
REMARK    6  A    between atoms: O_14  and  C_15
REMARK    7  A    between atoms: C_15  and  C_17
REMARK    8  A    between atoms: C_19  and  N_25
REMARK    9  A    between atoms: C_22  and  N_23
REMARK   10  A    between atoms: N_23  and  C_24
REMARK                            x       y       z     vdW  Elec       q    Type
REMARK                         _______ _______ _______ _____ _____    ______ ____
ROOT
ATOM      1  O   UNL     1      -2.516   1.005  -0.153  0.00  0.00    -0.449 OA
ENDROOT
BRANCH   1   3
ATOM      2  C   UNL     1      -4.215   1.979  -1.601  0.00  0.00    +0.062 C 
ATOM      3  C   UNL     1      -3.824   1.635  -0.163  0.00  0.00    +0.259 C 
BRANCH   3   4
ATOM      4  C   UNL     1      -4.842   0.689   0.421  0.00  0.00    +0.254 C 
ATOM      5  O   UNL     1      -4.498  -0.409   0.807  0.00  0.00    -0.272 OA
ATOM      6  N   UNL     1      -6.133   1.062   0.515  0.00  0.00    -0.312 N 
ATOM      7  H   UNL     1      -6.408   1.939   0.206  0.00  0.00    +0.149 HD
BRANCH   6   8
ATOM      8  C   UNL     1      -7.122   0.142   1.082  0.00  0.00    +0.107 C 
BRANCH   8   9
ATOM      9  C   UNL     1      -8.501   0.806   1.072  0.00  0.00    +0.006 C 
ATOM     10  C   UNL     1      -8.490   2.017   2.008  0.00  0.00    +0.005 C 
ATOM     11  C   UNL     1      -9.869   2.680   1.998  0.00  0.00    +0.000 C 
ATOM     12  C   UNL     1     -10.921   1.677   2.474  0.00  0.00    +0.000 C 
ATOM     13  C   UNL     1     -10.932   0.467   1.539  0.00  0.00    +0.000 C 
ATOM     14  C   UNL     1      -9.553  -0.197   1.548  0.00  0.00    +0.005 C 
ENDBRANCH   8   9
ENDBRANCH   6   8
ENDBRANCH   3   4
ENDBRANCH   1   3
BRANCH   1  15
ATOM     15  C   UNL     1      -1.447   1.816  -0.032  0.00  0.00    +0.342 C 
ATOM     16  O   UNL     1      -1.604   3.018   0.063  0.00  0.00    -0.245 OA
BRANCH  15  17
ATOM     17  C   UNL     1      -0.089   1.247  -0.015  0.00  0.00    +0.082 A 
ATOM     18  C   UNL     1       0.093  -0.139  -0.001  0.00  0.00    +0.049 A 
ATOM     19  C   UNL     1       1.366  -0.665   0.009  0.00  0.00    +0.127 A 
ATOM     20  C   UNL     1       2.470   0.173   0.005  0.00  0.00    +0.034 A 
ATOM     21  C   UNL     1       2.308   1.543  -0.009  0.00  0.00    +0.026 A 
ATOM     22  C   UNL     1       1.032   2.093  -0.019  0.00  0.00    +0.041 A 
BRANCH  22  23
ATOM     23  N   UNL     1       0.866   3.471  -0.034  0.00  0.00    -0.346 N 
ATOM     24  C   UNL     1       2.032   4.348  -0.162  0.00  0.00    +0.125 C 
ATOM     25  H   UNL     1      -0.022   3.854   0.041  0.00  0.00    +0.146 HD
ENDBRANCH  22  23
BRANCH  19  26
ATOM     26  N   UNL     1       1.556  -2.132   0.023  0.00  0.00    +0.056 N 
ATOM     27  O   UNL     1       0.588  -2.872   0.026  0.00  0.00    -0.126 OA
ATOM     28  O   UNL     1       2.680  -2.601   0.032  0.00  0.00    -0.126 OA
ENDBRANCH  19  26
ENDBRANCH  15  17
ENDBRANCH   1  15
TORSDOF 8
