REMARK  Name = ZINC51347654
REMARK  15 active torsions:
REMARK  status: ('A' for Active; 'I' for Inactive)
REMARK    1  A    between atoms: C_1  and  C_2
REMARK    2  A    between atoms: C_2  and  C_3
REMARK    3  A    between atoms: C_2  and  C_4
REMARK    4  A    between atoms: C_4  and  N_5
REMARK    5  A    between atoms: C_6  and  C_8
REMARK    6  A    between atoms: C_8  and  C_9
REMARK    7  A    between atoms: C_9  and  C_10
REMARK    8  A    between atoms: C_10  and  O_12
REMARK    9  A    between atoms: O_12  and  C_13
REMARK   10  A    between atoms: C_13  and  C_14
REMARK   11  A    between atoms: C_14  and  C_16
REMARK   12  A    between atoms: C_16  and  O_41
REMARK   13  A    between atoms: C_21  and  C_40
REMARK   14  A    between atoms: C_23  and  O_39
REMARK   15  A    between atoms: C_37  and  C_38
REMARK                            x       y       z     vdW  Elec       q    Type
REMARK                         _______ _______ _______ _____ _____    ______ ____
ROOT
ATOM      1  C   UNL     1     -10.350  -0.345  -6.699  0.00  0.00    +0.133 C 
ATOM      2  C   UNL     1     -10.132  -1.475  -7.728  0.00  0.00    +0.043 C 
ATOM      3  C   UNL     1     -11.356  -2.407  -7.581  0.00  0.00    +0.008 C 
ATOM      4  C   UNL     1     -12.506  -1.429  -7.216  0.00  0.00    +0.002 C 
ATOM      5  C   UNL     1     -11.826  -0.402  -6.310  0.00  0.00    +0.009 C 
ATOM      6  C   UNL     1     -12.543   0.919  -6.220  0.00  0.00    +0.041 C 
ATOM      7  C   UNL     1     -13.019   1.445  -7.570  0.00  0.00    +0.119 C 
ATOM      8  C   UNL     1     -13.883   0.384  -8.258  0.00  0.00    +0.031 C 
ATOM      9  C   UNL     1     -13.039  -0.846  -8.533  0.00  0.00    -0.001 C 
ATOM     10  C   UNL     1     -13.807  -1.979  -9.210  0.00  0.00    +0.008 C 
ATOM     11  C   UNL     1     -15.042  -1.511  -9.962  0.00  0.00    +0.032 C 
ATOM     12  C   UNL     1     -14.784  -0.127 -10.506  0.00  0.00    -0.060 C 
ATOM     13  C   UNL     1     -14.776   0.086 -11.816  0.00  0.00    +0.046 C 
ATOM     14  C   UNL     1     -14.532   1.418 -12.365  0.00  0.00    +0.156 C 
ATOM     15  O   UNL     1     -14.501   1.588 -13.565  0.00  0.00    -0.293 OA
ATOM     16  C   UNL     1     -14.317   2.579 -11.428  0.00  0.00    +0.080 C 
ATOM     17  C   UNL     1     -13.672   2.061 -10.137  0.00  0.00    +0.019 C 
ATOM     18  C   UNL     1     -14.536   0.975  -9.507  0.00  0.00    -0.005 C 
ATOM     19  C   UNL     1     -15.893   1.576  -9.105  0.00  0.00    +0.016 C 
ATOM     20  C   UNL     1     -11.867  -0.999  -4.876  0.00  0.00    +0.015 C 
ENDROOT
BRANCH   1  21
ATOM     21  C   UNL     1      -9.499  -0.628  -5.475  0.00  0.00    +0.202 C 
ATOM     22  O   UNL     1      -9.169  -1.761  -5.218  0.00  0.00    -0.291 OA
BRANCH  21  23
ATOM     23  C   UNL     1      -9.066   0.504  -4.579  0.00  0.00    +0.309 C 
BRANCH  23  24
ATOM     24  O   UNL     1      -8.281  -0.013  -3.503  0.00  0.00    -0.457 OA
BRANCH  24  25
ATOM     25  C   UNL     1      -7.814   0.872  -2.609  0.00  0.00    +0.308 C 
ATOM     26  O   UNL     1      -8.064   2.047  -2.736  0.00  0.00    -0.251 OA
BRANCH  25  27
ATOM     27  C   UNL     1      -6.978   0.400  -1.448  0.00  0.00    +0.130 C 
BRANCH  27  28
ATOM     28  C   UNL     1      -6.577   1.600  -0.587  0.00  0.00    +0.107 C 
BRANCH  28  30
ATOM     29  N   UNL     1      -5.272   2.018   1.473  0.00  0.00    -0.315 N 
ATOM     30  C   UNL     1      -5.741   1.128   0.575  0.00  0.00    +0.214 C 
ATOM     31  O   UNL     1      -5.490  -0.051   0.702  0.00  0.00    -0.276 OA
ATOM     32  H   UNL     1      -5.473   2.961   1.371  0.00  0.00    +0.149 HD
BRANCH  29  33
ATOM     33  C   UNL     1      -4.460   1.559   2.602  0.00  0.00    +0.107 C 
BRANCH  33  35
ATOM     34  C   UNL     1      -5.311   3.377   4.089  0.00  0.00    +0.009 C 
ATOM     35  C   UNL     1      -4.059   2.759   3.463  0.00  0.00    -0.000 C 
ATOM     36  C   UNL     1      -3.109   2.298   4.570  0.00  0.00    +0.009 C 
ENDBRANCH  33  35
ENDBRANCH  29  33
ENDBRANCH  28  30
ENDBRANCH  27  28
ENDBRANCH  25  27
ENDBRANCH  24  25
ENDBRANCH  23  24
ENDBRANCH  21  23
ENDBRANCH   1  21
BRANCH   7  37
ATOM     37  O   UNL     1     -11.893   1.788  -8.374  0.00  0.00    -0.391 OA
ATOM     38  H   UNL     1     -11.327   2.470  -7.988  0.00  0.00    +0.210 HD
ENDBRANCH   7  37
BRANCH   1  39
ATOM     39  O   UNL     1      -9.969   0.913  -7.243  0.00  0.00    -0.380 OA
ATOM     40  H   UNL     1      -9.040   0.963  -7.506  0.00  0.00    +0.211 HD
ENDBRANCH   1  39
TORSDOF 11
