REMARK  Name = ZINC15761602
REMARK  8 active torsions:
REMARK  status: ('A' for Active; 'I' for Inactive)
REMARK    1  A    between atoms: C_1  and  C_2
REMARK    2  A    between atoms: C_7  and  N_12
REMARK    3  A    between atoms: C_9  and  C_11
REMARK    4  A    between atoms: N_12  and  C_13
REMARK    5  A    between atoms: C_13  and  N_15
REMARK    6  A    between atoms: N_15  and  N_16
REMARK    7  A    between atoms: C_17  and  C_19
REMARK    8  A    between atoms: C_22  and  C_24
REMARK                            x       y       z     vdW  Elec       q    Type
REMARK                         _______ _______ _______ _____ _____    ______ ____
ROOT
ATOM      1  N   UNL     1      -3.180  -3.451   1.244  0.00  0.00    -0.230 N 
ATOM      2  C   UNL     1      -4.444  -3.917   1.253  0.00  0.00    +0.279 C 
ATOM      3  O   UNL     1      -4.680  -5.026   1.695  0.00  0.00    -0.267 OA
ATOM      4  H   UNL     1      -2.992  -2.567   0.892  0.00  0.00    +0.173 HD
ENDROOT
BRANCH   2   5
ATOM      5  C   UNL     1      -5.541  -3.084   0.729  0.00  0.00    +0.135 A 
ATOM      6  C   UNL     1      -6.830  -3.547   0.739  0.00  0.00    +0.080 A 
ATOM      7  S   UNL     1      -7.681  -2.266   0.056  0.00  0.00    -0.075 S 
ATOM      8  C   UNL     1      -6.305  -1.164  -0.219  0.00  0.00    +0.109 A 
ATOM      9  N   UNL     1      -5.294  -1.875   0.246  0.00  0.00    -0.234 NA
BRANCH   8  10
ATOM     10  C   UNL     1      -6.300   0.193  -0.808  0.00  0.00    +0.007 A 
ATOM     11  C   UNL     1      -5.101   0.893  -0.942  0.00  0.00    +0.010 A 
ATOM     12  C   UNL     1      -5.102   2.158  -1.492  0.00  0.00    +0.001 A 
ATOM     13  C   UNL     1      -6.289   2.732  -1.912  0.00  0.00    +0.000 A 
ATOM     14  C   UNL     1      -7.481   2.042  -1.783  0.00  0.00    +0.001 A 
ATOM     15  C   UNL     1      -7.493   0.774  -1.238  0.00  0.00    +0.010 A 
ENDBRANCH   8  10
ENDBRANCH   2   5
BRANCH   1  16
ATOM     16  N   UNL     1      -2.137  -4.243   1.742  0.00  0.00    -0.246 N 
ATOM     17  H   UNL     1      -2.325  -5.127   2.094  0.00  0.00    +0.172 HD
BRANCH  16  18
ATOM     18  C   UNL     1      -0.873  -3.776   1.733  0.00  0.00    +0.147 C 
ATOM     19  S   UNL     1       0.401  -4.744   2.342  0.00  0.00    -0.017 S 
BRANCH  18  20
ATOM     20  N   UNL     1      -0.612  -2.548   1.244  0.00  0.00    -0.322 N 
ATOM     21  H   UNL     1      -1.333  -2.000   0.898  0.00  0.00    +0.148 HD
BRANCH  20  27
ATOM     22  C   UNL     1      -0.019   1.526   0.010  0.00  0.00    +0.008 C 
ATOM     23  C   UNL     1       0.002  -0.004   0.002  0.00  0.00    -0.009 C 
ATOM     24  C   UNL     1       0.718  -0.497  -1.257  0.00  0.00    +0.003 C 
ATOM     25  C   UNL     1       0.739  -2.027  -1.265  0.00  0.00    +0.002 C 
ATOM     26  C   UNL     1       1.479  -2.534  -0.026  0.00  0.00    +0.022 C 
ATOM     27  C   UNL     1       0.763  -2.041   1.233  0.00  0.00    +0.075 C 
ATOM     28  C   UNL     1       0.742  -0.511   1.242  0.00  0.00    +0.009 C 
ATOM     29  C   UNL     1       0.026  -0.018   2.500  0.00  0.00    +0.009 C 
ENDBRANCH  20  27
ENDBRANCH  18  20
ENDBRANCH  16  18
ENDBRANCH   1  16
TORSDOF 6
