REMARK  Name = ZINC39670442
REMARK  7 active torsions:
REMARK  status: ('A' for Active; 'I' for Inactive)
REMARK    1  A    between atoms: C_1  and  C_2
REMARK    2  A    between atoms: C_7  and  C_11
REMARK    3  A    between atoms: C_11  and  N_12
REMARK    4  A    between atoms: C_13  and  C_15
REMARK    5  A    between atoms: C_26  and  C_28
REMARK    6  A    between atoms: C_31  and  O_34
REMARK    7  A    between atoms: O_34  and  C_35
REMARK                            x       y       z     vdW  Elec       q    Type
REMARK                         _______ _______ _______ _____ _____    ______ ____
ROOT
ATOM      1  C   UNL     1      -2.599  -7.399   3.823  0.00  0.00    +0.100 C 
ATOM      2  C   UNL     1      -3.678  -6.560   4.544  0.00  0.00    +0.121 C 
ATOM      3  N   UNL     1      -4.530  -7.558   5.232  0.00  0.00    -0.296 N 
ATOM      4  C   UNL     1      -3.575  -8.572   5.737  0.00  0.00    +0.115 C 
ATOM      5  C   UNL     1      -2.534  -8.719   4.610  0.00  0.00    -0.004 C 
ATOM      6  C   UNL     1      -1.141  -8.913   5.200  0.00  0.00    -0.010 C 
ATOM      7  C   UNL     1      -1.083 -10.259   5.928  0.00  0.00    -0.082 C 
ATOM      8  N   UNL     1      -1.393 -11.341   4.986  0.00  0.00    +0.379 N 
ATOM      9  C   UNL     1      -2.768 -11.198   4.493  0.00  0.00    -0.082 C 
ATOM     10  C   UNL     1      -2.897  -9.892   3.704  0.00  0.00    -0.010 C 
ATOM     11  C   UNL     1      -5.871  -7.545   5.367  0.00  0.00    +0.247 C 
ATOM     12  O   UNL     1      -6.533  -6.709   4.785  0.00  0.00    -0.270 OA
ATOM     13  H   UNL     1      -0.752 -11.301   4.207  0.00  0.00    -0.086 HD
ATOM     14  H   UNL     1      -1.295 -12.230   5.452  0.00  0.00    -0.086 HD
ENDROOT
BRANCH  11  15
ATOM     15  C   UNL     1      -6.535  -8.548   6.223  0.00  0.00    +0.037 A 
ATOM     16  C   UNL     1      -5.810  -9.214   7.214  0.00  0.00    +0.016 A 
ATOM     17  C   UNL     1      -6.433 -10.148   8.011  0.00  0.00    +0.047 A 
ATOM     18  C   UNL     1      -7.782 -10.430   7.830  0.00  0.00    +0.130 A 
ATOM     19  C   UNL     1      -8.508  -9.769   6.845  0.00  0.00    +0.047 A 
ATOM     20  C   UNL     1      -7.893  -8.829   6.048  0.00  0.00    +0.016 A 
BRANCH  18  21
ATOM     21  O   UNL     1      -8.393 -11.352   8.616  0.00  0.00    -0.406 OA
BRANCH  21  22
ATOM     22  C   UNL     1      -9.781 -11.592   8.376  0.00  0.00    +0.575 C 
ATOM     23  F   UNL     1      -9.956 -12.043   7.063  0.00  0.00    -0.133 F 
ATOM     24  F   UNL     1     -10.248 -12.563   9.268  0.00  0.00    -0.133 F 
ATOM     25  F   UNL     1     -10.499 -10.405   8.561  0.00  0.00    -0.133 F 
ENDBRANCH  21  22
ENDBRANCH  18  21
ENDBRANCH  11  15
BRANCH   1  27
ATOM     26  N   UNL     1      -0.377  -6.870   2.874  0.00  0.00    -0.309 N 
ATOM     27  C   UNL     1      -1.268  -6.694   3.869  0.00  0.00    +0.219 C 
ATOM     28  O   UNL     1      -0.999  -5.968   4.803  0.00  0.00    -0.275 OA
ATOM     29  H   UNL     1      -0.592  -7.450   2.127  0.00  0.00    +0.149 HD
BRANCH  26  30
ATOM     30  C   UNL     1       0.917  -6.184   2.919  0.00  0.00    +0.161 C 
BRANCH  30  37
ATOM     31  C   UNL     1       4.335  -6.791  -3.606  0.00  0.00    +0.045 C 
ATOM     32  C   UNL     1       3.881  -7.091  -2.201  0.00  0.00    -0.034 A 
ATOM     33  C   UNL     1       4.339  -8.249  -1.550  0.00  0.00    +0.008 A 
ATOM     34  C   UNL     1       3.927  -8.517  -0.282  0.00  0.00    +0.047 A 
ATOM     35  C   UNL     1       3.046  -7.625   0.361  0.00  0.00    +0.138 A 
ATOM     36  N   UNL     1       2.491  -7.630   1.565  0.00  0.00    -0.231 NA
ATOM     37  C   UNL     1       1.721  -6.547   1.697  0.00  0.00    +0.077 A 
ATOM     38  C   UNL     1       1.782  -5.832   0.553  0.00  0.00    +0.117 A 
ATOM     39  N   UNL     1       2.616  -6.502  -0.299  0.00  0.00    -0.306 N 
ATOM     40  C   UNL     1       3.041  -6.243  -1.570  0.00  0.00    +0.096 A 
ENDBRANCH  30  37
ENDBRANCH  26  30
ENDBRANCH   1  27
TORSDOF 6
