REMARK  Name = ZINC38050447
REMARK  6 active torsions:
REMARK  status: ('A' for Active; 'I' for Inactive)
REMARK    1  A    between atoms: C_3  and  S_20
REMARK    2  A    between atoms: C_5  and  S_7
REMARK    3  A    between atoms: S_7  and  N_10
REMARK    4  A    between atoms: N_10  and  C_11
REMARK    5  A    between atoms: C_17  and  N_19
REMARK    6  A    between atoms: S_20  and  N_23
REMARK                            x       y       z     vdW  Elec       q    Type
REMARK                         _______ _______ _______ _____ _____    ______ ____
ROOT
ATOM      1  S   UNL     1       1.232  -2.441  -0.022  0.00  0.00    +0.059 S 
ATOM      2  O   UNL     1      -0.013  -2.861  -0.562  0.00  0.00    -0.153 OA
ATOM      3  O   UNL     1       2.477  -2.827  -0.588  0.00  0.00    -0.153 OA
ENDROOT
BRANCH   1   8
ATOM      4  C   UNL     1      -0.017   1.378   0.010  0.00  0.00    +0.004 A 
ATOM      5  C   UNL     1       1.171   2.085   0.002  0.00  0.00    +0.028 A 
ATOM      6  C   UNL     1       2.377   1.411  -0.013  0.00  0.00    +0.107 A 
ATOM      7  C   UNL     1       2.396   0.028  -0.020  0.00  0.00    +0.057 A 
ATOM      8  C   UNL     1       1.209  -0.679  -0.012  0.00  0.00    +0.107 A 
ATOM      9  C   UNL     1       0.002  -0.004   0.002  0.00  0.00    +0.028 A 
BRANCH   6  10
ATOM     10  S   UNL     1       3.891   2.312  -0.024  0.00  0.00    +0.056 S 
ATOM     11  O   UNL     1       4.872   1.453  -0.588  0.00  0.00    -0.153 OA
ATOM     12  O   UNL     1       3.597   3.593  -0.566  0.00  0.00    -0.153 OA
BRANCH  10  13
ATOM     13  N   UNL     1       4.327   2.556   1.555  0.00  0.00    -0.204 NA
ATOM     14  H   UNL     1       3.768   2.215   2.271  0.00  0.00    +0.144 HD
ATOM     15  H   UNL     1       5.142   3.039   1.764  0.00  0.00    +0.144 HD
ENDBRANCH  10  13
ENDBRANCH   6  10
ENDBRANCH   1   8
BRANCH   1  16
ATOM     16  N   UNL     1       1.256  -2.939   1.557  0.00  0.00    -0.188 NA
ATOM     17  H   UNL     1       2.027  -3.413   1.905  0.00  0.00    +0.148 HD
BRANCH  16  18
ATOM     18  C   UNL     1       0.111  -2.664   2.429  0.00  0.00    +0.062 C 
ATOM     19  C   UNL     1      -0.823  -3.876   2.442  0.00  0.00    +0.019 C 
ATOM     20  C   UNL     1      -0.066  -5.098   2.965  0.00  0.00    +0.001 C 
ATOM     21  C   UNL     1       0.430  -4.822   4.386  0.00  0.00    -0.001 C 
ATOM     22  C   UNL     1       1.364  -3.610   4.373  0.00  0.00    -0.015 C 
ATOM     23  C   UNL     1       0.607  -2.388   3.850  0.00  0.00    -0.056 C 
BRANCH  23  24
ATOM     24  N   UNL     1       1.504  -1.224   3.837  0.00  0.00    +0.381 N 
ATOM     25  H   UNL     1       1.004  -0.418   3.493  0.00  0.00    -0.090 HD
ATOM     26  H   UNL     1       1.831  -1.042   4.774  0.00  0.00    -0.090 HD
ATOM     27  H   UNL     1       2.292  -1.414   3.237  0.00  0.00    -0.090 HD
ENDBRANCH  23  24
ENDBRANCH  16  18
ENDBRANCH   1  16
TORSDOF 6
