REMARK  Name = ZINC16884955
REMARK  11 active torsions:
REMARK  status: ('A' for Active; 'I' for Inactive)
REMARK    1  A    between atoms: C_1  and  C_2
REMARK    2  A    between atoms: C_5  and  C_9
REMARK    3  A    between atoms: C_6  and  C_8
REMARK    4  A    between atoms: C_9  and  C_10
REMARK    5  A    between atoms: C_11  and  C_34
REMARK    6  A    between atoms: N_14  and  C_17
REMARK    7  A    between atoms: C_17  and  C_18
REMARK    8  A    between atoms: C_21  and  C_25
REMARK    9  A    between atoms: C_23  and  C_24
REMARK   10  A    between atoms: N_26  and  C_27
REMARK   11  A    between atoms: C_32  and  N_33
REMARK                            x       y       z     vdW  Elec       q    Type
REMARK                         _______ _______ _______ _____ _____    ______ ____
ROOT
ATOM      1  C   UNL     1       3.919   0.704   1.423  0.00  0.00    +0.042 A 
ATOM      2  C   UNL     1       3.907  -0.443   2.163  0.00  0.00    +0.050 A 
ATOM      3  N   UNL     1       4.261  -0.414   3.445  0.00  0.00    -0.220 NA
ATOM      4  C   UNL     1       4.627   0.709   4.030  0.00  0.00    +0.203 A 
ATOM      5  N   UNL     1       4.657   1.884   3.343  0.00  0.00    -0.276 N 
ATOM      6  C   UNL     1       4.314   1.905   2.037  0.00  0.00    +0.259 A 
ATOM      7  O   UNL     1       4.340   2.948   1.404  0.00  0.00    -0.267 OA
ATOM      8  N   UNL     1       4.983   0.694   5.353  0.00  0.00    -0.283 N 
ATOM      9  C   UNL     1       3.494  -1.745   1.526  0.00  0.00    +0.066 C 
ATOM     10  H   UNL     1       5.155   1.528   5.819  0.00  0.00    +0.155 HD
ENDROOT
BRANCH   8  11
ATOM     11  C   UNL     1       5.099  -0.525   6.034  0.00  0.00    +0.054 A 
ATOM     12  C   UNL     1       5.334  -1.696   5.328  0.00  0.00    +0.025 A 
ATOM     13  C   UNL     1       5.452  -2.897   6.002  0.00  0.00    +0.002 A 
ATOM     14  C   UNL     1       5.327  -2.937   7.378  0.00  0.00    +0.002 A 
ATOM     15  C   UNL     1       5.087  -1.776   8.089  0.00  0.00    +0.024 A 
ATOM     16  C   UNL     1       4.972  -0.566   7.422  0.00  0.00    +0.046 A 
BRANCH  16  17
ATOM     17  N   UNL     1       4.729   0.611   8.139  0.00  0.00    -0.357 N 
ATOM     18  H   UNL     1       4.648   1.456   7.671  0.00  0.00    +0.142 HD
ATOM     19  H   UNL     1       4.641   0.581   9.105  0.00  0.00    +0.142 HD
ENDBRANCH  16  17
ENDBRANCH   8  11
BRANCH   1  20
ATOM     20  C   UNL     1       3.521   0.682  -0.031  0.00  0.00    +0.077 C 
BRANCH  20  25
ATOM     21  C   UNL     1      -2.087   1.994  -0.511  0.00  0.00    +0.044 C 
ATOM     22  C   UNL     1      -0.625   1.652  -0.386  0.00  0.00    -0.050 A 
ATOM     23  C   UNL     1      -0.056   1.493   0.865  0.00  0.00    +0.003 A 
ATOM     24  C   UNL     1       1.286   1.184   0.980  0.00  0.00    +0.004 A 
ATOM     25  C   UNL     1       2.058   1.024  -0.156  0.00  0.00    -0.040 A 
ATOM     26  C   UNL     1       1.489   1.178  -1.406  0.00  0.00    -0.047 A 
ATOM     27  C   UNL     1       0.148   1.492  -1.521  0.00  0.00    +0.007 A 
ATOM     28  C   UNL     1       2.331   1.004  -2.644  0.00  0.00    +0.044 C 
ENDBRANCH  20  25
ENDBRANCH   1  20
BRANCH   5  29
ATOM     29  C   UNL     1       5.067   3.119   4.016  0.00  0.00    +0.163 C 
BRANCH  29  30
ATOM     30  C   UNL     1       6.571   3.225   3.997  0.00  0.00    -0.025 A 
ATOM     31  C   UNL     1       7.321   2.303   3.291  0.00  0.00    +0.006 A 
ATOM     32  C   UNL     1       8.699   2.403   3.271  0.00  0.00    +0.004 A 
ATOM     33  C   UNL     1       9.328   3.421   3.964  0.00  0.00    -0.050 A 
ATOM     34  C   UNL     1       8.579   4.340   4.673  0.00  0.00    +0.007 A 
ATOM     35  C   UNL     1       7.200   4.242   4.690  0.00  0.00    -0.045 A 
ATOM     36  C   UNL     1       6.383   5.244   5.465  0.00  0.00    +0.044 C 
ATOM     37  C   UNL     1      10.831   3.527   3.945  0.00  0.00    +0.044 C 
ENDBRANCH  29  30
ENDBRANCH   5  29
TORSDOF 6
