REMARK  Name = ZINC04925492
REMARK  10 active torsions:
REMARK  status: ('A' for Active; 'I' for Inactive)
REMARK    1  A    between atoms: C_1  and  C_2
REMARK    2  A    between atoms: C_2  and  C_3
REMARK    3  A    between atoms: C_3  and  C_4
REMARK    4  A    between atoms: C_4  and  N_5
REMARK    5  A    between atoms: N_5  and  C_6
REMARK    6  A    between atoms: C_6  and  C_7
REMARK    7  A    between atoms: N_13  and  C_15
REMARK    8  A    between atoms: C_22  and  C_24
REMARK    9  A    between atoms: C_24  and  C_25
REMARK   10  A    between atoms: C_25  and  C_26
REMARK                            x       y       z     vdW  Elec       q    Type
REMARK                         _______ _______ _______ _____ _____    ______ ____
ROOT
ATOM      1  C   UNL     1       2.859  -5.384  -0.053  0.00  0.00    +0.235 C 
ATOM      2  O   UNL     1       4.062  -5.235  -0.065  0.00  0.00    -0.274 OA
ATOM      3  N   UNL     1       2.047  -4.309  -0.040  0.00  0.00    -0.275 N 
ATOM      4  C   UNL     1       0.577  -4.310  -0.025  0.00  0.00    +0.205 C 
ATOM      5  C   UNL     1       0.146  -2.865  -0.008  0.00  0.00    +0.238 C 
ATOM      6  O   UNL     1      -1.001  -2.473   0.012  0.00  0.00    -0.273 OA
ATOM      7  N   UNL     1       1.236  -2.080  -0.020  0.00  0.00    -0.254 N 
ATOM      8  C   UNL     1       2.449  -2.897  -0.036  0.00  0.00    +0.224 C 
ENDROOT
BRANCH   7   9
ATOM      9  C   UNL     1       1.215  -0.681  -0.013  0.00  0.00    +0.039 A 
ATOM     10  C   UNL     1       0.002  -0.004   0.002  0.00  0.00    +0.023 A 
ATOM     11  C   UNL     1      -0.017   1.377   0.010  0.00  0.00    +0.003 A 
ATOM     12  C   UNL     1       1.170   2.086   0.002  0.00  0.00    +0.020 A 
ATOM     13  C   UNL     1       2.380   1.415  -0.013  0.00  0.00    +0.043 A 
ATOM     14  C   UNL     1       2.405   0.033  -0.021  0.00  0.00    +0.043 A 
ATOM     15 CL   UNL     1       3.868   2.309  -0.023  0.00  0.00    -0.083 Cl
ENDBRANCH   7   9
BRANCH   1  16
ATOM     16  C   UNL     1       2.271  -6.772  -0.054  0.00  0.00    +0.203 C 
BRANCH  16  17
ATOM     17  N   UNL     1       3.353  -7.760  -0.070  0.00  0.00    -0.293 N 
ATOM     18  C   UNL     1       3.838  -8.209  -1.245  0.00  0.00    +0.216 C 
ATOM     19  O   UNL     1       3.380  -7.794  -2.289  0.00  0.00    -0.276 OA
BRANCH  17  20
ATOM     20  C   UNL     1       3.906  -8.261   1.190  0.00  0.00    +0.108 C 
BRANCH  20  21
ATOM     21  C   UNL     1       3.126  -9.500   1.633  0.00  0.00    +0.019 C 
BRANCH  21  23
ATOM     22  C   UNL     1       2.924 -11.262   3.393  0.00  0.00    +0.004 C 
ATOM     23  C   UNL     1       3.704 -10.023   2.950  0.00  0.00    -0.002 C 
ENDBRANCH  21  23
ENDBRANCH  20  21
ENDBRANCH  17  20
BRANCH  18  24
ATOM     24  C   UNL     1       4.951  -9.225  -1.261  0.00  0.00    +0.096 C 
BRANCH  24  25
ATOM     25  C   UNL     1       5.313  -9.562  -2.709  0.00  0.00    +0.006 C 
ATOM     26  C   UNL     1       6.443 -10.594  -2.726  0.00  0.00    +0.004 C 
ENDBRANCH  24  25
ENDBRANCH  18  24
ENDBRANCH  16  17
ENDBRANCH   1  16
TORSDOF 8
