REMARK  Name = ZINC39698059
REMARK  6 active torsions:
REMARK  status: ('A' for Active; 'I' for Inactive)
REMARK    1  A    between atoms: C_1  and  C_2
REMARK    2  A    between atoms: C_3  and  C_16
REMARK    3  A    between atoms: C_4  and  O_15
REMARK    4  A    between atoms: N_6  and  C_8
REMARK    5  A    between atoms: C_17  and  C_18
REMARK    6  A    between atoms: C_17  and  C_20
REMARK                            x       y       z     vdW  Elec       q    Type
REMARK                         _______ _______ _______ _____ _____    ______ ____
ROOT
ATOM      1  C   UNL     1      -0.018   1.503   0.010  0.00  0.00    +0.062 C 
ATOM      2  C   UNL     1       0.002  -0.004   0.002  0.00  0.00    +0.026 C 
ATOM      3  C   UNL     1      -1.103  -0.777   0.003  0.00  0.00    +0.019 C 
ATOM      4  C   UNL     1      -0.634  -2.216  -0.008  0.00  0.00    +0.253 C 
ATOM      5  N   UNL     1       0.836  -2.122  -0.015  0.00  0.00    -0.221 N 
ATOM      6  N   UNL     1       1.139  -0.755  -0.013  0.00  0.00    -0.266 N 
ATOM      7  H   UNL     1       2.039  -0.391  -0.020  0.00  0.00    +0.170 HD
ENDROOT
BRANCH   5   8
ATOM      8  C   UNL     1       1.744  -3.183  -0.026  0.00  0.00    +0.051 A 
ATOM      9  C   UNL     1       1.283  -4.494  -0.037  0.00  0.00    +0.026 A 
ATOM     10  C   UNL     1       2.184  -5.541  -0.049  0.00  0.00    +0.017 A 
ATOM     11  C   UNL     1       3.543  -5.286  -0.049  0.00  0.00    +0.018 A 
ATOM     12  C   UNL     1       4.005  -3.982  -0.037  0.00  0.00    +0.017 A 
ATOM     13  C   UNL     1       3.110  -2.930  -0.031  0.00  0.00    +0.026 A 
ATOM     14 BR   UNL     1       4.773  -6.722  -0.064  0.00  0.00    -0.050 Br
ENDBRANCH   5   8
BRANCH   4  15
ATOM     15  O   UNL     1      -1.100  -2.884  -1.182  0.00  0.00    -0.369 OA
ATOM     16  H   UNL     1      -0.828  -3.810  -1.242  0.00  0.00    +0.212 HD
ENDBRANCH   4  15
BRANCH   3  17
ATOM     17  C   UNL     1      -2.439  -0.330   0.013  0.00  0.00    +0.027 C 
ATOM     18  C   UNL     1      -3.457  -1.231   0.013  0.00  0.00    +0.072 C 
BRANCH  18  19
ATOM     19  C   UNL     1      -4.886  -0.753   0.024  0.00  0.00    +0.216 C 
ATOM     20  N   UNL     1      -5.596  -1.314   1.181  0.00  0.00    -0.359 N 
ATOM     21  C   UNL     1      -6.582  -2.031   0.724  0.00  0.00    +0.060 A 
ATOM     22  C   UNL     1      -7.627  -2.827   1.382  0.00  0.00    +0.027 A 
ATOM     23  C   UNL     1      -8.537  -3.480   0.632  0.00  0.00    +0.002 A 
ATOM     24  C   UNL     1      -8.533  -3.436  -0.773  0.00  0.00    +0.002 A 
ATOM     25  C   UNL     1      -7.619  -2.738  -1.476  0.00  0.00    +0.027 A 
ATOM     26  C   UNL     1      -6.577  -1.985  -0.764  0.00  0.00    +0.060 A 
ATOM     27  N   UNL     1      -5.590  -1.240  -1.169  0.00  0.00    -0.359 N 
ATOM     28  H   UNL     1      -5.372  -1.175   2.114  0.00  0.00    +0.162 HD
ATOM     29  H   UNL     1      -5.360  -1.043  -2.091  0.00  0.00    +0.162 HD
ENDBRANCH  18  19
BRANCH  18  30
ATOM     30  C   UNL     1      -3.171  -2.634   0.003  0.00  0.00    +0.099 C 
ATOM     31  N   UNL     1      -2.945  -3.747  -0.005  0.00  0.00    -0.191 NA
ENDBRANCH  18  30
ENDBRANCH   3  17
TORSDOF 5
