REMARK  Name = ZINC10153993
REMARK  11 active torsions:
REMARK  status: ('A' for Active; 'I' for Inactive)
REMARK    1  A    between atoms: C_1  and  C_2
REMARK    2  A    between atoms: C_5  and  O_9
REMARK    3  A    between atoms: C_7  and  C_8
REMARK    4  A    between atoms: O_9  and  C_10
REMARK    5  A    between atoms: C_10  and  C_12
REMARK    6  A    between atoms: C_10  and  C_13
REMARK    7  A    between atoms: N_15  and  N_16
REMARK    8  A    between atoms: N_16  and  C_17
REMARK    9  A    between atoms: C_17  and  N_19
REMARK   10  A    between atoms: C_20  and  C_22
REMARK   11  A    between atoms: C_23  and  C_24
REMARK                            x       y       z     vdW  Elec       q    Type
REMARK                         _______ _______ _______ _____ _____    ______ ____
ROOT
ATOM      1  N   UNL     1      -0.027   1.397  -0.517  0.00  0.00    -0.245 N 
ATOM      2  H   UNL     1      -0.854   1.888  -0.646  0.00  0.00    +0.172 HD
ENDROOT
BRANCH   1   5
ATOM      3  C   UNL     1       1.172   3.435  -0.240  0.00  0.00    +0.270 C 
ATOM      4  O   UNL     1       0.138   4.049  -0.396  0.00  0.00    -0.270 OA
ATOM      5  N   UNL     1       1.170   2.088  -0.287  0.00  0.00    -0.232 N 
ATOM      6  H   UNL     1       1.997   1.597  -0.162  0.00  0.00    +0.173 HD
BRANCH   3   7
ATOM      7  C   UNL     1       2.460   4.178   0.008  0.00  0.00    +0.257 C 
ATOM      8  C   UNL     1       3.417   3.944  -1.163  0.00  0.00    +0.062 C 
BRANCH   7   9
ATOM      9  O   UNL     1       2.188   5.575   0.129  0.00  0.00    -0.480 OA
BRANCH   9  14
ATOM     10  C   UNL     1       5.875   8.654   3.069  0.00  0.00    +0.044 C 
ATOM     11  C   UNL     1       4.889   7.830   2.282  0.00  0.00    -0.047 A 
ATOM     12  C   UNL     1       3.725   8.411   1.811  0.00  0.00    +0.007 A 
ATOM     13  C   UNL     1       2.819   7.658   1.090  0.00  0.00    +0.046 A 
ATOM     14  C   UNL     1       3.077   6.318   0.838  0.00  0.00    +0.122 A 
ATOM     15  C   UNL     1       4.242   5.737   1.316  0.00  0.00    +0.049 A 
ATOM     16  C   UNL     1       5.148   6.495   2.033  0.00  0.00    -0.044 A 
ATOM     17  C   UNL     1       6.416   5.866   2.548  0.00  0.00    +0.044 C 
ENDBRANCH   9  14
ENDBRANCH   7   9
ENDBRANCH   3   7
ENDBRANCH   1   5
BRANCH   1  18
ATOM     18  C   UNL     1      -0.029   0.050  -0.564  0.00  0.00    +0.153 C 
ATOM     19  S   UNL     1      -1.492  -0.794  -0.845  0.00  0.00    -0.017 S 
BRANCH  18  20
ATOM     20  N   UNL     1       1.120  -0.632  -0.390  0.00  0.00    -0.263 N 
ATOM     21  C   UNL     1       1.117  -1.979  -0.437  0.00  0.00    +0.242 C 
ATOM     22  O   UNL     1       0.078  -2.579  -0.637  0.00  0.00    -0.270 OA
ATOM     23  H   UNL     1       1.948  -0.154  -0.231  0.00  0.00    +0.157 HD
BRANCH  21  24
ATOM     24  C   UNL     1       2.364  -2.720  -0.248  0.00  0.00    +0.068 C 
ATOM     25  C   UNL     1       2.362  -4.068  -0.296  0.00  0.00    +0.014 C 
BRANCH  25  26
ATOM     26  C   UNL     1       3.616  -4.813  -0.106  0.00  0.00    -0.007 A 
ATOM     27  C   UNL     1       4.814  -4.127   0.124  0.00  0.00    +0.009 A 
ATOM     28  C   UNL     1       5.985  -4.832   0.301  0.00  0.00    +0.001 A 
ATOM     29  C   UNL     1       5.979  -6.216   0.253  0.00  0.00    +0.001 A 
ATOM     30  C   UNL     1       4.800  -6.903   0.025  0.00  0.00    +0.020 A 
ATOM     31  C   UNL     1       3.617  -6.212  -0.148  0.00  0.00    +0.048 A 
ATOM     32 CL   UNL     1       2.137  -7.076  -0.426  0.00  0.00    -0.083 Cl
ENDBRANCH  25  26
ENDBRANCH  21  24
ENDBRANCH  18  20
ENDBRANCH   1  18
TORSDOF 8
