REMARK  Name = ZINC19799921
REMARK  11 active torsions:
REMARK  status: ('A' for Active; 'I' for Inactive)
REMARK    1  A    between atoms: C_1  and  C_2
REMARK    2  A    between atoms: C_6  and  C_8
REMARK    3  A    between atoms: N_10  and  C_11
REMARK    4  A    between atoms: C_11  and  C_13
REMARK    5  A    between atoms: C_11  and  N_17
REMARK    6  A    between atoms: N_17  and  C_18
REMARK    7  A    between atoms: C_18  and  N_20
REMARK    8  A    between atoms: N_20  and  C_21
REMARK    9  A    between atoms: C_23  and  N_29
REMARK   10  A    between atoms: C_26  and  O_27
REMARK   11  A    between atoms: O_27  and  C_28
REMARK                            x       y       z     vdW  Elec       q    Type
REMARK                         _______ _______ _______ _____ _____    ______ ____
ROOT
ATOM      1  N   UNL     1       1.570   4.327   1.286  0.00  0.00    -0.305 N 
ATOM      2  H   UNL     1       2.564   4.098   1.697  0.00  0.00    +0.150 HD
ENDROOT
BRANCH   1   3
ATOM      3  C   UNL     1       0.610   4.831   2.087  0.00  0.00    +0.136 C 
ATOM      4  S   UNL     1      -0.938   5.189   1.448  0.00  0.00    -0.019 S 
BRANCH   3   5
ATOM      5  N   UNL     1       0.868   5.054   3.391  0.00  0.00    -0.294 N 
ATOM      6  H   UNL     1       1.838   4.759   3.817  0.00  0.00    +0.154 HD
BRANCH   5   7
ATOM      7  C   UNL     1      -0.099   5.661   4.203  0.00  0.00    +0.077 A 
ATOM      8  C   UNL     1      -1.413   5.218   4.169  0.00  0.00    +0.059 A 
ATOM      9  C   UNL     1      -2.365   5.819   4.971  0.00  0.00    +0.128 A 
ATOM     10  C   UNL     1      -2.011   6.861   5.808  0.00  0.00    +0.036 A 
ATOM     11  C   UNL     1      -0.703   7.308   5.847  0.00  0.00    +0.050 A 
ATOM     12  C   UNL     1       0.258   6.707   5.051  0.00  0.00    +0.141 A 
BRANCH   9  13
ATOM     13  N   UNL     1      -3.767   5.345   4.934  0.00  0.00    +0.056 N 
ATOM     14  O   UNL     1      -4.080   4.427   4.197  0.00  0.00    -0.126 OA
ATOM     15  O   UNL     1      -4.607   5.874   5.640  0.00  0.00    -0.126 OA
ENDBRANCH   9  13
BRANCH  12  16
ATOM     16  O   UNL     1       1.546   7.142   5.092  0.00  0.00    -0.493 OA
ATOM     17  C   UNL     1       1.839   8.219   5.985  0.00  0.00    +0.277 C 
ENDBRANCH  12  16
ENDBRANCH   5   7
ENDBRANCH   3   5
ENDBRANCH   1   3
BRANCH   1  18
ATOM     18  C   UNL     1       1.289   4.085  -0.131  0.00  0.00    +0.211 C 
BRANCH  18  21
ATOM     19  C   UNL     1      -0.107   2.134  -0.552  0.00  0.00    +0.246 C 
ATOM     20  O   UNL     1      -1.079   2.864  -0.545  0.00  0.00    -0.270 OA
ATOM     21  N   UNL     1       1.123   2.648  -0.357  0.00  0.00    -0.290 N 
ATOM     22  H   UNL     1       2.003   1.987  -0.368  0.00  0.00    +0.151 HD
BRANCH  19  28
ATOM     23  C   UNL     1      -3.071  -1.787  -1.414  0.00  0.00    +0.044 C 
ATOM     24  C   UNL     1      -1.698  -1.207  -1.195  0.00  0.00    -0.050 A 
ATOM     25  C   UNL     1      -0.589  -2.035  -1.209  0.00  0.00    +0.003 A 
ATOM     26  C   UNL     1       0.676  -1.511  -1.009  0.00  0.00    +0.001 A 
ATOM     27  C   UNL     1       0.839  -0.158  -0.795  0.00  0.00    +0.013 A 
ATOM     28  C   UNL     1      -0.275   0.683  -0.781  0.00  0.00    +0.037 A 
ATOM     29  C   UNL     1      -1.549   0.146  -0.978  0.00  0.00    +0.016 A 
ENDBRANCH  19  28
ENDBRANCH  18  21
BRANCH  18  30
ATOM     30  C   UNL     1       2.454   4.604  -0.977  0.00  0.00    +0.225 C 
ATOM     31 CL   UNL     1       2.108   4.306  -2.722  0.00  0.00    -0.080 Cl
ATOM     32 CL   UNL     1       2.658   6.373  -0.699  0.00  0.00    -0.080 Cl
ATOM     33 CL   UNL     1       3.967   3.743  -0.509  0.00  0.00    -0.080 Cl
ENDBRANCH  18  30
ENDBRANCH   1  18
TORSDOF 9
