REMARK  Name = ZINC35867785
REMARK  8 active torsions:
REMARK  status: ('A' for Active; 'I' for Inactive)
REMARK    1  A    between atoms: C_1  and  C_2
REMARK    2  A    between atoms: N_4  and  C_5
REMARK    3  A    between atoms: C_8  and  S_11
REMARK    4  A    between atoms: S_11  and  N_14
REMARK    5  A    between atoms: C_27  and  C_29
REMARK    6  A    between atoms: C_29  and  N_30
REMARK    7  A    between atoms: N_30  and  C_31
REMARK    8  A    between atoms: N_30  and  C_32
REMARK                            x       y       z     vdW  Elec       q    Type
REMARK                         _______ _______ _______ _____ _____    ______ ____
ROOT
ATOM      1  N   UNL     1      -0.670  -6.971   1.976  0.00  0.00    -0.174 NA
ATOM      2  C   UNL     1       0.539  -6.861   2.804  0.00  0.00    +0.128 C 
ATOM      3  C   UNL     1       0.228  -5.967   4.010  0.00  0.00    +0.123 C 
ATOM      4  N   UNL     1      -1.017  -6.437   4.635  0.00  0.00    -0.312 N 
ATOM      5  C   UNL     1      -2.226  -6.547   3.807  0.00  0.00    +0.123 C 
ATOM      6  C   UNL     1      -1.917  -7.436   2.602  0.00  0.00    +0.128 C 
ATOM      7  C   UNL     1      -1.049  -6.770   5.977  0.00  0.00    +0.133 A 
ATOM      8  C   UNL     1      -1.255  -5.766   6.964  0.00  0.00    +0.051 A 
ATOM      9  C   UNL     1      -1.452  -4.327   6.781  0.00  0.00    -0.025 A 
ATOM     10  C   UNL     1      -1.627  -3.587   7.894  0.00  0.00    -0.004 A 
ATOM     11  S   UNL     1      -1.543  -4.743   9.236  0.00  0.00    -0.073 S 
ATOM     12  C   UNL     1      -1.270  -6.223   8.297  0.00  0.00    +0.114 A 
ATOM     13  N   UNL     1      -1.101  -7.497   8.591  0.00  0.00    -0.227 NA
ATOM     14  C   UNL     1      -0.913  -8.382   7.632  0.00  0.00    +0.116 A 
ATOM     15  N   UNL     1      -0.894  -8.027   6.359  0.00  0.00    -0.219 NA
ATOM     16  C   UNL     1      -1.846  -2.107   7.975  0.00  0.00    +0.043 C 
ATOM     17  C   UNL     1      -1.470  -1.487   6.622  0.00  0.00    +0.005 C 
ATOM     18  C   UNL     1      -2.131  -2.304   5.508  0.00  0.00    +0.005 C 
ATOM     19  C   UNL     1      -1.461  -3.674   5.401  0.00  0.00    +0.037 C 
ENDROOT
BRANCH   1  20
ATOM     20  S   UNL     1      -0.632  -6.573   0.370  0.00  0.00    +0.061 S 
ATOM     21  O   UNL     1      -1.701  -7.275  -0.249  0.00  0.00    -0.153 OA
ATOM     22  O   UNL     1       0.718  -6.715  -0.052  0.00  0.00    -0.153 OA
BRANCH  20  26
ATOM     23  C   UNL     1      -1.627  -2.165   0.059  0.00  0.00    +0.033 A 
ATOM     24  C   UNL     1      -0.307  -2.572   0.202  0.00  0.00    +0.025 A 
ATOM     25  C   UNL     1      -0.007  -3.917   0.296  0.00  0.00    +0.030 A 
ATOM     26  C   UNL     1      -1.019  -4.858   0.249  0.00  0.00    +0.106 A 
ATOM     27  C   UNL     1      -2.334  -4.456   0.106  0.00  0.00    +0.030 A 
ATOM     28  C   UNL     1      -2.642  -3.113   0.018  0.00  0.00    +0.025 A 
BRANCH  23  32
ATOM     29  C   UNL     1      -3.341   1.155   0.516  0.00  0.00    +0.109 C 
ATOM     30  C   UNL     1      -3.063  -0.327   0.524  0.00  0.00    +0.214 C 
ATOM     31  O   UNL     1      -3.855  -1.089   1.036  0.00  0.00    -0.276 OA
ATOM     32  N   UNL     1      -1.935  -0.804  -0.037  0.00  0.00    -0.286 N 
ATOM     33  H   UNL     1      -1.335  -0.203  -0.507  0.00  0.00    +0.155 HD
ENDBRANCH  23  32
ENDBRANCH  20  26
ENDBRANCH   1  20
BRANCH  14  34
ATOM     34  C   UNL     1      -0.722  -9.833   7.994  0.00  0.00    -0.002 C 
BRANCH  34  35
ATOM     35  N   UNL     1      -2.028 -10.504   8.029  0.00  0.00    +0.381 N 
ATOM     36  C   UNL     1      -1.833 -11.941   8.264  0.00  0.00    -0.096 C 
ATOM     37  C   UNL     1      -2.842  -9.937   9.113  0.00  0.00    -0.096 C 
ATOM     38  H   UNL     1      -2.500 -10.369   7.148  0.00  0.00    -0.082 HD
ENDBRANCH  34  35
ENDBRANCH  14  34
TORSDOF 5
