REMARK  Name = ZINC12340554
REMARK  8 active torsions:
REMARK  status: ('A' for Active; 'I' for Inactive)
REMARK    1  A    between atoms: C_1  and  C_2
REMARK    2  A    between atoms: C_2  and  C_3
REMARK    3  A    between atoms: C_3  and  C_4
REMARK    4  A    between atoms: N_13  and  S_16
REMARK    5  A    between atoms: S_16  and  C_19
REMARK    6  A    between atoms: C_22  and  C_24
REMARK    7  A    between atoms: C_24  and  N_25
REMARK    8  A    between atoms: C_26  and  C_28
REMARK                            x       y       z     vdW  Elec       q    Type
REMARK                         _______ _______ _______ _____ _____    ______ ____
ROOT
ATOM      1  S   UNL     1      -0.129  -6.454  -1.105  0.00  0.00    +0.067 S 
ATOM      2  O   UNL     1       0.390  -6.294  -2.418  0.00  0.00    -0.152 OA
ATOM      3  O   UNL     1       0.580  -7.144  -0.085  0.00  0.00    -0.152 OA
ENDROOT
BRANCH   1  13
ATOM      4  C   UNL     1      -8.292  -6.819  -0.573  0.00  0.00    -0.011 A 
ATOM      5  C   UNL     1      -7.652  -7.825   0.133  0.00  0.00    +0.119 A 
ATOM      6  N   UNL     1      -6.367  -8.052  -0.087  0.00  0.00    -0.222 NA
ATOM      7  C   UNL     1      -5.694  -7.329  -0.970  0.00  0.00    +0.218 A 
ATOM      8  N   UNL     1      -6.275  -6.356  -1.657  0.00  0.00    -0.222 NA
ATOM      9  C   UNL     1      -7.558  -6.082  -1.488  0.00  0.00    +0.119 A 
ATOM     10  N   UNL     1      -4.351  -7.593  -1.175  0.00  0.00    -0.297 N 
ATOM     11  C   UNL     1      -3.786  -6.690  -2.187  0.00  0.00    +0.125 C 
ATOM     12  C   UNL     1      -2.355  -7.129  -2.516  0.00  0.00    +0.128 C 
ATOM     13  N   UNL     1      -1.592  -7.213  -1.262  0.00  0.00    -0.173 NA
ATOM     14  C   UNL     1      -2.159  -7.995  -0.153  0.00  0.00    +0.128 C 
ATOM     15  C   UNL     1      -3.601  -7.517   0.085  0.00  0.00    +0.125 C 
BRANCH   4  16
ATOM     16  C   UNL     1      -9.754  -6.531  -0.348  0.00  0.00    +0.038 C 
BRANCH  16  18
ATOM     17  C   UNL     1     -11.389  -5.198   0.990  0.00  0.00    +0.004 C 
ATOM     18  C   UNL     1      -9.905  -5.490   0.762  0.00  0.00    +0.001 C 
ENDBRANCH  16  18
ENDBRANCH   4  16
ENDBRANCH   1  13
BRANCH   1  19
ATOM     19  C   UNL     1      -0.446  -4.833  -0.489  0.00  0.00    +0.143 A 
ATOM     20  C   UNL     1      -0.520  -4.408   0.796  0.00  0.00    +0.037 A 
ATOM     21  C   UNL     1      -0.784  -3.074   1.046  0.00  0.00    +0.015 A 
ATOM     22  C   UNL     1      -0.961  -2.232  -0.001  0.00  0.00    +0.009 A 
ATOM     23  S   UNL     1      -0.762  -3.328  -1.395  0.00  0.00    -0.072 S 
BRANCH  22  24
ATOM     24  C   UNL     1      -1.256  -0.754   0.010  0.00  0.00    +0.147 C 
BRANCH  24  25
ATOM     25  N   UNL     1       0.002  -0.004   0.002  0.00  0.00    -0.307 N 
ATOM     26  C   UNL     1      -0.016   1.344   0.009  0.00  0.00    +0.244 C 
ATOM     27  O   UNL     1      -1.077   1.937   0.018  0.00  0.00    -0.270 OA
ATOM     28  H   UNL     1       0.849  -0.478  -0.009  0.00  0.00    +0.149 HD
BRANCH  26  29
ATOM     29  C   UNL     1       1.254   2.100   0.001  0.00  0.00    +0.037 A 
ATOM     30  C   UNL     1       2.474   1.422  -0.008  0.00  0.00    +0.013 A 
ATOM     31  C   UNL     1       3.655   2.134  -0.021  0.00  0.00    +0.001 A 
ATOM     32  C   UNL     1       3.633   3.517  -0.013  0.00  0.00    +0.000 A 
ATOM     33  C   UNL     1       2.427   4.196   0.002  0.00  0.00    +0.001 A 
ATOM     34  C   UNL     1       1.239   3.496   0.009  0.00  0.00    +0.013 A 
ENDBRANCH  26  29
ENDBRANCH  24  25
ENDBRANCH  22  24
ENDBRANCH   1  19
TORSDOF 7
