REMARK  Name = ZINC48288099
REMARK  9 active torsions:
REMARK  status: ('A' for Active; 'I' for Inactive)
REMARK    1  A    between atoms: C_1  and  C_2
REMARK    2  A    between atoms: N_5  and  C_8
REMARK    3  A    between atoms: C_8  and  C_10
REMARK    4  A    between atoms: C_8  and  C_29
REMARK    5  A    between atoms: C_10  and  N_11
REMARK    6  A    between atoms: N_11  and  S_12
REMARK    7  A    between atoms: S_12  and  C_15
REMARK    8  A    between atoms: C_18  and  S_21
REMARK    9  A    between atoms: S_21  and  N_24
REMARK                            x       y       z     vdW  Elec       q    Type
REMARK                         _______ _______ _______ _____ _____    ______ ____
ROOT
ATOM      1  N   UNL     1       1.678  -4.050   2.412  0.00  0.00    -0.191 NA
ATOM      2  H   UNL     1       0.964  -3.397   2.345  0.00  0.00    +0.148 HD
ENDROOT
BRANCH   1   3
ATOM      3  S   UNL     1       2.068  -4.703   3.883  0.00  0.00    +0.058 S 
ATOM      4  O   UNL     1       1.210  -4.094   4.838  0.00  0.00    -0.153 OA
ATOM      5  O   UNL     1       2.126  -6.111   3.700  0.00  0.00    -0.153 OA
BRANCH   3   6
ATOM      6  C   UNL     1       3.704  -4.177   4.269  0.00  0.00    +0.105 A 
ATOM      7  C   UNL     1       4.787  -4.937   3.868  0.00  0.00    +0.030 A 
ATOM      8  C   UNL     1       6.071  -4.525   4.171  0.00  0.00    +0.030 A 
ATOM      9  C   UNL     1       6.273  -3.352   4.874  0.00  0.00    +0.106 A 
ATOM     10  C   UNL     1       5.190  -2.591   5.274  0.00  0.00    +0.030 A 
ATOM     11  C   UNL     1       3.906  -3.001   4.968  0.00  0.00    +0.030 A 
BRANCH   9  12
ATOM     12  S   UNL     1       7.909  -2.826   5.261  0.00  0.00    +0.061 S 
ATOM     13  O   UNL     1       7.806  -1.979   6.397  0.00  0.00    -0.153 OA
ATOM     14  O   UNL     1       8.723  -3.991   5.251  0.00  0.00    -0.153 OA
BRANCH  12  15
ATOM     15  N   UNL     1       8.428  -1.875   4.008  0.00  0.00    -0.177 NA
ATOM     16  C   UNL     1       9.130  -2.349   2.807  0.00  0.00    +0.109 C 
ATOM     17  C   UNL     1       9.434  -1.112   1.936  0.00  0.00    +0.018 C 
ATOM     18  C   UNL     1       9.389   0.053   2.959  0.00  0.00    +0.018 C 
ATOM     19  C   UNL     1       8.255  -0.415   3.909  0.00  0.00    +0.109 C 
ENDBRANCH  12  15
ENDBRANCH   9  12
ENDBRANCH   3   6
ENDBRANCH   1   3
BRANCH   1  20
ATOM     20  C   UNL     1       2.411  -4.460   1.211  0.00  0.00    +0.095 C 
BRANCH  20  21
ATOM     21  C   UNL     1       1.618  -4.054  -0.033  0.00  0.00    -0.022 C 
BRANCH  21  26
ATOM     22  C   UNL     1       4.511  -4.182  -4.946  0.00  0.00    +0.007 C 
ATOM     23  C   UNL     1       3.699  -3.715  -3.736  0.00  0.00    -0.018 C 
ATOM     24  C   UNL     1       2.373  -4.480  -3.684  0.00  0.00    -0.015 C 
ATOM     25  C   UNL     1       1.600  -4.067  -2.430  0.00  0.00    -0.078 C 
ATOM     26  N   UNL     1       2.395  -4.381  -1.236  0.00  0.00    +0.385 N 
ATOM     27  C   UNL     1       3.636  -3.597  -1.243  0.00  0.00    -0.078 C 
ATOM     28  C   UNL     1       4.486  -3.992  -2.452  0.00  0.00    -0.015 C 
ATOM     29  H   UNL     1       2.620  -5.364  -1.232  0.00  0.00    -0.081 HD
ENDBRANCH  21  26
BRANCH  21  30
ATOM     30  C   UNL     1       0.310  -4.803  -0.061  0.00  0.00    -0.060 A 
ATOM     31  C   UNL     1       0.273  -6.113  -0.500  0.00  0.00    +0.002 A 
ATOM     32  C   UNL     1      -0.927  -6.800  -0.525  0.00  0.00    +0.000 A 
ATOM     33  C   UNL     1      -2.089  -6.176  -0.112  0.00  0.00    +0.000 A 
ATOM     34  C   UNL     1      -2.052  -4.866   0.327  0.00  0.00    +0.000 A 
ATOM     35  C   UNL     1      -0.851  -4.181   0.357  0.00  0.00    +0.002 A 
ENDBRANCH  21  30
ENDBRANCH  20  21
ENDBRANCH   1  20
TORSDOF 8
