REMARK  Name = ZINC35246285
REMARK  14 active torsions:
REMARK  status: ('A' for Active; 'I' for Inactive)
REMARK    1  A    between atoms: C_1  and  C_2
REMARK    2  A    between atoms: C_2  and  C_3
REMARK    3  A    between atoms: C_3  and  C_4
REMARK    4  A    between atoms: C_4  and  N_5
REMARK    5  A    between atoms: C_6  and  C_39
REMARK    6  A    between atoms: C_7  and  C_32
REMARK    7  A    between atoms: C_8  and  C_13
REMARK    8  A    between atoms: C_17  and  N_19
REMARK    9  A    between atoms: C_20  and  C_22
REMARK   10  A    between atoms: C_32  and  O_34
REMARK   11  A    between atoms: O_34  and  C_35
REMARK   12  A    between atoms: C_35  and  C_36
REMARK   13  A    between atoms: C_36  and  O_37
REMARK   14  A    between atoms: O_37  and  C_38
REMARK                            x       y       z     vdW  Elec       q    Type
REMARK                         _______ _______ _______ _____ _____    ______ ____
ROOT
ATOM      1  N   UNL     1      -2.693  -2.491  -0.875  0.00  0.00    -0.259 N 
ATOM      2  C   UNL     1      -2.912  -2.694   0.457  0.00  0.00    +0.024 C 
ATOM      3  C   UNL     1      -4.020  -3.332   0.892  0.00  0.00    +0.078 C 
ATOM      4  C   UNL     1      -5.011  -3.812  -0.148  0.00  0.00    +0.144 C 
ATOM      5  N   UNL     1      -4.682  -3.543  -1.558  0.00  0.00    -0.288 N 
ATOM      6  C   UNL     1      -3.537  -2.890  -1.836  0.00  0.00    +0.307 C 
ATOM      7  O   UNL     1      -3.258  -2.660  -2.996  0.00  0.00    -0.252 OA
ATOM      8  C   UNL     1      -1.899  -2.200   1.458  0.00  0.00    +0.061 C 
ATOM      9  H   UNL     1      -5.277  -3.827  -2.269  0.00  0.00    +0.151 HD
ENDROOT
BRANCH   4  10
ATOM     10  C   UNL     1      -5.170  -5.302   0.015  0.00  0.00    -0.021 A 
ATOM     11  C   UNL     1      -6.347  -5.820   0.525  0.00  0.00    +0.006 A 
ATOM     12  C   UNL     1      -6.496  -7.186   0.676  0.00  0.00    +0.002 A 
ATOM     13  C   UNL     1      -5.470  -8.038   0.318  0.00  0.00    +0.023 A 
ATOM     14  C   UNL     1      -4.287  -7.522  -0.194  0.00  0.00    +0.034 A 
ATOM     15  C   UNL     1      -4.142  -6.149  -0.349  0.00  0.00    +0.029 A 
BRANCH  14  16
ATOM     16  N   UNL     1      -3.245  -8.382  -0.557  0.00  0.00    -0.285 N 
ATOM     17  C   UNL     1      -3.522  -9.607  -1.046  0.00  0.00    +0.223 C 
ATOM     18  O   UNL     1      -4.672  -9.929  -1.259  0.00  0.00    -0.275 OA
ATOM     19  H   UNL     1      -2.323  -8.098  -0.456  0.00  0.00    +0.155 HD
BRANCH  17  20
ATOM     20  C   UNL     1      -2.404 -10.576  -1.330  0.00  0.00    +0.048 C 
ATOM     21  C   UNL     1      -1.706 -10.947  -0.019  0.00  0.00    +0.019 C 
ATOM     22  C   UNL     1      -0.570 -11.931  -0.307  0.00  0.00    -0.009 C 
ATOM     23  C   UNL     1      -1.141 -13.194  -0.956  0.00  0.00    +0.007 C 
ATOM     24  C   UNL     1      -1.839 -12.823  -2.266  0.00  0.00    -0.009 C 
ATOM     25  C   UNL     1      -2.975 -11.839  -1.978  0.00  0.00    +0.019 C 
ATOM     26  C   UNL     1      -0.830 -12.174  -3.215  0.00  0.00    +0.007 C 
ATOM     27  C   UNL     1      -0.259 -10.911  -2.567  0.00  0.00    -0.009 C 
ATOM     28  C   UNL     1       0.439 -11.282  -1.256  0.00  0.00    +0.007 C 
ATOM     29  C   UNL     1      -1.395  -9.927  -2.279  0.00  0.00    +0.019 C 
ENDBRANCH  17  20
ENDBRANCH  14  16
ENDBRANCH   4  10
BRANCH   3  30
ATOM     30  C   UNL     1      -4.247  -3.543   2.272  0.00  0.00    +0.339 C 
ATOM     31  O   UNL     1      -3.450  -3.125   3.091  0.00  0.00    -0.245 OA
BRANCH  30  32
ATOM     32  O   UNL     1      -5.348  -4.209   2.681  0.00  0.00    -0.459 OA
BRANCH  32  33
ATOM     33  C   UNL     1      -5.567  -4.297   4.090  0.00  0.00    +0.260 C 
BRANCH  33  34
ATOM     34  C   UNL     1      -6.786  -5.180   4.362  0.00  0.00    +0.200 C 
BRANCH  34  35
ATOM     35  O   UNL     1      -6.502  -6.521   3.958  0.00  0.00    -0.380 OA
ATOM     36  C   UNL     1      -7.605  -7.418   4.105  0.00  0.00    +0.194 C 
ENDBRANCH  34  35
ENDBRANCH  33  34
ENDBRANCH  32  33
ENDBRANCH  30  32
ENDBRANCH   3  30
BRANCH   1  37
ATOM     37  C   UNL     1      -1.469  -1.792  -1.277  0.00  0.00    +0.115 C 
BRANCH  37  38
ATOM     38  C   UNL     1      -0.315  -2.793  -1.362  0.00  0.00    +0.019 C 
BRANCH  38  40
ATOM     39  C   UNL     1       2.117  -3.064  -1.866  0.00  0.00    +0.004 C 
ATOM     40  C   UNL     1       0.963  -2.064  -1.781  0.00  0.00    -0.002 C 
ENDBRANCH  38  40
ENDBRANCH  37  38
ENDBRANCH   1  37
TORSDOF 11
