REMARK  Name = ZINC63209186
REMARK  4 active torsions:
REMARK  status: ('A' for Active; 'I' for Inactive)
REMARK    1  A    between atoms: C_3  and  N_19
REMARK    2  A    between atoms: C_4  and  N_8
REMARK    3  A    between atoms: N_8  and  S_9
REMARK    4  A    between atoms: S_9  and  N_12
REMARK                            x       y       z     vdW  Elec       q    Type
REMARK                         _______ _______ _______ _____ _____    ______ ____
ROOT
ATOM      1  N   UNL     1       3.623  -0.660  -0.037  0.00  0.00    -0.205 N 
ATOM      2  H   UNL     1       4.364  -0.323   0.489  0.00  0.00    +0.175 HD
ENDROOT
BRANCH   1   6
ATOM      3  C   UNL     1       0.161   1.628  -0.472  0.00  0.00    +0.040 A 
ATOM      4  C   UNL     1       1.395   2.252  -0.420  0.00  0.00    +0.027 A 
ATOM      5  C   UNL     1       2.548   1.496  -0.276  0.00  0.00    +0.047 A 
ATOM      6  C   UNL     1       2.461   0.107  -0.183  0.00  0.00    +0.072 A 
ATOM      7  C   UNL     1       1.221  -0.511  -0.235  0.00  0.00    +0.064 A 
ATOM      8  C   UNL     1       0.074   0.250  -0.380  0.00  0.00    +0.125 A 
ATOM      9  F   UNL     1      -1.134  -0.354  -0.431  0.00  0.00    -0.205 F 
BRANCH   5  10
ATOM     10  N   UNL     1       3.799   2.127  -0.224  0.00  0.00    -0.357 N 
ATOM     11  H   UNL     1       3.858   3.093  -0.289  0.00  0.00    +0.142 HD
ATOM     12  H   UNL     1       4.605   1.597  -0.123  0.00  0.00    +0.142 HD
ENDBRANCH   5  10
ENDBRANCH   1   6
BRANCH   1  13
ATOM     13  S   UNL     1       3.731  -2.145  -0.763  0.00  0.00    +0.112 S 
ATOM     14  O   UNL     1       5.053  -2.613  -0.536  0.00  0.00    -0.138 OA
ATOM     15  O   UNL     1       2.583  -2.879  -0.360  0.00  0.00    -0.138 OA
BRANCH  13  16
ATOM     16  N   UNL     1       3.588  -1.903  -2.396  0.00  0.00    -0.164 NA
ATOM     17  C   UNL     1       2.269  -1.932  -2.988  0.00  0.00    +0.111 C 
ATOM     18  C   UNL     1       1.920  -3.381  -3.408  0.00  0.00    +0.017 C 
ATOM     19  C   UNL     1       2.722  -3.782  -4.574  0.00  0.00    +0.001 C 
ATOM     20  C   UNL     1       4.226  -3.814  -4.321  0.00  0.00    +0.001 C 
ATOM     21  C   UNL     1       4.797  -2.432  -4.521  0.00  0.00    +0.017 C 
ATOM     22  C   UNL     1       4.812  -1.661  -3.185  0.00  0.00    +0.111 C 
ENDBRANCH  13  16
ENDBRANCH   1  13
TORSDOF 4
