REMARK  Name = ZINC19105417
REMARK  12 active torsions:
REMARK  status: ('A' for Active; 'I' for Inactive)
REMARK    1  A    between atoms: C_1  and  C_2
REMARK    2  A    between atoms: C_3  and  C_30
REMARK    3  A    between atoms: C_5  and  N_23
REMARK    4  A    between atoms: C_6  and  C_7
REMARK    5  A    between atoms: C_7  and  O_9
REMARK    6  A    between atoms: O_9  and  C_10
REMARK    7  A    between atoms: C_10  and  C_11
REMARK    8  A    between atoms: N_13  and  C_14
REMARK    9  A    between atoms: C_24  and  C_26
REMARK   10  A    between atoms: C_26  and  C_27
REMARK   11  A    between atoms: C_26  and  C_28
REMARK   12  A    between atoms: C_26  and  C_29
REMARK                            x       y       z     vdW  Elec       q    Type
REMARK                         _______ _______ _______ _____ _____    ______ ____
ROOT
ATOM      1  C   UNL     1       0.028  -0.120   2.531  0.00  0.00    +0.342 C 
ATOM      2  O   UNL     1      -1.024   0.137   3.085  0.00  0.00    -0.245 OA
ENDROOT
BRANCH   1   8
ATOM      3  C   UNL     1       0.000   1.523   0.002  0.00  0.00    +0.045 C 
ATOM      4  C   UNL     1       0.011   0.016  -0.007  0.00  0.00    -0.025 A 
ATOM      5  C   UNL     1       0.015  -0.692  -1.152  0.00  0.00    -0.008 A 
ATOM      6  S   UNL     1       0.029  -2.380  -0.590  0.00  0.00    -0.078 S 
ATOM      7  C   UNL     1       0.029  -2.140   1.070  0.00  0.00    +0.086 A 
ATOM      8  C   UNL     1       0.025  -0.759   1.213  0.00  0.00    +0.091 A 
ATOM      9  C   UNL     1       0.009  -0.178  -2.568  0.00  0.00    +0.052 C 
BRANCH   7  10
ATOM     10  N   UNL     1       0.038  -3.099   2.070  0.00  0.00    -0.279 N 
ATOM     11  C   UNL     1       0.048  -4.408   1.748  0.00  0.00    +0.223 C 
ATOM     12  O   UNL     1       0.049  -4.746   0.583  0.00  0.00    -0.275 OA
ATOM     13  H   UNL     1       0.037  -2.829   3.002  0.00  0.00    +0.155 HD
BRANCH  11  14
ATOM     14  C   UNL     1       0.057  -5.452   2.835  0.00  0.00    +0.039 C 
ATOM     15  C   UNL     1       0.068  -6.846   2.204  0.00  0.00    +0.020 C 
ATOM     16  C   UNL     1       1.306  -5.275   3.701  0.00  0.00    +0.020 C 
ATOM     17  C   UNL     1      -1.192  -5.295   3.704  0.00  0.00    +0.020 C 
ENDBRANCH  11  14
ENDBRANCH   7  10
ENDBRANCH   1   8
BRANCH   1  18
ATOM     18  O   UNL     1       1.198   0.182   3.130  0.00  0.00    -0.452 OA
BRANCH  18  19
ATOM     19  C   UNL     1       1.127   0.804   4.415  0.00  0.00    +0.328 C 
BRANCH  19  20
ATOM     20  C   UNL     1       2.521   1.065   4.925  0.00  0.00    +0.255 C 
ATOM     21  O   UNL     1       3.481   0.750   4.254  0.00  0.00    -0.272 OA
ATOM     22  N   UNL     1       2.700   1.649   6.126  0.00  0.00    -0.281 N 
ATOM     23  H   UNL     1       1.935   1.961   6.633  0.00  0.00    +0.155 HD
BRANCH  22  24
ATOM     24  C   UNL     1       3.989   1.805   6.641  0.00  0.00    +0.062 A 
ATOM     25  C   UNL     1       5.030   2.062   5.803  0.00  0.00    +0.025 A 
ATOM     26  C   UNL     1       6.327   2.223   6.285  0.00  0.00    +0.004 A 
ATOM     27  C   UNL     1       6.610   2.130   7.606  0.00  0.00    +0.031 A 
ATOM     28  C   UNL     1       5.575   1.863   8.543  0.00  0.00    +0.102 A 
ATOM     29  C   UNL     1       4.214   1.700   8.046  0.00  0.00    +0.121 A 
ATOM     30  N   UNL     1       3.327   1.461   9.012  0.00  0.00    -0.189 NA
ATOM     31  S   UNL     1       4.169   1.459  10.383  0.00  0.00    +0.117 S 
ATOM     32  N   UNL     1       5.667   1.739   9.867  0.00  0.00    -0.191 NA
ENDBRANCH  22  24
ENDBRANCH  19  20
ENDBRANCH  18  19
ENDBRANCH   1  18
TORSDOF 7
