REMARK  Name = ZINC48445642
REMARK  5 active torsions:
REMARK  status: ('A' for Active; 'I' for Inactive)
REMARK    1  A    between atoms: C_1  and  C_2
REMARK    2  A    between atoms: C_2  and  C_3
REMARK    3  A    between atoms: C_4  and  C_19
REMARK    4  A    between atoms: N_8  and  S_9
REMARK    5  A    between atoms: S_9  and  C_12
REMARK                            x       y       z     vdW  Elec       q    Type
REMARK                         _______ _______ _______ _____ _____    ______ ____
ROOT
ATOM      1  C   UNL     1       0.707  -0.490  -1.238  0.00  0.00    +0.027 A 
ATOM      2  C   UNL     1       2.004  -0.794  -1.188  0.00  0.00    +0.009 A 
ATOM      3  S   UNL     1       2.336  -1.301  -2.868  0.00  0.00    -0.053 S 
ATOM      4  C   UNL     1       0.690  -1.065  -3.523  0.00  0.00    +0.192 A 
ATOM      5  N   UNL     1       0.015  -0.623  -2.406  0.00  0.00    -0.336 N 
ATOM      6  N   UNL     1       0.244  -1.265  -4.739  0.00  0.00    -0.103 NA
ATOM      7  C   UNL     1       2.949  -0.726  -0.016  0.00  0.00    +0.053 C 
ATOM      8  H   UNL     1      -0.929  -0.408  -2.450  0.00  0.00    +0.168 HD
ENDROOT
BRANCH   6   9
ATOM      9  S   UNL     1       1.268  -1.814  -5.918  0.00  0.00    +0.101 S 
ATOM     10  O   UNL     1       2.220  -0.783  -6.141  0.00  0.00    -0.146 OA
ATOM     11  O   UNL     1       1.646  -3.132  -5.545  0.00  0.00    -0.146 OA
BRANCH   9  12
ATOM     12  C   UNL     1       0.327  -1.960  -7.400  0.00  0.00    +0.113 A 
ATOM     13  C   UNL     1      -0.323  -3.145  -7.692  0.00  0.00    +0.030 A 
ATOM     14  C   UNL     1      -1.062  -3.260  -8.854  0.00  0.00    +0.017 A 
ATOM     15  C   UNL     1      -1.151  -2.189  -9.725  0.00  0.00    +0.018 A 
ATOM     16  C   UNL     1      -0.501  -1.004  -9.433  0.00  0.00    +0.017 A 
ATOM     17  C   UNL     1       0.234  -0.888  -8.268  0.00  0.00    +0.030 A 
ATOM     18 BR   UNL     1      -2.162  -2.346 -11.316  0.00  0.00    -0.050 Br
ENDBRANCH   9  12
ENDBRANCH   6   9
BRANCH   1  20
ATOM     19  C   UNL     1      -0.019   1.526   0.010  0.00  0.00    +0.010 C 
ATOM     20  C   UNL     1       0.002  -0.004   0.002  0.00  0.00    +0.050 C 
ENDBRANCH   1  20
TORSDOF 3
