REMARK  Name = ZINC63117885
REMARK  9 active torsions:
REMARK  status: ('A' for Active; 'I' for Inactive)
REMARK    1  A    between atoms: C_1  and  C_2
REMARK    2  A    between atoms: C_2  and  C_4
REMARK    3  A    between atoms: C_2  and  O_17
REMARK    4  A    between atoms: O_17  and  C_18
REMARK    5  A    between atoms: C_18  and  C_20
REMARK    6  A    between atoms: C_20  and  C_22
REMARK    7  A    between atoms: C_20  and  N_32
REMARK    8  A    between atoms: C_22  and  C_23
REMARK    9  A    between atoms: C_33  and  C_35
REMARK                            x       y       z     vdW  Elec       q    Type
REMARK                         _______ _______ _______ _____ _____    ______ ____
ROOT
ATOM      1  C   UNL     1      -2.103  -0.253   1.052  0.00  0.00    +0.329 C 
ATOM      2  O   UNL     1      -1.506  -0.409   2.090  0.00  0.00    -0.249 OA
ENDROOT
BRANCH   1   3
ATOM      3  O   UNL     1      -1.425  -0.039  -0.087  0.00  0.00    -0.451 OA
BRANCH   3   5
ATOM      4  C   UNL     1       0.464   1.424   0.276  0.00  0.00    +0.062 C 
ATOM      5  C   UNL     1       0.001  -0.009   0.003  0.00  0.00    +0.259 C 
BRANCH   5   6
ATOM      6  C   UNL     1       0.597  -0.491  -1.294  0.00  0.00    +0.261 C 
ATOM      7  O   UNL     1      -0.104  -0.608  -2.277  0.00  0.00    -0.271 OA
ATOM      8  N   UNL     1       1.909  -0.794  -1.362  0.00  0.00    -0.258 N 
ATOM      9  C   UNL     1       2.756  -0.768  -0.161  0.00  0.00    +0.209 C 
ATOM     10  C   UNL     1       4.079  -0.132  -0.506  0.00  0.00    +0.235 C 
ATOM     11  O   UNL     1       4.699   0.463   0.350  0.00  0.00    -0.274 OA
ATOM     12  N   UNL     1       4.580  -0.216  -1.753  0.00  0.00    -0.283 N 
ATOM     13  C   UNL     1       3.861  -0.853  -2.771  0.00  0.00    +0.055 A 
ATOM     14  C   UNL     1       2.508  -1.149  -2.580  0.00  0.00    +0.058 A 
ATOM     15  C   UNL     1       1.783  -1.777  -3.577  0.00  0.00    +0.025 A 
ATOM     16  C   UNL     1       2.403  -2.119  -4.766  0.00  0.00    +0.002 A 
ATOM     17  C   UNL     1       3.743  -1.835  -4.957  0.00  0.00    +0.002 A 
ATOM     18  C   UNL     1       4.476  -1.196  -3.964  0.00  0.00    +0.025 A 
ATOM     19  H   UNL     1       5.448   0.170  -1.948  0.00  0.00    +0.155 HD
ENDBRANCH   5   6
ENDBRANCH   3   5
ENDBRANCH   1   3
BRANCH   1  20
ATOM     20  C   UNL     1      -3.609  -0.299   1.034  0.00  0.00    +0.186 C 
BRANCH  20  21
ATOM     21  N   UNL     1      -4.091  -0.995   2.229  0.00  0.00    -0.302 N 
ATOM     22  C   UNL     1      -3.793  -0.517   3.454  0.00  0.00    +0.211 C 
ATOM     23  O   UNL     1      -3.127   0.491   3.566  0.00  0.00    -0.276 OA
ATOM     24  C   UNL     1      -4.289  -1.234   4.684  0.00  0.00    +0.109 C 
ATOM     25  H   UNL     1      -4.623  -1.801   2.140  0.00  0.00    +0.150 HD
ENDBRANCH  20  21
BRANCH  20  26
ATOM     26  C   UNL     1      -4.162   1.128   1.018  0.00  0.00    +0.067 C 
BRANCH  26  27
ATOM     27  C   UNL     1      -5.662   1.083   0.876  0.00  0.00    -0.039 C 
ATOM     28  C   UNL     1      -6.574   1.133   1.874  0.00  0.00    -0.001 A 
ATOM     29  C   UNL     1      -6.449   1.237   3.332  0.00  0.00    +0.010 A 
ATOM     30  C   UNL     1      -7.570   1.264   4.087  0.00  0.00    +0.001 A 
ATOM     31  C   UNL     1      -8.847   1.194   3.513  0.00  0.00    +0.002 A 
ATOM     32  C   UNL     1      -9.043   1.097   2.181  0.00  0.00    +0.026 A 
ATOM     33  C   UNL     1      -7.934   1.061   1.292  0.00  0.00    +0.043 A 
ATOM     34  N   UNL     1      -7.864   0.971  -0.014  0.00  0.00    -0.380 N 
ATOM     35  C   UNL     1      -6.452   0.982  -0.409  0.00  0.00    +0.144 C 
ATOM     36  H   UNL     1      -8.621   0.912  -0.619  0.00  0.00    +0.160 HD
ENDBRANCH  26  27
ENDBRANCH  20  26
ENDBRANCH   1  20
TORSDOF 7
