REMARK  Name = ZINC21775630
REMARK  12 active torsions:
REMARK  status: ('A' for Active; 'I' for Inactive)
REMARK    1  A    between atoms: C_1  and  C_2
REMARK    2  A    between atoms: C_2  and  C_3
REMARK    3  A    between atoms: C_3  and  O_4
REMARK    4  A    between atoms: O_4  and  C_5
REMARK    5  A    between atoms: C_8  and  S_11
REMARK    6  A    between atoms: S_11  and  N_14
REMARK    7  A    between atoms: N_14  and  C_15
REMARK    8  A    between atoms: C_15  and  C_16
REMARK    9  A    between atoms: C_16  and  C_18
REMARK   10  A    between atoms: C_16  and  N_29
REMARK   11  A    between atoms: N_27  and  C_28
REMARK   12  A    between atoms: N_32  and  C_35
REMARK                            x       y       z     vdW  Elec       q    Type
REMARK                         _______ _______ _______ _____ _____    ______ ____
ROOT
ATOM      1  C   UNL     1       4.106  -1.765   4.101  0.00  0.00    +0.102 C 
ENDROOT
BRANCH   1   2
ATOM      2  C   UNL     1       3.172  -1.060   3.151  0.00  0.00    -0.029 A 
ATOM      3  C   UNL     1       1.948  -1.624   2.838  0.00  0.00    +0.007 A 
ATOM      4  C   UNL     1       1.097  -0.979   1.967  0.00  0.00    +0.024 A 
ATOM      5  C   UNL     1       1.461   0.241   1.396  0.00  0.00    +0.033 A 
ATOM      6  C   UNL     1       2.684   0.803   1.717  0.00  0.00    -0.026 A 
ATOM      7  C   UNL     1       3.536   0.148   2.592  0.00  0.00    +0.010 A 
ATOM      8  C   UNL     1       3.130   2.127   1.148  0.00  0.00    +0.038 C 
ATOM      9  C   UNL     1       2.257   2.490  -0.056  0.00  0.00    +0.024 C 
ATOM     10  C   UNL     1       0.791   2.274   0.342  0.00  0.00    +0.105 C 
ATOM     11  N   UNL     1       0.559   0.839   0.516  0.00  0.00    -0.333 N 
ATOM     12  C   UNL     1      -0.827   0.576   0.924  0.00  0.00    +0.129 C 
ENDBRANCH   1   2
BRANCH   1  13
ATOM     13  N   UNL     1       4.571  -3.018   3.491  0.00  0.00    -0.298 NA
ATOM     14  C   UNL     1       4.786  -2.853   2.047  0.00  0.00    +0.066 C 
ATOM     15  C   UNL     1       5.344  -4.154   1.465  0.00  0.00    -0.064 C 
ATOM     16  N   UNL     1       4.403  -5.250   1.732  0.00  0.00    +0.379 N 
ATOM     17  C   UNL     1       4.188  -5.415   3.177  0.00  0.00    -0.064 C 
ATOM     18  C   UNL     1       3.630  -4.114   3.759  0.00  0.00    +0.066 C 
ATOM     19  C   UNL     1       4.867  -6.503   1.123  0.00  0.00    -0.096 C 
ATOM     20  H   UNL     1       3.438  -4.989   1.273  0.00  0.00    -0.082 HD
ENDBRANCH   1  13
BRANCH   1  21
ATOM     21  C   UNL     1       3.369  -2.075   5.405  0.00  0.00    +0.129 C 
BRANCH  21  22
ATOM     22  N   UNL     1       4.278  -2.760   6.329  0.00  0.00    -0.188 NA
ATOM     23  H   UNL     1       5.091  -3.388   5.935  0.00  0.00    +0.148 HD
BRANCH  22  24
ATOM     24  S   UNL     1       3.939  -2.795   7.949  0.00  0.00    +0.058 S 
ATOM     25  O   UNL     1       4.978  -3.545   8.564  0.00  0.00    -0.153 OA
ATOM     26  O   UNL     1       3.636  -1.460   8.330  0.00  0.00    -0.153 OA
BRANCH  24  30
ATOM     27  C   UNL     1       0.130  -5.188   8.470  0.00  0.00    +0.121 A 
ATOM     28  C   UNL     1       1.362  -5.826   8.503  0.00  0.00    +0.047 A 
ATOM     29  C   UNL     1       2.522  -5.094   8.344  0.00  0.00    +0.032 A 
ATOM     30  C   UNL     1       2.457  -3.726   8.152  0.00  0.00    +0.105 A 
ATOM     31  C   UNL     1       1.232  -3.087   8.124  0.00  0.00    +0.032 A 
ATOM     32  C   UNL     1       0.068  -3.816   8.277  0.00  0.00    +0.047 A 
BRANCH  27  33
ATOM     33  O   UNL     1      -1.013  -5.906   8.626  0.00  0.00    -0.492 OA
BRANCH  33  34
ATOM     34  C   UNL     1      -2.245  -5.183   8.581  0.00  0.00    +0.229 C 
BRANCH  34  36
ATOM     35  C   UNL     1      -4.731  -5.378   8.726  0.00  0.00    +0.007 C 
ATOM     36  C   UNL     1      -3.413  -6.152   8.774  0.00  0.00    +0.038 C 
ENDBRANCH  34  36
ENDBRANCH  33  34
ENDBRANCH  27  33
ENDBRANCH  24  30
ENDBRANCH  22  24
ENDBRANCH  21  22
ENDBRANCH   1  21
TORSDOF 9
