REMARK  Name = ZINC12768631
REMARK  10 active torsions:
REMARK  status: ('A' for Active; 'I' for Inactive)
REMARK    1  A    between atoms: C_1  and  C_2
REMARK    2  A    between atoms: C_2  and  C_4
REMARK    3  A    between atoms: C_2  and  S_16
REMARK    4  A    between atoms: N_6  and  C_7
REMARK    5  A    between atoms: C_11  and  C_13
REMARK    6  A    between atoms: C_13  and  C_15
REMARK    7  A    between atoms: S_16  and  C_17
REMARK    8  A    between atoms: C_20  and  C_29
REMARK    9  A    between atoms: N_21  and  C_22
REMARK   10  A    between atoms: C_22  and  C_23
REMARK                            x       y       z     vdW  Elec       q    Type
REMARK                         _______ _______ _______ _____ _____    ______ ____
ROOT
ATOM      1  C   UNL     1      -2.325  -0.185   2.244  0.00  0.00    +0.193 A 
ATOM      2  N   UNL     1      -3.036  -0.099   3.345  0.00  0.00    -0.122 NA
ATOM      3  N   UNL     1      -3.686   1.009   3.367  0.00  0.00    -0.125 NA
ATOM      4  C   UNL     1      -3.426   1.703   2.280  0.00  0.00    +0.201 A 
ATOM      5  N   UNL     1      -2.542   0.960   1.529  0.00  0.00    -0.295 N 
ENDROOT
BRANCH   4   6
ATOM      6  C   UNL     1      -3.975   3.023   1.933  0.00  0.00    +0.172 A 
ATOM      7  C   UNL     1      -5.052   3.621   2.516  0.00  0.00    +0.053 A 
ATOM      8  C   UNL     1      -5.218   4.866   1.879  0.00  0.00    +0.042 A 
ATOM      9  C   UNL     1      -4.253   4.964   0.943  0.00  0.00    +0.196 A 
ATOM     10  O   UNL     1      -3.504   3.850   0.978  0.00  0.00    -0.460 OA
ENDBRANCH   4   6
BRANCH   1  11
ATOM     11  S   UNL     1      -1.282  -1.526   1.776  0.00  0.00    -0.073 S 
BRANCH  11  13
ATOM     12  C   UNL     1      -2.976  -3.094   3.238  0.00  0.00    +0.029 C 
ATOM     13  C   UNL     1      -1.521  -2.621   3.197  0.00  0.00    +0.137 C 
BRANCH  13  14
ATOM     14  C   UNL     1      -0.609  -3.814   3.072  0.00  0.00    +0.230 C 
ATOM     15  O   UNL     1      -0.148  -4.114   1.991  0.00  0.00    -0.274 OA
ATOM     16  N   UNL     1      -0.304  -4.547   4.161  0.00  0.00    -0.285 N 
ATOM     17  H   UNL     1      -0.610  -4.264   5.037  0.00  0.00    +0.155 HD
BRANCH  16  18
ATOM     18  C   UNL     1       0.452  -5.717   4.028  0.00  0.00    +0.034 A 
ATOM     19  C   UNL     1       1.330  -6.095   5.037  0.00  0.00    +0.023 A 
ATOM     20  C   UNL     1       2.081  -7.250   4.912  0.00  0.00    +0.002 A 
ATOM     21  C   UNL     1       1.963  -8.036   3.785  0.00  0.00    +0.011 A 
ATOM     22  C   UNL     1       1.083  -7.665   2.763  0.00  0.00    +0.019 A 
ATOM     23  C   UNL     1       0.321  -6.501   2.893  0.00  0.00    +0.034 A 
BRANCH  22  24
ATOM     24  C   UNL     1       0.955  -8.502   1.559  0.00  0.00    +0.160 C 
ATOM     25  O   UNL     1       0.191  -8.178   0.675  0.00  0.00    -0.292 OA
ATOM     26  C   UNL     1       1.773  -9.760   1.425  0.00  0.00    +0.091 C 
ENDBRANCH  22  24
ENDBRANCH  16  18
ENDBRANCH  13  14
ENDBRANCH  11  13
ENDBRANCH   1  11
BRANCH   5  27
ATOM     27  C   UNL     1      -1.961   1.319   0.233  0.00  0.00    +0.161 C 
BRANCH  27  28
ATOM     28  C   UNL     1      -0.672   2.068   0.451  0.00  0.00    -0.028 A 
ATOM     29  C   UNL     1       0.523   1.379   0.535  0.00  0.00    +0.005 A 
ATOM     30  C   UNL     1       1.706   2.067   0.729  0.00  0.00    +0.000 A 
ATOM     31  C   UNL     1       1.693   3.445   0.843  0.00  0.00    +0.000 A 
ATOM     32  C   UNL     1       0.497   4.134   0.764  0.00  0.00    +0.000 A 
ATOM     33  C   UNL     1      -0.686   3.446   0.571  0.00  0.00    +0.005 A 
ENDBRANCH  27  28
ENDBRANCH   5  27
TORSDOF 8
