REMARK  Name = ZINC36255554
REMARK  9 active torsions:
REMARK  status: ('A' for Active; 'I' for Inactive)
REMARK    1  A    between atoms: C_1  and  O_2
REMARK    2  A    between atoms: O_2  and  C_3
REMARK    3  A    between atoms: C_6  and  C_9
REMARK    4  A    between atoms: C_9  and  C_10
REMARK    5  A    between atoms: C_10  and  N_11
REMARK    6  A    between atoms: C_12  and  C_14
REMARK    7  A    between atoms: C_14  and  C_16
REMARK    8  A    between atoms: C_14  and  N_21
REMARK    9  A    between atoms: C_27  and  C_29
REMARK                            x       y       z     vdW  Elec       q    Type
REMARK                         _______ _______ _______ _____ _____    ______ ____
ROOT
ATOM      1  C   UNL     1      -9.235  -4.546  -2.291  0.00  0.00    +0.146 C 
ENDROOT
BRANCH   1   2
ATOM      2  N   UNL     1      -9.240  -4.794  -3.739  0.00  0.00    -0.288 NA
ATOM      3  C   UNL     1     -10.135  -5.908  -4.079  0.00  0.00    +0.104 C 
ATOM      4  C   UNL     1      -9.975  -6.252  -5.564  0.00  0.00    +0.123 C 
ATOM      5  N   UNL     1     -10.180  -5.026  -6.352  0.00  0.00    -0.295 N 
ATOM      6  C   UNL     1      -9.416  -3.825  -5.981  0.00  0.00    +0.123 C 
ATOM      7  C   UNL     1      -9.597  -3.577  -4.480  0.00  0.00    +0.104 C 
ATOM      8  C   UNL     1     -11.043  -5.005  -7.386  0.00  0.00    +0.253 C 
ATOM      9  O   UNL     1     -11.752  -5.969  -7.606  0.00  0.00    -0.269 OA
BRANCH   8  10
ATOM     10  C   UNL     1     -11.129  -3.821  -8.245  0.00  0.00    +0.074 A 
ATOM     11  C   UNL     1     -12.097  -3.488  -9.181  0.00  0.00    +0.021 A 
ATOM     12  C   UNL     1     -11.905  -2.297  -9.840  0.00  0.00    +0.008 A 
ATOM     13  C   UNL     1     -10.815  -1.547  -9.543  0.00  0.00    +0.046 A 
ATOM     14  S   UNL     1     -10.020  -2.429  -8.354  0.00  0.00    -0.092 S 
ENDBRANCH   8  10
ENDBRANCH   1   2
BRANCH   1  15
ATOM     15  C   UNL     1      -8.590  -5.733  -1.572  0.00  0.00    +0.015 C 
ATOM     16  C   UNL     1      -9.470  -6.990  -1.735  0.00  0.00    +0.005 C 
ATOM     17  C   UNL     1      -9.349  -7.717  -0.373  0.00  0.00    +0.000 C 
ATOM     18  C   UNL     1      -9.331  -6.545   0.640  0.00  0.00    +0.000 C 
ATOM     19  C   UNL     1      -8.502  -5.451  -0.062  0.00  0.00    +0.005 C 
ENDBRANCH   1  15
BRANCH   1  21
ATOM     20  N   UNL     1      -8.877  -2.433  -1.055  0.00  0.00    -0.314 N 
ATOM     21  C   UNL     1      -8.447  -3.294  -1.998  0.00  0.00    +0.231 C 
ATOM     22  O   UNL     1      -7.427  -3.062  -2.612  0.00  0.00    -0.274 OA
ATOM     23  H   UNL     1      -9.733  -2.576  -0.622  0.00  0.00    +0.149 HD
BRANCH  20  24
ATOM     24  C   UNL     1      -8.051  -1.282  -0.683  0.00  0.00    +0.109 C 
BRANCH  24  25
ATOM     25  C   UNL     1      -8.764  -0.471   0.401  0.00  0.00    +0.054 C 
BRANCH  25  29
ATOM     26  C   UNL     1      -6.356   2.888   1.485  0.00  0.00    +0.120 A 
ATOM     27  C   UNL     1      -7.285   3.001   0.462  0.00  0.00    +0.046 A 
ATOM     28  C   UNL     1      -8.063   1.914   0.113  0.00  0.00    +0.007 A 
ATOM     29  C   UNL     1      -7.915   0.713   0.783  0.00  0.00    -0.046 A 
ATOM     30  C   UNL     1      -6.989   0.598   1.804  0.00  0.00    +0.007 A 
ATOM     31  C   UNL     1      -6.205   1.681   2.152  0.00  0.00    +0.046 A 
BRANCH  26  33
ATOM     32  C   UNL     1      -5.798   5.167   1.100  0.00  0.00    +0.277 C 
ATOM     33  O   UNL     1      -5.589   3.956   1.830  0.00  0.00    -0.495 OA
ENDBRANCH  26  33
ENDBRANCH  25  29
ENDBRANCH  24  25
ENDBRANCH  20  24
ENDBRANCH   1  21
TORSDOF 8
