REMARK  Name = ZINC14475928
REMARK  3 active torsions:
REMARK  status: ('A' for Active; 'I' for Inactive)
REMARK    1  A    between atoms: C_3  and  O_28
REMARK    2  A    between atoms: C_4  and  C_10
REMARK    3  A    between atoms: C_6  and  N_7
REMARK                            x       y       z     vdW  Elec       q    Type
REMARK                         _______ _______ _______ _____ _____    ______ ____
ROOT
ATOM      1  C   UNL     1       3.710  -0.717  -0.038  0.00  0.00    +0.109 C 
ATOM      2  C   UNL     1       4.252  -0.790  -1.454  0.00  0.00    +0.029 C 
ATOM      3  C   UNL     1       4.698   0.527  -2.102  0.00  0.00    +0.033 C 
ATOM      4  C   UNL     1       5.791   0.045  -3.058  0.00  0.00    -0.030 C 
ATOM      5  C   UNL     1       6.317  -1.089  -2.611  0.00  0.00    -0.023 C 
ATOM      6  C   UNL     1       5.649  -1.469  -1.329  0.00  0.00    +0.050 C 
ATOM      7  C   UNL     1       5.435  -2.874  -0.918  0.00  0.00    +0.000 A 
ATOM      8  C   UNL     1       6.239  -3.905  -1.358  0.00  0.00    +0.047 A 
ATOM      9  C   UNL     1       6.006  -5.201  -0.935  0.00  0.00    +0.022 A 
ATOM     10  C   UNL     1       4.964  -5.467  -0.065  0.00  0.00    +0.023 A 
ATOM     11  C   UNL     1       4.151  -4.443   0.377  0.00  0.00    +0.062 A 
ATOM     12  C   UNL     1       4.372  -3.137  -0.048  0.00  0.00    +0.051 A 
ATOM     13  N   UNL     1       3.513  -2.119   0.390  0.00  0.00    -0.335 N 
ATOM     14 CL   UNL     1       2.846  -4.786   1.469  0.00  0.00    -0.082 Cl
ATOM     15 CL   UNL     1       7.548  -3.574  -2.449  0.00  0.00    -0.083 Cl
ATOM     16  H   UNL     1       2.775  -2.338   0.980  0.00  0.00    +0.147 HD
ENDROOT
BRANCH   1  20
ATOM     17  C   UNL     1      -0.017   1.378   0.010  0.00  0.00    +0.036 A 
ATOM     18  C   UNL     1       1.170   2.086   0.002  0.00  0.00    +0.048 A 
ATOM     19  C   UNL     1       2.380   1.409  -0.013  0.00  0.00    +0.122 A 
ATOM     20  C   UNL     1       2.396   0.022  -0.021  0.00  0.00    +0.017 A 
ATOM     21  C   UNL     1       1.208  -0.681  -0.013  0.00  0.00    +0.041 A 
ATOM     22  C   UNL     1       0.002  -0.004   0.002  0.00  0.00    +0.127 A 
BRANCH  22  23
ATOM     23  N   UNL     1      -1.270  -0.760   0.011  0.00  0.00    +0.056 N 
ATOM     24  O   UNL     1      -2.325  -0.169   0.024  0.00  0.00    -0.126 OA
ATOM     25  O   UNL     1      -1.255  -1.969   0.004  0.00  0.00    -0.126 OA
ENDBRANCH  22  23
BRANCH  19  26
ATOM     26  O   UNL     1       3.548   2.104  -0.021  0.00  0.00    -0.506 OA
ATOM     27  H   UNL     1       3.895   2.300   0.860  0.00  0.00    +0.292 HD
ENDBRANCH  19  26
ENDBRANCH   1  20
TORSDOF 3
