REMARK  Name = ZINC14957481
REMARK  10 active torsions:
REMARK  status: ('A' for Active; 'I' for Inactive)
REMARK    1  A    between atoms: C_1  and  N_69
REMARK    2  A    between atoms: C_2  and  N_69
REMARK    3  A    between atoms: C_3  and  C_4
REMARK    4  A    between atoms: C_3  and  N_69
REMARK    5  A    between atoms: C_4  and  N_5
REMARK    6  A    between atoms: C_8  and  C_12
REMARK    7  A    between atoms: C_8  and  C_20
REMARK    8  A    between atoms: C_12  and  C_13
REMARK    9  A    between atoms: C_13  and  C_14
REMARK   10  A    between atoms: C_26  and  C_28
REMARK                            x       y       z     vdW  Elec       q    Type
REMARK                         _______ _______ _______ _____ _____    ______ ____
ROOT
ATOM      1  N   UNL     1      -5.312   4.111   1.739  0.00  0.00    -0.226 N 
ATOM      2  C   UNL     1      -4.742   2.946   2.105  0.00  0.00    +0.247 C 
ATOM      3  O   UNL     1      -5.303   1.893   2.325  0.00  0.00    -0.273 OA
ATOM      4  C   UNL     1      -3.255   3.225   2.185  0.00  0.00    +0.116 C 
ATOM      5  N   UNL     1      -3.146   4.649   1.823  0.00  0.00    -0.285 N 
ATOM      6  C   UNL     1      -4.401   5.077   1.578  0.00  0.00    +0.309 C 
ATOM      7  O   UNL     1      -4.674   6.215   1.250  0.00  0.00    -0.252 OA
ATOM      8  H   UNL     1      -2.332   5.173   1.771  0.00  0.00    +0.151 HD
ENDROOT
BRANCH   4   9
ATOM      9  C   UNL     1      -2.489   2.356   1.186  0.00  0.00    +0.024 C 
ATOM     10  C   UNL     1      -0.998   2.708   1.241  0.00  0.00    +0.025 C 
ATOM     11  C   UNL     1      -0.233   1.811   0.263  0.00  0.00    +0.108 C 
ATOM     12  N   UNL     1      -0.835   1.940  -1.071  0.00  0.00    -0.298 N 
ATOM     13  C   UNL     1      -2.279   1.712  -1.219  0.00  0.00    +0.108 C 
ATOM     14  C   UNL     1      -3.024   2.609  -0.226  0.00  0.00    +0.025 C 
ATOM     15  C   UNL     1      -0.078   2.260  -2.139  0.00  0.00    +0.242 C 
ATOM     16  O   UNL     1      -0.564   2.252  -3.254  0.00  0.00    -0.270 OA
BRANCH  15  17
ATOM     17  C   UNL     1       1.337   2.620  -1.956  0.00  0.00    +0.011 C 
ATOM     18  C   UNL     1       2.038   3.372  -2.794  0.00  0.00    -0.018 C 
ATOM     19  C   UNL     1       3.456   3.543  -2.302  0.00  0.00    +0.028 C 
ATOM     20  C   UNL     1       3.645   2.432  -1.244  0.00  0.00    +0.009 C 
ATOM     21  C   UNL     1       2.187   2.190  -0.783  0.00  0.00    +0.040 C 
ENDBRANCH  15  17
ENDBRANCH   4   9
BRANCH   1  22
ATOM     22  C   UNL     1      -6.752   4.295   1.541  0.00  0.00    +0.099 C 
BRANCH  22  23
ATOM     23  C   UNL     1      -7.398   4.725   2.860  0.00  0.00    -0.060 C 
BRANCH  23  26
ATOM     24  C   UNL     1      -9.498   3.634   2.350  0.00  0.00    -0.097 C 
ATOM     25  C   UNL     1      -9.456   5.548   3.833  0.00  0.00    -0.097 C 
ATOM     26  N   UNL     1      -8.845   4.928   2.639  0.00  0.00    +0.377 N 
ATOM     27  H   UNL     1      -8.975   5.554   1.835  0.00  0.00    -0.083 HD
ENDBRANCH  23  26
ENDBRANCH  22  23
ENDBRANCH   1  22
BRANCH   4  28
ATOM     28  C   UNL     1      -2.738   2.990   3.606  0.00  0.00    +0.040 C 
BRANCH  28  29
ATOM     29  C   UNL     1      -3.519   3.870   4.584  0.00  0.00    +0.038 C 
BRANCH  29  30
ATOM     30  C   UNL     1      -3.011   3.639   5.984  0.00  0.00    -0.047 A 
ATOM     31  C   UNL     1      -3.584   2.661   6.775  0.00  0.00    +0.003 A 
ATOM     32  C   UNL     1      -3.115   2.446   8.057  0.00  0.00    +0.000 A 
ATOM     33  C   UNL     1      -2.079   3.215   8.552  0.00  0.00    +0.000 A 
ATOM     34  C   UNL     1      -1.508   4.197   7.763  0.00  0.00    +0.000 A 
ATOM     35  C   UNL     1      -1.975   4.409   6.479  0.00  0.00    +0.003 A 
ENDBRANCH  29  30
ENDBRANCH  28  29
ENDBRANCH   4  28
TORSDOF 8
