REMARK  Name = ZINC49486203
REMARK  9 active torsions:
REMARK  status: ('A' for Active; 'I' for Inactive)
REMARK    1  A    between atoms: N_9  and  C_12
REMARK    2  A    between atoms: C_12  and  C_13
REMARK    3  A    between atoms: C_13  and  C_14
REMARK    4  A    between atoms: C_14  and  C_15
REMARK    5  A    between atoms: N_17  and  C_18
REMARK    6  A    between atoms: C_18  and  C_19
REMARK    7  A    between atoms: C_19  and  C_21
REMARK    8  A    between atoms: C_19  and  N_26
REMARK    9  A    between atoms: N_29  and  C_32
REMARK                            x       y       z     vdW  Elec       q    Type
REMARK                         _______ _______ _______ _____ _____    ______ ____
ROOT
ATOM      1  C   UNL     1       6.664  -8.431  -4.468  0.00  0.00    +0.017 C 
ENDROOT
BRANCH   1   2
ATOM      2  N   UNL     1       5.869  -9.406  -3.710  0.00  0.00    +0.389 N 
ATOM      3  C   UNL     1       6.656 -10.630  -3.513  0.00  0.00    -0.059 C 
ATOM      4  C   UNL     1       5.789 -11.689  -2.825  0.00  0.00    +0.086 C 
ATOM      5  N   UNL     1       5.244 -11.112  -1.586  0.00  0.00    -0.333 N 
ATOM      6  C   UNL     1       4.578  -9.802  -1.666  0.00  0.00    +0.086 C 
ATOM      7  C   UNL     1       5.503  -8.832  -2.409  0.00  0.00    -0.059 C 
ATOM      8  H   UNL     1       5.030  -9.628  -4.226  0.00  0.00    -0.081 HD
BRANCH   5   9
ATOM      9  C   UNL     1       5.355 -11.788  -0.368  0.00  0.00    +0.030 A 
ATOM     10  C   UNL     1       4.939 -11.177   0.808  0.00  0.00    +0.026 A 
ATOM     11  C   UNL     1       5.050 -11.848   2.010  0.00  0.00    +0.040 A 
ATOM     12  C   UNL     1       5.574 -13.129   2.044  0.00  0.00    +0.124 A 
ATOM     13  C   UNL     1       5.989 -13.740   0.873  0.00  0.00    +0.040 A 
ATOM     14  C   UNL     1       5.876 -13.075  -0.332  0.00  0.00    +0.026 A 
ATOM     15  F   UNL     1       5.682 -13.783   3.221  0.00  0.00    -0.205 F 
ENDBRANCH   5   9
ENDBRANCH   1   2
BRANCH   1  16
ATOM     16  C   UNL     1       6.954  -8.978  -5.841  0.00  0.00    +0.093 A 
ATOM     17  C   UNL     1       8.120  -8.865  -6.503  0.00  0.00    +0.043 A 
ATOM     18  C   UNL     1       7.950  -9.518  -7.746  0.00  0.00    +0.041 A 
ATOM     19  C   UNL     1       6.691  -9.990  -7.769  0.00  0.00    +0.195 A 
ATOM     20  O   UNL     1       6.094  -9.665  -6.611  0.00  0.00    -0.469 OA
ENDBRANCH   1  16
BRANCH   1  21
ATOM     21  C   UNL     1       5.881  -7.122  -4.594  0.00  0.00    +0.096 C 
BRANCH  21  24
ATOM     22  C   UNL     1       3.657  -6.405  -5.283  0.00  0.00    +0.213 C 
ATOM     23  O   UNL     1       3.932  -5.286  -4.904  0.00  0.00    -0.276 OA
ATOM     24  N   UNL     1       4.563  -7.396  -5.172  0.00  0.00    -0.316 N 
ATOM     25  H   UNL     1       4.343  -8.291  -5.475  0.00  0.00    +0.149 HD
BRANCH  22  26
ATOM     26  C   UNL     1       2.301  -6.686  -5.878  0.00  0.00    +0.097 C 
BRANCH  26  27
ATOM     27  C   UNL     1       1.471  -5.401  -5.888  0.00  0.00    +0.029 C 
BRANCH  27  28
ATOM     28  C   UNL     1       0.095  -5.687  -6.491  0.00  0.00    +0.117 C 
BRANCH  28  37
ATOM     29  C   UNL     1      -2.939  -0.455  -7.158  0.00  0.00    +0.001 A 
ATOM     30  C   UNL     1      -3.427  -0.761  -5.902  0.00  0.00    +0.001 A 
ATOM     31  C   UNL     1      -3.027  -1.920  -5.255  0.00  0.00    +0.014 A 
ATOM     32  C   UNL     1      -2.132  -2.778  -5.874  0.00  0.00    +0.049 A 
ATOM     33  C   UNL     1      -1.635  -2.466  -7.155  0.00  0.00    +0.049 A 
ATOM     34  C   UNL     1      -2.043  -1.304  -7.789  0.00  0.00    +0.014 A 
ATOM     35  C   UNL     1      -0.721  -3.571  -7.514  0.00  0.00    +0.254 C 
ATOM     36  O   UNL     1      -0.093  -3.665  -8.550  0.00  0.00    -0.270 OA
ATOM     37  N   UNL     1      -0.699  -4.456  -6.501  0.00  0.00    -0.234 N 
ATOM     38  C   UNL     1      -1.504  -4.061  -5.497  0.00  0.00    +0.254 C 
ATOM     39  O   UNL     1      -1.683  -4.660  -4.456  0.00  0.00    -0.270 OA
ENDBRANCH  28  37
ENDBRANCH  27  28
ENDBRANCH  26  27
ENDBRANCH  22  26
ENDBRANCH  21  24
ENDBRANCH   1  21
TORSDOF 9
