REMARK  Name = ZINC49211228
REMARK  6 active torsions:
REMARK  status: ('A' for Active; 'I' for Inactive)
REMARK    1  A    between atoms: C_1  and  C_2
REMARK    2  A    between atoms: N_10  and  C_11
REMARK    3  A    between atoms: C_14  and  C_23
REMARK    4  A    between atoms: C_18  and  C_20
REMARK    5  A    between atoms: C_20  and  C_21
REMARK    6  A    between atoms: C_20  and  C_22
REMARK                            x       y       z     vdW  Elec       q    Type
REMARK                         _______ _______ _______ _____ _____    ______ ____
ROOT
ATOM      1  C   UNL     1      -1.741   1.020  -0.927  0.00  0.00    +0.066 C 
ATOM      2  C   UNL     1      -1.423  -0.441  -0.744  0.00  0.00    +0.047 A 
ATOM      3  C   UNL     1      -1.342  -1.286  -1.802  0.00  0.00    +0.071 A 
ATOM      4  S   UNL     1      -0.952  -2.819  -0.974  0.00  0.00    -0.060 S 
ATOM      5  C   UNL     1      -0.934  -2.233   0.604  0.00  0.00    +0.166 A 
ATOM      6  N   UNL     1      -1.206  -0.956   0.452  0.00  0.00    -0.230 NA
ATOM      7  N   UNL     1      -0.686  -2.930   1.781  0.00  0.00    -0.248 N 
ATOM      8  C   UNL     1      -0.417  -4.250   1.739  0.00  0.00    +0.306 C 
ATOM      9  O   UNL     1      -0.390  -4.831   0.671  0.00  0.00    -0.252 OA
ATOM     10  N   UNL     1      -0.176  -4.926   2.880  0.00  0.00    -0.296 N 
ATOM     11  H   UNL     1      -0.707  -2.466   2.633  0.00  0.00    +0.158 HD
ATOM     12  H   UNL     1      -0.198  -4.462   3.732  0.00  0.00    +0.151 HD
ENDROOT
BRANCH  10  13
ATOM     13  C   UNL     1       0.117  -6.360   2.834  0.00  0.00    +0.078 C 
ATOM     14  C   UNL     1       1.616  -6.568   2.610  0.00  0.00    +0.026 C 
ATOM     15  C   UNL     1       1.922  -8.066   2.562  0.00  0.00    -0.012 C 
ATOM     16  C   UNL     1       1.510  -8.713   3.886  0.00  0.00    +0.004 C 
ATOM     17  C   UNL     1       0.011  -8.506   4.110  0.00  0.00    +0.006 C 
ATOM     18  C   UNL     1      -0.295  -7.007   4.158  0.00  0.00    +0.012 C 
ATOM     19  C   UNL     1       1.141  -8.710   1.415  0.00  0.00    +0.007 C 
BRANCH  18  20
ATOM     20  C   UNL     1      -1.794  -6.800   4.383  0.00  0.00    -0.012 C 
ATOM     21  C   UNL     1      -2.580  -7.559   3.312  0.00  0.00    +0.007 C 
ATOM     22  C   UNL     1      -2.180  -7.326   5.767  0.00  0.00    +0.007 C 
ENDBRANCH  18  20
ENDBRANCH  10  13
TORSDOF 2
