REMARK  Name = ZINC64137393
REMARK  6 active torsions:
REMARK  status: ('A' for Active; 'I' for Inactive)
REMARK    1  A    between atoms: C_1  and  C_2
REMARK    2  A    between atoms: C_4  and  C_10
REMARK    3  A    between atoms: C_7  and  O_8
REMARK    4  A    between atoms: O_8  and  C_9
REMARK    5  A    between atoms: N_18  and  C_19
REMARK    6  A    between atoms: C_19  and  C_20
REMARK                            x       y       z     vdW  Elec       q    Type
REMARK                         _______ _______ _______ _____ _____    ______ ____
ROOT
ATOM      1  C   UNL     1       0.033  -2.816  -2.487  0.00  0.00    +0.112 C 
ATOM      2  C   UNL     1       1.444  -3.189  -2.868  0.00  0.00    +0.131 C 
ATOM      3  C   UNL     1       2.048  -3.988  -1.671  0.00  0.00    +0.029 C 
ATOM      4  C   UNL     1       1.309  -5.314  -1.659  0.00  0.00    +0.022 C 
ATOM      5  C   UNL     1      -0.170  -4.994  -1.383  0.00  0.00    +0.086 C 
ATOM      6  N   UNL     1      -0.724  -4.085  -2.381  0.00  0.00    -0.286 NA
ATOM      7  C   UNL     1       3.499  -3.974  -2.137  0.00  0.00    +0.065 C 
ATOM      8  C   UNL     1       4.480  -4.094  -1.013  0.00  0.00    -0.017 C 
ATOM      9  C   UNL     1       5.517  -3.272  -0.902  0.00  0.00    -0.004 C 
ATOM     10  C   UNL     1       5.771  -2.190  -1.850  0.00  0.00    +0.001 C 
ATOM     11  C   UNL     1       4.823  -1.838  -2.755  0.00  0.00    +0.023 C 
ATOM     12  C   UNL     1       3.608  -2.583  -2.756  0.00  0.00    +0.043 C 
ATOM     13  N   UNL     1       2.435  -2.173  -3.134  0.00  0.00    -0.282 NA
ENDROOT
BRANCH   1  17
ATOM     14  C   UNL     1       1.481   1.036   0.358  0.00  0.00    +0.047 C 
ATOM     15  C   UNL     1       0.721  -0.255   0.199  0.00  0.00    -0.008 A 
ATOM     16  C   UNL     1       0.725  -0.915  -1.015  0.00  0.00    +0.012 A 
ATOM     17  C   UNL     1       0.027  -2.099  -1.161  0.00  0.00    -0.028 A 
ATOM     18  C   UNL     1      -0.675  -2.628  -0.094  0.00  0.00    +0.009 A 
ATOM     19  C   UNL     1      -0.682  -1.972   1.122  0.00  0.00    +0.046 A 
ATOM     20  C   UNL     1       0.022  -0.786   1.273  0.00  0.00    +0.123 A 
BRANCH  20  21
ATOM     21  O   UNL     1       0.021  -0.142   2.470  0.00  0.00    -0.495 OA
ATOM     22  C   UNL     1      -0.720  -0.747   3.532  0.00  0.00    +0.277 C 
ENDBRANCH  20  21
ENDBRANCH   1  17
BRANCH   6  23
ATOM     23  C   UNL     1      -2.146  -3.829  -2.112  0.00  0.00    +0.157 C 
BRANCH  23  24
ATOM     24  C   UNL     1      -2.898  -5.135  -2.103  0.00  0.00    +0.099 A 
ATOM     25  N   UNL     1      -2.483  -6.267  -2.649  0.00  0.00    -0.349 N 
ATOM     26  C   UNL     1      -3.424  -7.209  -2.434  0.00  0.00    +0.101 A 
ATOM     27  C   UNL     1      -4.425  -6.628  -1.744  0.00  0.00    +0.101 A 
ATOM     28  N   UNL     1      -4.079  -5.339  -1.542  0.00  0.00    -0.349 N 
ATOM     29  H   UNL     1      -4.606  -4.677  -1.069  0.00  0.00    +0.166 HD
ATOM     30  H   UNL     1      -1.646  -6.396  -3.122  0.00  0.00    +0.166 HD
ENDBRANCH  23  24
ENDBRANCH   6  23
TORSDOF 4
