REMARK  Name = ZINC67381202
REMARK  7 active torsions:
REMARK  status: ('A' for Active; 'I' for Inactive)
REMARK    1  A    between atoms: C_1  and  C_2
REMARK    2  A    between atoms: C_7  and  N_12
REMARK    3  A    between atoms: C_9  and  C_11
REMARK    4  A    between atoms: C_22  and  C_24
REMARK    5  A    between atoms: C_24  and  C_25
REMARK    6  A    between atoms: C_24  and  C_26
REMARK    7  A    between atoms: C_24  and  C_27
REMARK                            x       y       z     vdW  Elec       q    Type
REMARK                         _______ _______ _______ _____ _____    ______ ____
ROOT
ATOM      1  N   UNL     1       3.387  -2.217   2.243  0.00  0.00    -0.296 N 
ATOM      2  C   UNL     1       3.905  -3.458   2.342  0.00  0.00    +0.302 C 
ATOM      3  O   UNL     1       4.128  -4.105   1.337  0.00  0.00    -0.253 OA
ATOM      4  N   UNL     1       4.177  -3.980   3.554  0.00  0.00    -0.284 N 
ATOM      5  C   UNL     1       4.729  -5.282   3.694  0.00  0.00    +0.111 C 
ATOM      6  C   UNL     1       3.680  -6.441   3.664  0.00  0.00    +0.038 C 
ATOM      7  C   UNL     1       2.412  -5.940   4.428  0.00  0.00    +0.109 C 
ATOM      8  N   UNL     1       2.686  -5.144   5.573  0.00  0.00    -0.299 N 
ATOM      9  C   UNL     1       2.655  -3.669   5.393  0.00  0.00    +0.126 C 
ATOM     10  C   UNL     1       3.917  -3.219   4.803  0.00  0.00    +0.128 C 
ATOM     11  C   UNL     1       2.962  -5.701   6.769  0.00  0.00    +0.221 C 
ATOM     12  O   UNL     1       2.938  -6.907   6.895  0.00  0.00    -0.275 OA
ATOM     13  H   UNL     1       3.209  -1.701   3.045  0.00  0.00    +0.151 HD
ENDROOT
BRANCH   1  19
ATOM     14  C   UNL     1       2.847   1.999  -0.281  0.00  0.00    +0.008 C 
ATOM     15  C   UNL     1       2.816   0.472  -0.366  0.00  0.00    -0.009 C 
ATOM     16  C   UNL     1       1.428   0.014  -0.820  0.00  0.00    +0.003 C 
ATOM     17  C   UNL     1       1.396  -1.513  -0.904  0.00  0.00    +0.002 C 
ATOM     18  C   UNL     1       1.704  -2.106   0.472  0.00  0.00    +0.022 C 
ATOM     19  C   UNL     1       3.092  -1.649   0.926  0.00  0.00    +0.078 C 
ATOM     20  C   UNL     1       3.123  -0.122   1.010  0.00  0.00    +0.009 C 
ATOM     21  C   UNL     1       2.075   0.355   2.017  0.00  0.00    +0.009 C 
ENDBRANCH   1  19
BRANCH  11  22
ATOM     22  C   UNL     1       3.300  -4.826   7.948  0.00  0.00    +0.039 C 
ATOM     23  C   UNL     1       3.785  -5.698   9.108  0.00  0.00    +0.020 C 
ATOM     24  C   UNL     1       4.404  -3.842   7.553  0.00  0.00    +0.020 C 
ATOM     25  C   UNL     1       2.055  -4.049   8.380  0.00  0.00    +0.020 C 
ENDBRANCH  11  22
TORSDOF 2
