REMARK  Name = ZINC62085318
REMARK  5 active torsions:
REMARK  status: ('A' for Active; 'I' for Inactive)
REMARK    1  A    between atoms: C_1  and  S_2
REMARK    2  A    between atoms: S_2  and  N_5
REMARK    3  A    between atoms: C_11  and  C_13
REMARK    4  A    between atoms: C_13  and  C_19
REMARK    5  A    between atoms: C_19  and  N_20
REMARK                            x       y       z     vdW  Elec       q    Type
REMARK                         _______ _______ _______ _____ _____    ______ ____
ROOT
ATOM      1  N   UNL     1       1.315   3.281  -6.369  0.00  0.00    -0.178 NA
ATOM      2  C   UNL     1       0.456   2.468  -5.497  0.00  0.00    +0.128 C 
ATOM      3  C   UNL     1       0.749   0.987  -5.763  0.00  0.00    +0.125 C 
ATOM      4  N   UNL     1       2.204   0.780  -5.716  0.00  0.00    -0.299 N 
ATOM      5  C   UNL     1       3.063   1.593  -6.588  0.00  0.00    +0.125 C 
ATOM      6  C   UNL     1       2.769   3.071  -6.326  0.00  0.00    +0.128 C 
ATOM      7  C   UNL     1       2.740  -0.138  -4.888  0.00  0.00    +0.220 C 
ATOM      8  O   UNL     1       2.033  -0.730  -4.100  0.00  0.00    -0.275 OA
ENDROOT
BRANCH   7   9
ATOM      9  C   UNL     1       4.217  -0.429  -4.942  0.00  0.00    +0.032 C 
ATOM     10  C   UNL     1       4.536  -1.617  -4.032  0.00  0.00    +0.014 C 
ATOM     11  C   UNL     1       3.757  -2.846  -4.506  0.00  0.00    +0.001 C 
ATOM     12  C   UNL     1       4.159  -3.182  -5.943  0.00  0.00    +0.000 C 
ATOM     13  C   UNL     1       3.840  -1.994  -6.853  0.00  0.00    +0.001 C 
ATOM     14  C   UNL     1       4.619  -0.765  -6.379  0.00  0.00    +0.014 C 
BRANCH   9  15
ATOM     15  C   UNL     1       4.997   0.799  -4.468  0.00  0.00    -0.070 C 
BRANCH  15  16
ATOM     16  N   UNL     1       4.715   1.040  -3.047  0.00  0.00    +0.379 N 
ATOM     17  H   UNL     1       3.737   1.263  -2.931  0.00  0.00    -0.090 HD
ATOM     18  H   UNL     1       4.936   0.212  -2.515  0.00  0.00    -0.090 HD
ATOM     19  H   UNL     1       5.277   1.811  -2.718  0.00  0.00    -0.090 HD
ENDBRANCH  15  16
ENDBRANCH   9  15
ENDBRANCH   7   9
BRANCH   1  21
ATOM     20  C   UNL     1       0.332   3.513  -8.929  0.00  0.00    +0.215 C 
ATOM     21  S   UNL     1       0.656   4.410  -7.386  0.00  0.00    +0.029 S 
ATOM     22  O   UNL     1       1.688   5.366  -7.583  0.00  0.00    -0.158 OA
ATOM     23  O   UNL     1      -0.569   4.782  -6.770  0.00  0.00    -0.158 OA
ENDBRANCH   1  21
TORSDOF 4
