REMARK  Name = ZINC43736776
REMARK  12 active torsions:
REMARK  status: ('A' for Active; 'I' for Inactive)
REMARK    1  A    between atoms: C_1  and  C_2
REMARK    2  A    between atoms: C_13  and  O_15
REMARK    3  A    between atoms: N_21  and  O_22
REMARK    4  A    between atoms: O_22  and  C_23
REMARK    5  A    between atoms: C_23  and  C_24
REMARK    6  A    between atoms: N_26  and  C_27
REMARK    7  A    between atoms: C_27  and  C_29
REMARK    8  A    between atoms: C_27  and  C_36
REMARK    9  A    between atoms: C_29  and  C_30
REMARK   10  A    between atoms: C_36  and  O_38
REMARK   11  A    between atoms: O_38  and  C_39
REMARK   12  A    between atoms: C_42  and  C_43
REMARK                            x       y       z     vdW  Elec       q    Type
REMARK                         _______ _______ _______ _____ _____    ______ ____
ROOT
ATOM      1  C   UNL     1      -0.016   1.538   0.034  0.00  0.00    +0.014 C 
ATOM      2  C   UNL     1       0.004  -0.003   0.024  0.00  0.00    -0.003 C 
ATOM      3  C   UNL     1       0.627  -0.436  -1.278  0.00  0.00    +0.010 C 
ATOM      4  C   UNL     1       1.106  -1.872  -1.317  0.00  0.00    +0.005 C 
ATOM      5  C   UNL     1       1.896  -2.296  -0.089  0.00  0.00    +0.002 C 
ATOM      6  C   UNL     1       1.161  -1.934   1.185  0.00  0.00    -0.003 C 
ATOM      7  C   UNL     1       0.761  -0.467   1.276  0.00  0.00    +0.001 C 
ATOM      8  C   UNL     1      -0.321  -0.357   2.390  0.00  0.00    +0.007 C 
ATOM      9  C   UNL     1      -1.644  -0.738   1.695  0.00  0.00    +0.032 C 
ATOM     10  C   UNL     1      -1.442  -0.483   0.190  0.00  0.00    +0.121 C 
ATOM     11  C   UNL     1       1.920  -2.358   2.440  0.00  0.00    +0.008 C 
ATOM     12  C   UNL     1       3.334  -1.767   2.442  0.00  0.00    +0.031 C 
ATOM     13  C   UNL     1       4.015  -2.266   1.178  0.00  0.00    -0.062 C 
ATOM     14  C   UNL     1       5.142  -2.945   1.292  0.00  0.00    +0.026 C 
ATOM     15  C   UNL     1       5.786  -3.490   0.082  0.00  0.00    +0.080 C 
ATOM     16  N   UNL     1       7.046  -3.776   0.031  0.00  0.00    -0.089 NA
ATOM     17  C   UNL     1       4.857  -3.736  -1.093  0.00  0.00    +0.059 C 
ATOM     18  C   UNL     1       4.064  -2.461  -1.353  0.00  0.00    +0.017 C 
ATOM     19  C   UNL     1       3.360  -1.916  -0.128  0.00  0.00    -0.007 C 
ATOM     20  C   UNL     1       3.498  -0.396  -0.249  0.00  0.00    +0.016 C 
ENDROOT
BRANCH  10  21
ATOM     21  O   UNL     1      -1.677  -1.679  -0.552  0.00  0.00    -0.391 OA
ATOM     22  H   UNL     1      -2.580  -2.018  -0.476  0.00  0.00    +0.210 HD
ENDBRANCH  10  21
BRANCH  16  23
ATOM     23  O   UNL     1       7.866  -3.567   1.166  0.00  0.00    -0.384 OA
BRANCH  23  24
ATOM     24  C   UNL     1       9.235  -3.925   0.968  0.00  0.00    +0.358 C 
BRANCH  24  25
ATOM     25  C   UNL     1      10.011  -3.663   2.233  0.00  0.00    +0.254 C 
ATOM     26  O   UNL     1       9.447  -3.214   3.209  0.00  0.00    -0.272 OA
ATOM     27  N   UNL     1      11.332  -3.928   2.281  0.00  0.00    -0.299 N 
ATOM     28  H   UNL     1      11.783  -4.287   1.501  0.00  0.00    +0.150 HD
BRANCH  27  29
ATOM     29  C   UNL     1      12.086  -3.674   3.511  0.00  0.00    +0.186 C 
BRANCH  29  30
ATOM     30  C   UNL     1      12.521  -2.232   3.544  0.00  0.00    +0.328 C 
ATOM     31  O   UNL     1      12.231  -1.492   2.634  0.00  0.00    -0.249 OA
BRANCH  30  32
ATOM     32  O   UNL     1      13.230  -1.768   4.585  0.00  0.00    -0.467 OA
ATOM     33  C   UNL     1      13.609  -0.391   4.551  0.00  0.00    +0.280 C 
ENDBRANCH  30  32
ENDBRANCH  29  30
BRANCH  29  34
ATOM     34  C   UNL     1      13.318  -4.579   3.550  0.00  0.00    +0.069 C 
BRANCH  34  35
ATOM     35  C   UNL     1      12.882  -6.019   3.641  0.00  0.00    -0.045 A 
ATOM     36  C   UNL     1      12.690  -6.606   4.877  0.00  0.00    +0.004 A 
ATOM     37  C   UNL     1      12.290  -7.927   4.960  0.00  0.00    +0.000 A 
ATOM     38  C   UNL     1      12.080  -8.660   3.807  0.00  0.00    +0.000 A 
ATOM     39  C   UNL     1      12.270  -8.072   2.571  0.00  0.00    +0.000 A 
ATOM     40  C   UNL     1      12.667  -6.750   2.487  0.00  0.00    +0.004 A 
ENDBRANCH  34  35
ENDBRANCH  29  34
ENDBRANCH  27  29
ENDBRANCH  24  25
ENDBRANCH  23  24
ENDBRANCH  16  23
TORSDOF 9
