REMARK  Name = ZINC60280644
REMARK  4 active torsions:
REMARK  status: ('A' for Active; 'I' for Inactive)
REMARK    1  A    between atoms: C_2  and  C_3
REMARK    2  A    between atoms: C_3  and  N_4
REMARK    3  A    between atoms: C_6  and  C_12
REMARK    4  A    between atoms: C_8  and  C_9
REMARK                            x       y       z     vdW  Elec       q    Type
REMARK                         _______ _______ _______ _____ _____    ______ ____
ROOT
ATOM      1  N   UNL     1      -0.704   1.940   1.215  0.00  0.00    -0.267 N 
ATOM      2  C   UNL     1      -2.058   2.179   1.311  0.00  0.00    +0.101 C 
ATOM      3  C   UNL     1      -2.262   2.645   2.740  0.00  0.00    +0.172 C 
ATOM      4  N   UNL     1      -0.909   2.611   3.318  0.00  0.00    -0.363 N 
ATOM      5  C   UNL     1      -0.095   2.203   2.410  0.00  0.00    +0.080 C 
ATOM      6  N   UNL     1      -2.953   2.038   0.390  0.00  0.00    -0.388 N 
ATOM      7  H   UNL     1      -2.696   1.730  -0.493  0.00  0.00    +0.157 HD
ATOM      8  H   UNL     1      -3.882   2.240   0.582  0.00  0.00    +0.157 HD
ATOM      9  H   UNL     1      -0.673   2.851   4.228  0.00  0.00    +0.162 HD
ENDROOT
BRANCH   3  10
ATOM     10  C   UNL     1      -3.176   1.702   3.479  0.00  0.00    -0.015 A 
ATOM     11  C   UNL     1      -2.679   0.518   3.992  0.00  0.00    +0.006 A 
ATOM     12  C   UNL     1      -3.517  -0.348   4.670  0.00  0.00    +0.003 A 
ATOM     13  C   UNL     1      -4.852  -0.032   4.835  0.00  0.00    +0.038 A 
ATOM     14  C   UNL     1      -5.351   1.153   4.321  0.00  0.00    +0.124 A 
ATOM     15  C   UNL     1      -4.509   2.023   3.648  0.00  0.00    +0.044 A 
ATOM     16  F   UNL     1      -6.656   1.464   4.481  0.00  0.00    -0.205 F 
ENDBRANCH   3  10
BRANCH   5  17
ATOM     17  C   UNL     1       1.385   2.036   2.640  0.00  0.00    +0.051 C 
ATOM     18  C   UNL     1       1.827   1.369   3.944  0.00  0.00    +0.011 C 
ATOM     19  C   UNL     1       2.027   2.873   3.748  0.00  0.00    +0.011 C 
ENDBRANCH   5  17
BRANCH   1  20
ATOM     20  C   UNL     1      -0.018   1.468   0.010  0.00  0.00    +0.201 C 
BRANCH  20  22
ATOM     21  C   UNL     1       0.018  -1.178  -0.004  0.00  0.00    +0.005 C 
ATOM     22  C   UNL     1       0.002  -0.004   0.002  0.00  0.00    -0.086 C 
ENDBRANCH  20  22
ENDBRANCH   1  20
TORSDOF 4
