REMARK  Name = ZINC12885104
REMARK  3 active torsions:
REMARK  status: ('A' for Active; 'I' for Inactive)
REMARK    1  A    between atoms: C_1  and  C_2
REMARK    2  A    between atoms: C_5  and  C_8
REMARK    3  A    between atoms: C_8  and  C_10
REMARK                            x       y       z     vdW  Elec       q    Type
REMARK                         _______ _______ _______ _____ _____    ______ ____
ROOT
ATOM      1  C   UNL     1      -0.019   1.534   0.011  0.00  0.00    +0.066 C 
ATOM      2  C   UNL     1       1.453   2.010   0.062  0.00  0.00    -0.055 C 
ATOM      3  C   UNL     1       1.572   3.363  -0.659  0.00  0.00    -0.016 C 
ATOM      4  C   UNL     1       1.877   3.023  -2.131  0.00  0.00    -0.020 C 
ATOM      5  C   UNL     1       1.883   1.483  -2.196  0.00  0.00    -0.076 C 
ATOM      6  C   UNL     1       1.524  -0.269  -0.572  0.00  0.00    +0.060 C 
ATOM      7  C   UNL     1       0.115   0.003  -0.058  0.00  0.00    +0.085 C 
ATOM      8  C   UNL     1      -0.936  -0.594  -0.952  0.00  0.00    -0.011 A 
ATOM      9  C   UNL     1      -1.248  -0.435  -2.284  0.00  0.00    +0.006 A 
ATOM     10  C   UNL     1      -2.302  -1.141  -2.836  0.00  0.00    +0.000 A 
ATOM     11  C   UNL     1      -3.039  -2.006  -2.048  0.00  0.00    +0.002 A 
ATOM     12  C   UNL     1      -2.730  -2.168  -0.714  0.00  0.00    +0.023 A 
ATOM     13  C   UNL     1      -1.671  -1.461  -0.149  0.00  0.00    +0.038 A 
ATOM     14  N   UNL     1      -1.169  -1.454   1.154  0.00  0.00    -0.285 N 
ATOM     15  C   UNL     1      -0.120  -0.621   1.291  0.00  0.00    +0.228 C 
ATOM     16  O   UNL     1       0.512  -0.413   2.305  0.00  0.00    -0.275 OA
ATOM     17  C   UNL     1       2.318  -1.091   0.407  0.00  0.00    -0.025 A 
ATOM     18  C   UNL     1       2.696  -0.894   1.717  0.00  0.00    +0.024 A 
ATOM     19  C   UNL     1       3.446  -1.855   2.373  0.00  0.00    +0.041 A 
ATOM     20  C   UNL     1       3.813  -3.012   1.709  0.00  0.00    +0.022 A 
ATOM     21  C   UNL     1       3.436  -3.213   0.397  0.00  0.00    +0.025 A 
ATOM     22  C   UNL     1       2.682  -2.250  -0.270  0.00  0.00    +0.036 A 
ATOM     23  N   UNL     1       2.187  -2.221  -1.576  0.00  0.00    -0.286 N 
ATOM     24  C   UNL     1       1.497  -1.095  -1.833  0.00  0.00    +0.212 C 
ATOM     25  O   UNL     1       0.958  -0.800  -2.879  0.00  0.00    -0.277 OA
ATOM     26 CL   UNL     1       3.924  -1.609   4.023  0.00  0.00    -0.084 Cl
ATOM     27  H   UNL     1      -1.535  -1.988   1.877  0.00  0.00    +0.155 HD
ATOM     28  H   UNL     1       2.324  -2.932  -2.222  0.00  0.00    +0.155 HD
ATOM     29  N   UNL     1       2.121   1.055  -0.804  0.00  0.00    +0.395 N 
ATOM     30  H   UNL     1       3.128   1.028  -0.607  0.00  0.00    -0.079 HD
ENDROOT
BRANCH   1  31
ATOM     31  C   UNL     1      -0.708   2.065  -1.220  0.00  0.00    +0.166 C 
ATOM     32  O   UNL     1      -0.055   2.379  -2.193  0.00  0.00    -0.292 OA
BRANCH  31  37
ATOM     33  C   UNL     1      -6.431   2.597  -1.307  0.00  0.00    +0.044 C 
ATOM     34  C   UNL     1      -4.931   2.458  -1.284  0.00  0.00    -0.050 A 
ATOM     35  C   UNL     1      -4.189   2.818  -2.396  0.00  0.00    +0.004 A 
ATOM     36  C   UNL     1      -2.816   2.693  -2.383  0.00  0.00    +0.011 A 
ATOM     37  C   UNL     1      -2.173   2.201  -1.242  0.00  0.00    +0.018 A 
ATOM     38  C   UNL     1      -2.930   1.835  -0.125  0.00  0.00    +0.011 A 
ATOM     39  C   UNL     1      -4.302   1.970  -0.152  0.00  0.00    +0.004 A 
ENDBRANCH  31  37
ENDBRANCH   1  31
TORSDOF 2
