REMARK  Name = ZINC12406757
REMARK  4 active torsions:
REMARK  status: ('A' for Active; 'I' for Inactive)
REMARK    1  A    between atoms: C_1  and  C_2
REMARK    2  A    between atoms: N_8  and  C_9
REMARK    3  A    between atoms: C_9  and  C_10
REMARK    4  A    between atoms: C_10  and  C_11
REMARK                            x       y       z     vdW  Elec       q    Type
REMARK                         _______ _______ _______ _____ _____    ______ ____
ROOT
ATOM      1  C   UNL     1       0.234   5.362  -0.098  0.00  0.00    +0.064 C 
ATOM      2  C   UNL     1       0.107   3.862  -0.039  0.00  0.00    +0.033 A 
ATOM      3  C   UNL     1      -1.121   3.287   0.169  0.00  0.00    +0.088 A 
ATOM      4  C   UNL     1      -1.226   1.821   0.218  0.00  0.00    +0.104 A 
ATOM      5  C   UNL     1      -0.076   1.078   0.062  0.00  0.00    +0.100 A 
ATOM      6  C   UNL     1       1.137   1.746  -0.146  0.00  0.00    +0.254 A 
ATOM      7  O   UNL     1       2.160   1.095  -0.289  0.00  0.00    -0.268 OA
ATOM      8  N   UNL     1       1.200   3.087  -0.191  0.00  0.00    -0.311 N 
ATOM      9  N   UNL     1      -2.550   1.530   0.439  0.00  0.00    -0.161 NA
ATOM     10  N   UNL     1      -3.288   2.714   0.524  0.00  0.00    -0.171 N 
ATOM     11  C   UNL     1      -2.487   3.787   0.370  0.00  0.00    +0.285 A 
ATOM     12  O   UNL     1      -2.832   4.953   0.394  0.00  0.00    -0.265 OA
ATOM     13  C   UNL     1      -4.655   2.775   0.738  0.00  0.00    +0.198 A 
ATOM     14  N   UNL     1      -5.426   3.833   0.838  0.00  0.00    -0.221 NA
ATOM     15  C   UNL     1      -6.757   3.744   1.044  0.00  0.00    +0.081 A 
ATOM     16  C   UNL     1      -7.695   4.796   1.165  0.00  0.00    +0.029 A 
ATOM     17  C   UNL     1      -9.021   4.531   1.381  0.00  0.00    +0.002 A 
ATOM     18  C   UNL     1      -9.492   3.230   1.489  0.00  0.00    +0.001 A 
ATOM     19  C   UNL     1      -8.604   2.177   1.375  0.00  0.00    +0.017 A 
ATOM     20  C   UNL     1      -7.273   2.433   1.159  0.00  0.00    +0.041 A 
ATOM     21  S   UNL     1      -5.817   1.435   0.956  0.00  0.00    -0.048 S 
ENDROOT
BRANCH   8  22
ATOM     22  C   UNL     1       2.498   3.728  -0.412  0.00  0.00    +0.131 C 
BRANCH  22  23
ATOM     23  C   UNL     1       2.751   3.863  -1.915  0.00  0.00    +0.076 C 
BRANCH  23  24
ATOM     24  C   UNL     1       4.087   4.523  -2.142  0.00  0.00    +0.037 A 
ATOM     25  C   UNL     1       4.334   5.847  -2.169  0.00  0.00    +0.133 A 
ATOM     26  N   UNL     1       5.645   6.019  -2.395  0.00  0.00    -0.244 NA
ATOM     27  C   UNL     1       6.218   4.853  -2.518  0.00  0.00    +0.196 A 
ATOM     28  N   UNL     1       5.281   3.892  -2.367  0.00  0.00    -0.348 N 
ATOM     29  H   UNL     1       5.326   2.794  -2.394  0.00  0.00    +0.166 HD
ENDBRANCH  23  24
ENDBRANCH  22  23
ENDBRANCH   8  22
TORSDOF 3
