REMARK  Name = ZINC65320973
REMARK  4 active torsions:
REMARK  status: ('A' for Active; 'I' for Inactive)
REMARK    1  A    between atoms: C_1  and  C_2
REMARK    2  A    between atoms: C_5  and  C_8
REMARK    3  A    between atoms: C_9  and  N_22
REMARK    4  A    between atoms: C_23  and  C_25
REMARK                            x       y       z     vdW  Elec       q    Type
REMARK                         _______ _______ _______ _____ _____    ______ ____
ROOT
ATOM      1  C   UNL     1       0.060  -4.254  -0.021  0.00  0.00    +0.114 A 
ATOM      2  C   UNL     1       0.703  -5.053   0.877  0.00  0.00    +0.156 A 
ATOM      3  N   UNL     1       0.467  -6.370   0.508  0.00  0.00    -0.190 N 
ATOM      4  C   UNL     1      -0.320  -6.293  -0.613  0.00  0.00    +0.199 A 
ATOM      5  N   UNL     1      -0.561  -5.053  -0.917  0.00  0.00    -0.218 NA
ATOM      6  S   UNL     1      -0.575  -8.005  -1.019  0.00  0.00    -0.013 S 
ATOM      7  C   UNL     1       0.374  -8.711   0.319  0.00  0.00    +0.184 A 
ATOM      8  N   UNL     1       0.796  -7.648   0.948  0.00  0.00    -0.140 NA
ATOM      9  N   UNL     1       0.604 -10.045   0.613  0.00  0.00    -0.308 N 
ATOM     10  C   UNL     1       1.417 -10.426   1.776  0.00  0.00    +0.107 C 
ATOM     11  C   UNL     1       0.614 -11.403   2.641  0.00  0.00    +0.019 C 
ATOM     12  C   UNL     1       0.157 -12.583   1.780  0.00  0.00    +0.003 C 
ATOM     13  C   UNL     1      -0.749 -12.076   0.656  0.00  0.00    +0.019 C 
ATOM     14  C   UNL     1       0.033 -11.106  -0.228  0.00  0.00    +0.107 C 
ENDROOT
BRANCH   1  19
ATOM     15  C   UNL     1      -0.018   1.503   0.010  0.00  0.00    +0.044 C 
ATOM     16  C   UNL     1       0.002  -0.004   0.002  0.00  0.00    -0.050 A 
ATOM     17  C   UNL     1       0.006  -0.686  -1.202  0.00  0.00    +0.004 A 
ATOM     18  C   UNL     1       0.024  -2.066  -1.216  0.00  0.00    +0.010 A 
ATOM     19  C   UNL     1       0.040  -2.773  -0.013  0.00  0.00    +0.004 A 
ATOM     20  C   UNL     1       0.037  -2.079   1.197  0.00  0.00    +0.010 A 
ATOM     21  C   UNL     1       0.023  -0.699   1.198  0.00  0.00    +0.004 A 
ENDBRANCH   1  19
BRANCH   2  22
ATOM     22  N   UNL     1       1.462  -4.624   1.969  0.00  0.00    -0.268 N 
ATOM     23  C   UNL     1       2.046  -5.527   2.781  0.00  0.00    +0.224 C 
ATOM     24  O   UNL     1       1.913  -6.713   2.563  0.00  0.00    -0.275 OA
ATOM     25  H   UNL     1       1.568  -3.675   2.143  0.00  0.00    +0.156 HD
BRANCH  23  26
ATOM     26  C   UNL     1       2.864  -5.065   3.959  0.00  0.00    +0.103 C 
ATOM     27  C   UNL     1       3.391  -6.278   4.763  0.00  0.00    +0.043 C 
ATOM     28  C   UNL     1       3.213  -5.800   6.226  0.00  0.00    +0.160 C 
ATOM     29  O   UNL     1       1.978  -5.053   6.189  0.00  0.00    -0.379 OA
ATOM     30  C   UNL     1       1.980  -4.298   4.962  0.00  0.00    +0.172 C 
ENDBRANCH  23  26
ENDBRANCH   2  22
TORSDOF 3
