REMARK  Name = ZINC55874434
REMARK  7 active torsions:
REMARK  status: ('A' for Active; 'I' for Inactive)
REMARK    1  A    between atoms: C_1  and  C_2
REMARK    2  A    between atoms: C_2  and  N_3
REMARK    3  A    between atoms: C_4  and  C_6
REMARK    4  A    between atoms: C_11  and  N_12
REMARK    5  A    between atoms: N_12  and  C_13
REMARK    6  A    between atoms: C_13  and  C_14
REMARK    7  A    between atoms: C_27  and  C_29
REMARK                            x       y       z     vdW  Elec       q    Type
REMARK                         _______ _______ _______ _____ _____    ______ ____
ROOT
ATOM      1  C   UNL     1      -2.430  -6.041  -0.438  0.00  0.00    +0.198 C 
ENDROOT
BRANCH   1   2
ATOM      2  C   UNL     1      -1.122  -6.783  -0.530  0.00  0.00    +0.237 C 
ATOM      3  O   UNL     1      -0.074  -6.182  -0.419  0.00  0.00    -0.274 OA
ATOM      4  N   UNL     1      -1.116  -8.115  -0.737  0.00  0.00    -0.265 N 
ATOM      5  C   UNL     1      -2.319  -8.822  -0.873  0.00  0.00    +0.058 A 
ATOM      6  C   UNL     1      -3.139  -9.038   0.222  0.00  0.00    +0.025 A 
ATOM      7  C   UNL     1      -4.311  -9.757   0.073  0.00  0.00    +0.002 A 
ATOM      8  C   UNL     1      -4.666 -10.262  -1.165  0.00  0.00    +0.002 A 
ATOM      9  C   UNL     1      -3.857 -10.043  -2.265  0.00  0.00    +0.025 A 
ATOM     10  C   UNL     1      -2.687  -9.315  -2.125  0.00  0.00    +0.055 A 
ATOM     11  N   UNL     1      -1.881  -9.032  -3.234  0.00  0.00    -0.284 N 
ATOM     12  C   UNL     1      -0.547  -9.236  -3.181  0.00  0.00    +0.219 C 
ATOM     13  O   UNL     1       0.151  -8.909  -4.118  0.00  0.00    -0.275 OA
ATOM     14  C   UNL     1       0.081  -9.865  -1.965  0.00  0.00    +0.118 C 
ATOM     15  C   UNL     1       0.148  -8.849  -0.829  0.00  0.00    +0.087 C 
ATOM     16  C   UNL     1       0.406  -9.584   0.488  0.00  0.00    +0.029 C 
ATOM     17  H   UNL     1      -2.284  -8.688  -4.047  0.00  0.00    +0.155 HD
ENDBRANCH   1   2
BRANCH   1  18
ATOM     18  N   UNL     1      -2.169  -4.617  -0.212  0.00  0.00    -0.335 N 
ATOM     19  H   UNL     1      -1.256  -4.296  -0.147  0.00  0.00    +0.147 HD
BRANCH  18  25
ATOM     20  C   UNL     1      -2.984  -2.349   0.008  0.00  0.00    +0.058 A 
ATOM     21  C   UNL     1      -4.059  -1.463   0.123  0.00  0.00    +0.016 A 
ATOM     22  C   UNL     1      -5.348  -1.946   0.141  0.00  0.00    +0.021 A 
ATOM     23  C   UNL     1      -5.587  -3.310   0.046  0.00  0.00    +0.043 A 
ATOM     24  C   UNL     1      -4.535  -4.197  -0.068  0.00  0.00    +0.043 A 
ATOM     25  C   UNL     1      -3.228  -3.727  -0.093  0.00  0.00    +0.041 A 
ATOM     26 CL   UNL     1      -7.218  -3.904   0.071  0.00  0.00    -0.083 Cl
BRANCH  20  28
ATOM     27  N   UNL     1      -1.374  -0.510  -0.040  0.00  0.00    -0.312 N 
ATOM     28  C   UNL     1      -1.601  -1.838  -0.012  0.00  0.00    +0.246 C 
ATOM     29  O   UNL     1      -0.666  -2.615  -0.004  0.00  0.00    -0.270 OA
ATOM     30  H   UNL     1      -2.121   0.110  -0.046  0.00  0.00    +0.149 HD
BRANCH  27  32
ATOM     31  C   UNL     1      -0.022   1.528  -0.090  0.00  0.00    +0.024 C 
ATOM     32  C   UNL     1      -0.000  -0.002  -0.060  0.00  0.00    +0.101 C 
ENDBRANCH  27  32
ENDBRANCH  20  28
ENDBRANCH  18  25
ENDBRANCH   1  18
TORSDOF 5
