REMARK  Name = ZINC20886394
REMARK  7 active torsions:
REMARK  status: ('A' for Active; 'I' for Inactive)
REMARK    1  A    between atoms: C_1  and  N_2
REMARK    2  A    between atoms: N_2  and  C_3
REMARK    3  A    between atoms: N_2  and  C_4
REMARK    4  A    between atoms: C_7  and  C_10
REMARK    5  A    between atoms: C_15  and  C_20
REMARK    6  A    between atoms: C_25  and  O_26
REMARK    7  A    between atoms: O_26  and  C_27
REMARK                            x       y       z     vdW  Elec       q    Type
REMARK                         _______ _______ _______ _____ _____    ______ ____
ROOT
ATOM      1  C   UNL     1      -5.705  -1.900   0.101  0.00  0.00    +0.136 C 
ATOM      2  C   UNL     1      -4.433  -1.107  -0.085  0.00  0.00    +0.036 C 
ATOM      3  C   UNL     1      -3.909  -0.722  -1.260  0.00  0.00    +0.017 C 
ATOM      4  C   UNL     1      -2.603   0.055  -1.302  0.00  0.00    +0.060 C 
ATOM      5  C   UNL     1      -2.494   0.953  -0.070  0.00  0.00    +0.035 C 
ATOM      6  C   UNL     1      -2.535   0.053   1.170  0.00  0.00    +0.088 C 
ATOM      7  C   UNL     1      -3.791  -0.764   1.129  0.00  0.00    +0.163 C 
ATOM      8  O   UNL     1      -4.277  -1.144   2.176  0.00  0.00    -0.292 OA
ATOM      9  N   UNL     1      -4.458  -0.973  -2.475  0.00  0.00    -0.316 N 
ATOM     10  C   UNL     1      -4.947  -2.209  -2.885  0.00  0.00    +0.052 A 
ATOM     11  C   UNL     1      -4.411  -2.896  -3.960  0.00  0.00    +0.025 A 
ATOM     12  C   UNL     1      -5.012  -4.069  -4.384  0.00  0.00    +0.002 A 
ATOM     13  C   UNL     1      -6.136  -4.550  -3.736  0.00  0.00    +0.002 A 
ATOM     14  C   UNL     1      -6.660  -3.876  -2.648  0.00  0.00    +0.025 A 
ATOM     15  C   UNL     1      -6.051  -2.710  -2.211  0.00  0.00    +0.049 A 
ATOM     16  N   UNL     1      -6.515  -2.020  -1.092  0.00  0.00    -0.331 N 
ATOM     17  H   UNL     1      -4.541  -0.166  -3.219  0.00  0.00    +0.152 HD
ATOM     18  H   UNL     1      -7.516  -1.564  -1.127  0.00  0.00    +0.147 HD
ENDROOT
BRANCH   1  22
ATOM     19  C   UNL     1      -4.674  -5.825   1.442  0.00  0.00    +0.029 A 
ATOM     20  C   UNL     1      -4.265  -5.388   0.188  0.00  0.00    +0.023 A 
ATOM     21  C   UNL     1      -4.600  -4.119  -0.242  0.00  0.00    +0.007 A 
ATOM     22  C   UNL     1      -5.341  -3.284   0.574  0.00  0.00    -0.023 A 
ATOM     23  C   UNL     1      -5.745  -3.714   1.825  0.00  0.00    +0.007 A 
ATOM     24  C   UNL     1      -5.418  -4.984   2.259  0.00  0.00    +0.023 A 
BRANCH  19  26
ATOM     25  C   UNL     1      -3.552  -7.994   1.016  0.00  0.00    +0.129 C 
ATOM     26  N   UNL     1      -4.337  -7.108   1.879  0.00  0.00    -0.336 N 
ATOM     27  C   UNL     1      -4.769  -7.567   3.202  0.00  0.00    +0.129 C 
ENDBRANCH  19  26
ENDBRANCH   1  22
BRANCH   5  28
ATOM     28  C   UNL     1      -1.194   1.714  -0.107  0.00  0.00    -0.002 A 
ATOM     29  C   UNL     1       0.007   1.030  -0.140  0.00  0.00    +0.007 A 
ATOM     30  C   UNL     1       1.200   1.728  -0.178  0.00  0.00    +0.001 A 
ATOM     31  C   UNL     1       1.195   3.111  -0.180  0.00  0.00    +0.004 A 
ATOM     32  C   UNL     1      -0.002   3.799  -0.142  0.00  0.00    +0.046 A 
ATOM     33  C   UNL     1      -1.201   3.101  -0.103  0.00  0.00    +0.124 A 
BRANCH  33  34
ATOM     34  O   UNL     1      -2.380   3.775  -0.066  0.00  0.00    -0.495 OA
ATOM     35  C   UNL     1      -2.312   5.203  -0.071  0.00  0.00    +0.277 C 
ENDBRANCH  33  34
ENDBRANCH   5  28
TORSDOF 4
