REMARK  Name = ZINC02952624
REMARK  4 active torsions:
REMARK  status: ('A' for Active; 'I' for Inactive)
REMARK    1  A    between atoms: N_9  and  C_14
REMARK    2  A    between atoms: C_14  and  C_15
REMARK    3  A    between atoms: C_18  and  C_21
REMARK    4  A    between atoms: N_23  and  C_24
REMARK                            x       y       z     vdW  Elec       q    Type
REMARK                         _______ _______ _______ _____ _____    ______ ____
ROOT
ATOM      1  C   UNL     1      -1.490   3.616   0.036  0.00  0.00    +0.009 C 
ATOM      2  C   UNL     1      -0.773   3.123  -1.223  0.00  0.00    +0.006 C 
ATOM      3  C   UNL     1      -0.753   1.593  -1.232  0.00  0.00    +0.013 C 
ATOM      4  C   UNL     1      -0.013   1.086   0.008  0.00  0.00    +0.075 C 
ATOM      5  C   UNL     1      -0.729   1.579   1.267  0.00  0.00    +0.013 C 
ATOM      6  C   UNL     1      -0.750   3.109   1.275  0.00  0.00    +0.006 C 
ENDROOT
BRANCH   4   7
ATOM      7  C   UNL     1       1.401   1.607  -0.003  0.00  0.00    +0.216 C 
ATOM      8  O   UNL     1       1.780   2.315  -0.912  0.00  0.00    -0.276 OA
ATOM      9  N   UNL     1       2.245   1.288   0.998  0.00  0.00    -0.312 N 
ATOM     10  H   UNL     1       1.942   0.722   1.726  0.00  0.00    +0.149 HD
BRANCH   9  11
ATOM     11  C   UNL     1       3.619   1.795   0.988  0.00  0.00    +0.073 C 
ATOM     12  C   UNL     1       4.499   0.867   0.147  0.00  0.00    +0.022 C 
ATOM     13  C   UNL     1       5.808   1.580  -0.197  0.00  0.00    +0.002 C 
ATOM     14  C   UNL     1       5.510   3.018  -0.625  0.00  0.00    +0.000 C 
ATOM     15  C   UNL     1       6.074   3.987   0.415  0.00  0.00    +0.000 C 
ATOM     16  C   UNL     1       5.167   3.996   1.647  0.00  0.00    +0.000 C 
ATOM     17  C   UNL     1       5.406   2.726   2.466  0.00  0.00    +0.002 C 
ATOM     18  C   UNL     1       4.155   1.846   2.420  0.00  0.00    +0.022 C 
ENDBRANCH   9  11
ENDBRANCH   4   7
BRANCH   1  19
ATOM     19  C   UNL     1      -1.510   5.146   0.044  0.00  0.00    +0.133 C 
BRANCH  19  28
ATOM     20  C   UNL     1      -6.440   6.975   3.243  0.00  0.00    +0.001 A 
ATOM     21  C   UNL     1      -5.762   7.187   4.434  0.00  0.00    +0.002 A 
ATOM     22  C   UNL     1      -4.404   6.959   4.521  0.00  0.00    +0.026 A 
ATOM     23  C   UNL     1      -3.708   6.513   3.407  0.00  0.00    +0.056 A 
ATOM     24  C   UNL     1      -4.394   6.296   2.200  0.00  0.00    +0.063 A 
ATOM     25  C   UNL     1      -5.765   6.531   2.125  0.00  0.00    +0.015 A 
ATOM     26  C   UNL     1      -3.624   5.826   1.034  0.00  0.00    +0.264 A 
ATOM     27  O   UNL     1      -4.169   5.628  -0.035  0.00  0.00    -0.267 OA
ATOM     28  N   UNL     1      -2.298   5.617   1.186  0.00  0.00    -0.260 N 
ATOM     29  C   UNL     1      -1.688   5.838   2.360  0.00  0.00    +0.330 A 
ATOM     30  O   UNL     1      -0.491   5.639   2.441  0.00  0.00    -0.246 OA
ATOM     31  N   UNL     1      -2.343   6.271   3.452  0.00  0.00    -0.307 N 
ATOM     32  H   UNL     1      -1.841   6.420   4.304  0.00  0.00    +0.170 HD
ENDBRANCH  19  28
ENDBRANCH   1  19
TORSDOF 4
