REMARK  Name = ZINC30961836
REMARK  10 active torsions:
REMARK  status: ('A' for Active; 'I' for Inactive)
REMARK    1  A    between atoms: C_1  and  C_2
REMARK    2  A    between atoms: C_2  and  C_3
REMARK    3  A    between atoms: C_2  and  C_4
REMARK    4  A    between atoms: C_4  and  C_6
REMARK    5  A    between atoms: C_4  and  N_25
REMARK    6  A    between atoms: N_8  and  N_9
REMARK    7  A    between atoms: C_10  and  C_11
REMARK    8  A    between atoms: N_15  and  C_16
REMARK    9  A    between atoms: C_19  and  N_22
REMARK   10  A    between atoms: C_26  and  C_28
REMARK                            x       y       z     vdW  Elec       q    Type
REMARK                         _______ _______ _______ _____ _____    ______ ____
ROOT
ATOM      1  C   UNL     1       4.647   6.199  -0.350  0.00  0.00    +0.253 C 
ATOM      2  O   UNL     1       3.790   6.213   0.502  0.00  0.00    -0.272 OA
ATOM      3  N   UNL     1       5.763   6.940  -0.195  0.00  0.00    -0.205 N 
ATOM      4  H   UNL     1       6.563   6.891  -0.948  0.00  0.00    +0.177 HD
ENDROOT
BRANCH   3   5
ATOM      5  N   UNL     1       5.891   7.705   0.835  0.00  0.00    -0.186 NA
ATOM      6  C   UNL     1       7.029   8.383   1.027  0.00  0.00    +0.156 C 
BRANCH   6   7
ATOM      7  C   UNL     1       8.190   7.975   0.402  0.00  0.00    +0.066 A 
ATOM      8  C   UNL     1       8.382   6.743  -0.392  0.00  0.00    +0.029 A 
ATOM      9  C   UNL     1       9.673   6.757  -0.813  0.00  0.00    +0.020 A 
ATOM     10  C   UNL     1      10.290   7.918  -0.322  0.00  0.00    +0.092 A 
ATOM     11  N   UNL     1       9.411   8.638   0.398  0.00  0.00    -0.315 N 
BRANCH  11  12
ATOM     12  C   UNL     1       9.682   9.855   1.036  0.00  0.00    +0.047 A 
ATOM     13  C   UNL     1       8.841  10.944   0.843  0.00  0.00    +0.028 A 
ATOM     14  C   UNL     1       9.109  12.141   1.478  0.00  0.00    +0.035 A 
ATOM     15  C   UNL     1      10.217  12.259   2.297  0.00  0.00    +0.126 A 
ATOM     16  C   UNL     1      11.058  11.178   2.486  0.00  0.00    +0.035 A 
ATOM     17  C   UNL     1      10.794   9.977   1.859  0.00  0.00    +0.028 A 
BRANCH  15  18
ATOM     18  N   UNL     1      10.503  13.545   2.971  0.00  0.00    +0.056 N 
ATOM     19  O   UNL     1      11.559  13.659   3.751  0.00  0.00    -0.126 OA
ATOM     20  O   UNL     1       9.703  14.576   2.791  0.00  0.00    -0.126 OA
ENDBRANCH  15  18
ENDBRANCH  11  12
ENDBRANCH   6   7
ENDBRANCH   3   5
BRANCH   1  21
ATOM     21  C   UNL     1       4.469   5.354  -1.585  0.00  0.00    +0.163 C 
BRANCH  21  22
ATOM     22  N   UNL     1       3.620   4.202  -1.270  0.00  0.00    -0.300 N 
ATOM     23  C   UNL     1       3.713   3.075  -2.003  0.00  0.00    +0.245 C 
ATOM     24  O   UNL     1       4.502   3.014  -2.926  0.00  0.00    -0.270 OA
ATOM     25  H   UNL     1       2.906   4.258  -0.435  0.00  0.00    +0.150 HD
BRANCH  23  26
ATOM     26  C   UNL     1       2.857   1.914  -1.685  0.00  0.00    +0.038 A 
ATOM     27  C   UNL     1       1.949   1.981  -0.626  0.00  0.00    +0.014 A 
ATOM     28  C   UNL     1       1.153   0.894  -0.333  0.00  0.00    +0.022 A 
ATOM     29  C   UNL     1       1.251  -0.263  -1.088  0.00  0.00    +0.059 A 
ATOM     30  C   UNL     1       2.149  -0.336  -2.141  0.00  0.00    +0.060 A 
ATOM     31  C   UNL     1       2.951   0.745  -2.443  0.00  0.00    +0.034 A 
ATOM     32 CL   UNL     1       2.264  -1.791  -3.082  0.00  0.00    -0.082 Cl
ATOM     33 CL   UNL     1       0.245  -1.627  -0.713  0.00  0.00    -0.082 Cl
ENDBRANCH  23  26
ENDBRANCH  21  22
BRANCH  21  35
ATOM     34  C   UNL     1       4.629   7.458  -2.921  0.00  0.00    +0.009 C 
ATOM     35  C   UNL     1       3.809   6.189  -2.683  0.00  0.00    +0.012 C 
ATOM     36  C   UNL     1       3.746   5.373  -3.976  0.00  0.00    +0.009 C 
ENDBRANCH  21  35
ENDBRANCH   1  21
TORSDOF 8
