REMARK  Name = ZINC39930494
REMARK  8 active torsions:
REMARK  status: ('A' for Active; 'I' for Inactive)
REMARK    1  A    between atoms: C_1  and  C_2
REMARK    2  A    between atoms: C_3  and  C_8
REMARK    3  A    between atoms: C_8  and  C_9
REMARK    4  A    between atoms: C_14  and  C_17
REMARK    5  A    between atoms: C_18  and  C_27
REMARK    6  A    between atoms: N_19  and  C_24
REMARK    7  A    between atoms: C_20  and  C_23
REMARK    8  A    between atoms: C_24  and  C_25
REMARK                            x       y       z     vdW  Elec       q    Type
REMARK                         _______ _______ _______ _____ _____    ______ ____
ROOT
ATOM      1  C   UNL     1       5.157  -0.423  -1.833  0.00  0.00    +0.224 C 
ATOM      2  O   UNL     1       3.944  -0.435  -1.793  0.00  0.00    -0.275 OA
ATOM      3  N   UNL     1       5.790  -0.024  -2.954  0.00  0.00    -0.264 N 
ATOM      4  C   UNL     1       5.054   0.373  -4.064  0.00  0.00    +0.165 A 
ATOM      5  N   UNL     1       5.499   0.782  -5.230  0.00  0.00    -0.225 NA
ATOM      6  C   UNL     1       4.656   1.132  -6.203  0.00  0.00    +0.078 A 
ATOM      7  C   UNL     1       3.321   1.038  -5.915  0.00  0.00    +0.076 A 
ATOM      8  S   UNL     1       3.382   0.437  -4.235  0.00  0.00    -0.060 S 
ATOM      9  H   UNL     1       6.759  -0.015  -2.986  0.00  0.00    +0.157 HD
ENDROOT
BRANCH   6  10
ATOM     10  C   UNL     1       5.138   1.595  -7.520  0.00  0.00    -0.003 C 
ATOM     11  C   UNL     1       6.406   1.810  -7.847  0.00  0.00    +0.009 C 
ATOM     12  N   UNL     1       6.577   2.240  -9.147  0.00  0.00    -0.326 N 
ATOM     13  C   UNL     1       5.266   2.334  -9.806  0.00  0.00    +0.075 C 
ATOM     14  C   UNL     1       4.266   1.894  -8.720  0.00  0.00    +0.061 C 
ATOM     15  C   UNL     1       4.991   3.773 -10.247  0.00  0.00    +0.028 C 
ATOM     16  C   UNL     1       7.551   1.606  -6.888  0.00  0.00    +0.061 C 
BRANCH  12  17
ATOM     17  C   UNL     1       7.864   2.553  -9.773  0.00  0.00    +0.131 C 
BRANCH  17  18
ATOM     18  C   UNL     1       8.424   1.311 -10.418  0.00  0.00    -0.016 C 
ATOM     19  C   UNL     1       8.751   1.323 -11.686  0.00  0.00    +0.005 C 
ENDBRANCH  17  18
ENDBRANCH  12  17
ENDBRANCH   6  10
BRANCH   1  20
ATOM     20  C   UNL     1       5.955  -0.854  -0.630  0.00  0.00    +0.140 C 
BRANCH  20  23
ATOM     21  C   UNL     1       4.777  -3.672  -0.072  0.00  0.00    +0.066 C 
ATOM     22  C   UNL     1       4.475  -2.457   0.767  0.00  0.00    +0.050 A 
ATOM     23  C   UNL     1       5.016  -1.248   0.481  0.00  0.00    +0.022 A 
ATOM     24  S   UNL     1       4.309  -0.250   1.782  0.00  0.00    -0.064 S 
ATOM     25  C   UNL     1       3.415  -1.457   2.542  0.00  0.00    +0.146 A 
ATOM     26  S   UNL     1       2.384  -1.325   3.964  0.00  0.00    -0.023 SA
ATOM     27  N   UNL     1       3.668  -2.522   1.811  0.00  0.00    -0.237 NA
ENDBRANCH  20  23
ENDBRANCH   1  20
TORSDOF 5
