REMARK  Name = ZINC17306117
REMARK  17 active torsions:
REMARK  status: ('A' for Active; 'I' for Inactive)
REMARK    1  A    between atoms: C_1  and  C_2
REMARK    2  A    between atoms: C_2  and  C_4
REMARK    3  A    between atoms: C_2  and  N_15
REMARK    4  A    between atoms: C_7  and  N_10
REMARK    5  A    between atoms: N_15  and  C_16
REMARK    6  A    between atoms: N_15  and  C_17
REMARK    7  A    between atoms: C_17  and  C_18
REMARK    8  A    between atoms: N_20  and  C_21
REMARK    9  A    between atoms: N_20  and  C_25
REMARK   10  A    between atoms: C_21  and  C_22
REMARK   11  A    between atoms: C_22  and  C_23
REMARK   12  A    between atoms: C_22  and  C_24
REMARK   13  A    between atoms: C_26  and  N_38
REMARK   14  A    between atoms: N_27  and  C_34
REMARK   15  A    between atoms: C_34  and  C_35
REMARK   16  A    between atoms: C_35  and  C_36
REMARK   17  A    between atoms: C_35  and  C_37
REMARK                            x       y       z     vdW  Elec       q    Type
REMARK                         _______ _______ _______ _____ _____    ______ ____
ROOT
ATOM      1  C   UNL     1       1.264  -2.521  -2.303  0.00  0.00    +0.203 C 
ATOM      2  O   UNL     1       1.360  -1.675  -3.167  0.00  0.00    -0.277 OA
ATOM      3  N   UNL     1       1.687  -3.780  -2.541  0.00  0.00    -0.266 N 
ENDROOT
BRANCH   3   4
ATOM      4  C   UNL     1       2.334  -4.089  -3.757  0.00  0.00    +0.140 A 
ATOM      5  C   UNL     1       1.778  -4.995  -4.637  0.00  0.00    +0.127 A 
ATOM      6  N   UNL     1       2.432  -5.275  -5.814  0.00  0.00    -0.280 N 
ATOM      7  C   UNL     1       3.600  -4.673  -6.104  0.00  0.00    +0.331 A 
ATOM      8  O   UNL     1       4.162  -4.935  -7.150  0.00  0.00    -0.246 OA
ATOM      9  N   UNL     1       4.156  -3.788  -5.258  0.00  0.00    -0.273 N 
ATOM     10  H   UNL     1       4.999  -3.368  -5.490  0.00  0.00    +0.173 HD
ATOM     11  C   UNL     1       3.554  -3.475  -4.094  0.00  0.00    +0.277 A 
ATOM     12  O   UNL     1       4.066  -2.668  -3.337  0.00  0.00    -0.266 OA
BRANCH   5  13
ATOM     13  N   UNL     1       0.585  -5.609  -4.341  0.00  0.00    -0.343 N 
ATOM     14  H   UNL     1       0.078  -5.335  -3.561  0.00  0.00    +0.144 HD
ATOM     15  H   UNL     1       0.249  -6.317  -4.913  0.00  0.00    +0.144 HD
ENDBRANCH   5  13
BRANCH   6  16
ATOM     16  C   UNL     1       1.853  -6.234  -6.758  0.00  0.00    +0.131 C 
BRANCH  16  17
ATOM     17  C   UNL     1       0.938  -5.497  -7.738  0.00  0.00    +0.003 C 
ATOM     18  C   UNL     1       0.432  -6.476  -8.799  0.00  0.00    +0.009 C 
ATOM     19  C   UNL     1      -0.253  -4.907  -6.979  0.00  0.00    +0.009 C 
ENDBRANCH  16  17
ENDBRANCH   6  16
ENDBRANCH   3   4
BRANCH   1  20
ATOM     20  C   UNL     1       0.672  -2.166  -0.964  0.00  0.00    +0.020 C 
BRANCH  20  21
ATOM     21  N   UNL     1       0.283  -0.749  -0.960  0.00  0.00    +0.388 N 
ATOM     22  C   UNL     1      -0.797  -0.535  -1.932  0.00  0.00    -0.095 C 
ATOM     23  H   UNL     1       1.079  -0.182  -1.212  0.00  0.00    -0.081 HD
BRANCH  21  25
ATOM     24  C   UNL     1      -0.587   1.103   0.385  0.00  0.00    -0.008 C 
ATOM     25  C   UNL     1      -0.182  -0.373   0.381  0.00  0.00    -0.041 C 
BRANCH  25  26
ATOM     26  C   UNL     1       0.926  -0.592   1.378  0.00  0.00    -0.061 A 
ATOM     27  C   UNL     1       2.228  -0.264   1.046  0.00  0.00    +0.004 A 
ATOM     28  C   UNL     1       3.246  -0.464   1.958  0.00  0.00    +0.028 A 
ATOM     29  C   UNL     1       2.962  -0.995   3.209  0.00  0.00    +0.067 A 
ATOM     30  C   UNL     1       1.654  -1.323   3.539  0.00  0.00    +0.028 A 
ATOM     31  C   UNL     1       0.639  -1.116   2.625  0.00  0.00    +0.004 A 
BRANCH  29  32
ATOM     32  N   UNL     1       3.993  -1.199   4.136  0.00  0.00    -0.220 N 
ATOM     33  C   UNL     1       3.873  -1.707   5.378  0.00  0.00    +0.225 A 
ATOM     34  N   UNL     1       5.064  -1.735   5.920  0.00  0.00    -0.222 NA
ATOM     35  C   UNL     1       5.964  -1.256   5.062  0.00  0.00    +0.245 A 
ATOM     36  N   UNL     1       5.357  -0.920   3.953  0.00  0.00    -0.154 NA
ENDBRANCH  29  32
ENDBRANCH  25  26
ENDBRANCH  21  25
ENDBRANCH  20  21
ENDBRANCH   1  20
BRANCH   3  37
ATOM     37  C   UNL     1       1.475  -4.827  -1.538  0.00  0.00    +0.117 C 
BRANCH  37  38
ATOM     38  C   UNL     1       2.608  -4.784  -0.510  0.00  0.00    +0.001 C 
ATOM     39  C   UNL     1       2.301  -5.760   0.628  0.00  0.00    +0.009 C 
ATOM     40  C   UNL     1       3.923  -5.184  -1.183  0.00  0.00    +0.009 C 
ENDBRANCH  37  38
ENDBRANCH   3  37
TORSDOF 11
