REMARK  Name = ZINC34918039
REMARK  14 active torsions:
REMARK  status: ('A' for Active; 'I' for Inactive)
REMARK    1  A    between atoms: C_1  and  C_2
REMARK    2  A    between atoms: C_2  and  O_3
REMARK    3  A    between atoms: O_3  and  C_4
REMARK    4  A    between atoms: C_6  and  C_16
REMARK    5  A    between atoms: C_9  and  O_10
REMARK    6  A    between atoms: O_10  and  C_11
REMARK    7  A    between atoms: C_11  and  C_12
REMARK    8  A    between atoms: C_12  and  C_13
REMARK    9  A    between atoms: C_13  and  C_14
REMARK   10  A    between atoms: C_13  and  C_15
REMARK   11  A    between atoms: C_18  and  C_30
REMARK   12  A    between atoms: C_26  and  C_28
REMARK   13  A    between atoms: C_30  and  C_32
REMARK   14  A    between atoms: C_35  and  C_37
REMARK                            x       y       z     vdW  Elec       q    Type
REMARK                         _______ _______ _______ _____ _____    ______ ____
ROOT
ATOM      1  C   UNL     1      -0.526  -4.224   0.190  0.00  0.00    +0.152 C 
ATOM      2  C   UNL     1      -0.036  -4.616   1.564  0.00  0.00    +0.080 C 
ATOM      3  C   UNL     1      -1.052  -4.372   2.425  0.00  0.00    +0.250 C 
ATOM      4  C   UNL     1      -2.203  -3.832   1.677  0.00  0.00    +0.293 C 
ATOM      5  O   UNL     1      -3.267  -3.513   2.170  0.00  0.00    -0.266 OA
ATOM      6  N   UNL     1      -1.901  -3.743   0.368  0.00  0.00    -0.230 N 
ATOM      7  C   UNL     1      -2.741  -3.280  -0.636  0.00  0.00    +0.191 A 
ATOM      8  N   UNL     1      -2.530  -3.165  -1.941  0.00  0.00    -0.125 NA
ATOM      9  N   UNL     1      -3.414  -2.719  -2.721  0.00  0.00    -0.145 NA
ATOM     10  C   UNL     1      -4.602  -2.339  -2.293  0.00  0.00    +0.101 A 
ATOM     11  S   UNL     1      -4.423  -2.673  -0.543  0.00  0.00    -0.035 S 
ATOM     12  C   UNL     1      -5.777  -1.787  -3.058  0.00  0.00    +0.075 C 
ATOM     13  O   UNL     1      -1.017  -4.590   3.761  0.00  0.00    -0.282 OA
ENDROOT
BRANCH   1  16
ATOM     14  C   UNL     1       1.264  -0.921  -0.210  0.00  0.00    +0.162 A 
ATOM     15  C   UNL     1       0.469  -1.931   0.308  0.00  0.00    +0.055 A 
ATOM     16  C   UNL     1       0.338  -3.126  -0.375  0.00  0.00    -0.018 A 
ATOM     17  C   UNL     1       0.998  -3.316  -1.575  0.00  0.00    +0.009 A 
ATOM     18  C   UNL     1       1.792  -2.312  -2.097  0.00  0.00    +0.050 A 
ATOM     19  C   UNL     1       1.923  -1.110  -1.420  0.00  0.00    +0.162 A 
BRANCH  14  20
ATOM     20  O   UNL     1       1.394   0.255   0.461  0.00  0.00    -0.489 OA
BRANCH  20  22
ATOM     21  C   UNL     1       0.964   1.754   2.307  0.00  0.00    +0.048 C 
ATOM     22  C   UNL     1       0.698   0.374   1.703  0.00  0.00    +0.226 C 
ENDBRANCH  20  22
ENDBRANCH  14  20
BRANCH  19  23
ATOM     23  O   UNL     1       2.699  -0.119  -1.935  0.00  0.00    -0.488 OA
BRANCH  23  24
ATOM     24  C   UNL     1       3.346  -0.384  -3.182  0.00  0.00    +0.229 C 
BRANCH  24  25
ATOM     25  C   UNL     1       4.168   0.838  -3.599  0.00  0.00    +0.044 C 
BRANCH  25  26
ATOM     26  C   UNL     1       4.861   0.555  -4.934  0.00  0.00    -0.014 C 
ATOM     27  C   UNL     1       3.806   0.383  -6.029  0.00  0.00    +0.007 C 
ATOM     28  C   UNL     1       5.780   1.725  -5.289  0.00  0.00    +0.007 C 
ENDBRANCH  25  26
ENDBRANCH  24  25
ENDBRANCH  23  24
ENDBRANCH  19  23
ENDBRANCH   1  16
BRANCH   2  29
ATOM     29  C   UNL     1       1.286  -5.158   1.901  0.00  0.00    +0.230 C 
ATOM     30  O   UNL     1       1.599  -5.319   3.067  0.00  0.00    -0.283 OA
BRANCH  29  31
ATOM     31  C   UNL     1       2.229  -5.505   0.833  0.00  0.00    +0.175 A 
ATOM     32  C   UNL     1       3.538  -5.899   1.004  0.00  0.00    +0.053 A 
ATOM     33  C   UNL     1       4.057  -6.127  -0.279  0.00  0.00    +0.045 A 
ATOM     34  C   UNL     1       3.066  -5.869  -1.162  0.00  0.00    +0.103 A 
ATOM     35  O   UNL     1       1.968  -5.501  -0.490  0.00  0.00    -0.457 OA
ATOM     36  C   UNL     1       3.178  -5.983  -2.661  0.00  0.00    +0.086 C 
ENDBRANCH  29  31
ENDBRANCH   2  29
TORSDOF 9
