REMARK  Name = ZINC41511296
REMARK  9 active torsions:
REMARK  status: ('A' for Active; 'I' for Inactive)
REMARK    1  A    between atoms: C_1  and  C_2
REMARK    2  A    between atoms: C_4  and  O_32
REMARK    3  A    between atoms: C_5  and  C_23
REMARK    4  A    between atoms: C_11  and  C_12
REMARK    5  A    between atoms: C_15  and  C_18
REMARK    6  A    between atoms: C_18  and  O_20
REMARK    7  A    between atoms: O_20  and  C_21
REMARK    8  A    between atoms: C_23  and  N_24
REMARK    9  A    between atoms: C_29  and  C_31
REMARK                            x       y       z     vdW  Elec       q    Type
REMARK                         _______ _______ _______ _____ _____    ______ ____
ROOT
ATOM      1  C   UNL     1      -0.086   1.509   0.017  0.00  0.00    +0.045 C 
ATOM      2  C   UNL     1      -0.074   0.002   0.006  0.00  0.00    -0.033 A 
ATOM      3  C   UNL     1      -0.095  -0.674  -1.181  0.00  0.00    +0.050 A 
ATOM      4  C   UNL     1      -0.084  -2.066  -1.193  0.00  0.00    +0.122 A 
ATOM      5  C   UNL     1      -0.052  -2.781  -0.006  0.00  0.00    +0.020 A 
ATOM      6  C   UNL     1      -0.029  -2.109   1.209  0.00  0.00    +0.145 A 
ATOM      7  C   UNL     1      -0.035  -0.704   1.208  0.00  0.00    +0.071 A 
ATOM      8  C   UNL     1      -0.001  -0.288   2.622  0.00  0.00    +0.232 C 
ATOM      9  O   UNL     1       0.001   0.847   3.065  0.00  0.00    -0.283 OA
ATOM     10  C   UNL     1       0.031  -1.553   3.378  0.00  0.00    +0.176 C 
ATOM     11  C   UNL     1       0.068  -1.679   4.728  0.00  0.00    +0.058 C 
ATOM     12  O   UNL     1       0.002  -2.565   2.481  0.00  0.00    -0.451 OA
ENDROOT
BRANCH  11  13
ATOM     13  C   UNL     1      -0.019  -3.011   5.344  0.00  0.00    -0.021 A 
ATOM     14  C   UNL     1      -0.116  -3.134   6.735  0.00  0.00    +0.009 A 
ATOM     15  C   UNL     1      -0.198  -4.377   7.309  0.00  0.00    +0.015 A 
ATOM     16  C   UNL     1      -0.183  -5.520   6.505  0.00  0.00    +0.059 A 
ATOM     17  C   UNL     1      -0.086  -5.399   5.116  0.00  0.00    +0.015 A 
ATOM     18  C   UNL     1      -0.010  -4.157   4.539  0.00  0.00    +0.009 A 
BRANCH  16  19
ATOM     19  C   UNL     1      -0.270  -6.858   7.124  0.00  0.00    +0.339 C 
ATOM     20  O   UNL     1      -0.354  -6.965   8.331  0.00  0.00    -0.245 OA
BRANCH  19  21
ATOM     21  O   UNL     1      -0.256  -7.961   6.350  0.00  0.00    -0.464 OA
ATOM     22  C   UNL     1      -0.343  -9.222   7.016  0.00  0.00    +0.280 C 
ENDBRANCH  19  21
ENDBRANCH  16  19
ENDBRANCH  11  13
BRANCH   4  23
ATOM     23  O   UNL     1      -0.106  -2.729  -2.377  0.00  0.00    -0.506 OA
ATOM     24  H   UNL     1       0.770  -2.914  -2.741  0.00  0.00    +0.292 HD
ENDBRANCH   4  23
BRANCH   5  25
ATOM     25  C   UNL     1      -0.040  -4.288  -0.034  0.00  0.00    -0.035 C 
BRANCH  25  26
ATOM     26  N   UNL     1       1.348  -4.766  -0.075  0.00  0.00    +0.384 N 
ATOM     27  C   UNL     1       2.031  -4.388   1.168  0.00  0.00    -0.078 C 
ATOM     28  C   UNL     1       3.499  -4.813   1.097  0.00  0.00    -0.019 C 
ATOM     29  C   UNL     1       3.577  -6.331   0.912  0.00  0.00    -0.003 C 
ATOM     30  C   UNL     1       2.798  -6.722  -0.347  0.00  0.00    -0.016 C 
ATOM     31  C   UNL     1       1.356  -6.227  -0.223  0.00  0.00    -0.071 C 
ATOM     32  C   UNL     1       0.574  -6.616  -1.478  0.00  0.00    -0.013 C 
ATOM     33  H   UNL     1       1.824  -4.347  -0.859  0.00  0.00    -0.081 HD
ENDBRANCH  25  26
ENDBRANCH   5  25
TORSDOF 6
