REMARK  Name = ZINC48388674
REMARK  6 active torsions:
REMARK  status: ('A' for Active; 'I' for Inactive)
REMARK    1  A    between atoms: C_1  and  C_2
REMARK    2  A    between atoms: C_2  and  C_3
REMARK    3  A    between atoms: C_2  and  N_12
REMARK    4  A    between atoms: N_15  and  C_16
REMARK    5  A    between atoms: C_16  and  C_17
REMARK    6  A    between atoms: C_17  and  N_22
REMARK                            x       y       z     vdW  Elec       q    Type
REMARK                         _______ _______ _______ _____ _____    ______ ____
ROOT
ATOM      1  N   UNL     1       0.823  -0.327   1.238  0.00  0.00    -0.293 N 
ATOM      2  C   UNL     1       0.125  -0.548   2.369  0.00  0.00    +0.300 C 
ATOM      3  O   UNL     1      -1.072  -0.337   2.397  0.00  0.00    -0.253 OA
ATOM      4  N   UNL     1       0.755  -1.004   3.470  0.00  0.00    -0.301 N 
ATOM      5  H   UNL     1       1.778  -0.495   1.215  0.00  0.00    +0.151 HD
ATOM      6  H   UNL     1       1.710  -1.173   3.448  0.00  0.00    +0.150 HD
ENDROOT
BRANCH   1   8
ATOM      7  C   UNL     1       0.039   1.694   0.104  0.00  0.00    +0.033 C 
ATOM      8  C   UNL     1       0.138   0.169   0.041  0.00  0.00    +0.102 C 
BRANCH   8   9
ATOM      9  C   UNL     1       0.916  -0.234  -1.186  0.00  0.00    -0.024 A 
ATOM     10  C   UNL     1       2.298  -0.184  -1.173  0.00  0.00    +0.009 A 
ATOM     11  C   UNL     1       3.016  -0.552  -2.295  0.00  0.00    +0.050 A 
ATOM     12  C   UNL     1       2.352  -0.972  -3.436  0.00  0.00    +0.166 A 
ATOM     13  C   UNL     1       0.960  -1.022  -3.449  0.00  0.00    +0.167 A 
ATOM     14  C   UNL     1       0.247  -0.657  -2.319  0.00  0.00    +0.055 A 
ATOM     15  O   UNL     1       0.551  -1.463  -4.675  0.00  0.00    -0.453 OA
ATOM     16  C   UNL     1       1.686  -1.292  -5.544  0.00  0.00    +0.466 C 
ATOM     17  O   UNL     1       2.815  -1.381  -4.654  0.00  0.00    -0.453 OA
ENDBRANCH   8   9
ENDBRANCH   1   8
BRANCH   4  18
ATOM     18  C   UNL     1      -0.003  -1.245   4.701  0.00  0.00    +0.094 C 
BRANCH  18  19
ATOM     19  C   UNL     1       0.916  -1.870   5.752  0.00  0.00    -0.050 C 
ATOM     20  C   UNL     1       1.446  -3.229   5.250  0.00  0.00    -0.010 C 
ATOM     21  C   UNL     1       1.480  -4.116   6.519  0.00  0.00    -0.001 C 
ATOM     22  C   UNL     1       0.202  -3.679   7.277  0.00  0.00    -0.001 C 
ATOM     23  C   UNL     1       0.126  -2.156   7.041  0.00  0.00    -0.010 C 
BRANCH  19  24
ATOM     24  N   UNL     1       2.038  -0.967   6.040  0.00  0.00    +0.386 N 
ATOM     25  C   UNL     1       2.997  -1.654   6.907  0.00  0.00    -0.067 C 
ATOM     26  C   UNL     1       4.328  -0.893   6.918  0.00  0.00    +0.050 C 
ATOM     27  S   UNL     1       4.031   0.766   7.606  0.00  0.00    -0.164 S 
ATOM     28  C   UNL     1       2.597   1.344   6.645  0.00  0.00    +0.050 C 
ATOM     29  C   UNL     1       1.525   0.248   6.675  0.00  0.00    -0.067 C 
ATOM     30  H   UNL     1       2.494  -0.721   5.174  0.00  0.00    -0.081 HD
ENDBRANCH  19  24
ENDBRANCH  18  19
ENDBRANCH   4  18
TORSDOF 5
