REMARK  Name = ZINC35300866
REMARK  12 active torsions:
REMARK  status: ('A' for Active; 'I' for Inactive)
REMARK    1  A    between atoms: C_1  and  C_2
REMARK    2  A    between atoms: C_2  and  C_3
REMARK    3  A    between atoms: C_3  and  C_5
REMARK    4  A    between atoms: C_3  and  C_6
REMARK    5  A    between atoms: C_6  and  C_8
REMARK    6  A    between atoms: C_6  and  N_25
REMARK    7  A    between atoms: C_14  and  C_16
REMARK    8  A    between atoms: C_19  and  N_22
REMARK    9  A    between atoms: N_22  and  C_23
REMARK   10  A    between atoms: N_22  and  C_24
REMARK   11  A    between atoms: N_28  and  C_29
REMARK   12  A    between atoms: C_29  and  C_30
REMARK                            x       y       z     vdW  Elec       q    Type
REMARK                         _______ _______ _______ _____ _____    ______ ____
ROOT
ATOM      1  C   UNL     1       2.559   1.283   1.271  0.00  0.00    +0.239 C 
ATOM      2  O   UNL     1       3.184   1.735   2.207  0.00  0.00    -0.273 OA
ATOM      3  N   UNL     1       2.050   2.111   0.338  0.00  0.00    -0.262 N 
ATOM      4  C   UNL     1       2.332   3.471   0.388  0.00  0.00    +0.188 A 
ATOM      5  N   UNL     1       3.071   4.157   1.249  0.00  0.00    -0.125 NA
ATOM      6  N   UNL     1       3.225   5.405   1.150  0.00  0.00    -0.140 NA
ATOM      7  C   UNL     1       2.657   6.106   0.176  0.00  0.00    +0.134 A 
ATOM      8  S   UNL     1       1.806   4.795  -0.697  0.00  0.00    -0.030 S 
ATOM      9  H   UNL     1       1.488   1.758  -0.369  0.00  0.00    +0.157 HD
ENDROOT
BRANCH   7  10
ATOM     10  C   UNL     1       2.715   7.555  -0.109  0.00  0.00    +0.009 A 
ATOM     11  C   UNL     1       2.023   8.082  -1.201  0.00  0.00    +0.012 A 
ATOM     12  C   UNL     1       2.079   9.433  -1.464  0.00  0.00    +0.024 A 
ATOM     13  C   UNL     1       2.824  10.272  -0.644  0.00  0.00    +0.029 A 
ATOM     14  C   UNL     1       3.515   9.751   0.445  0.00  0.00    +0.024 A 
ATOM     15  C   UNL     1       3.458   8.402   0.717  0.00  0.00    +0.012 A 
BRANCH  13  16
ATOM     16  N   UNL     1       2.879  11.640  -0.913  0.00  0.00    -0.336 N 
ATOM     17  C   UNL     1       2.152  12.191  -2.060  0.00  0.00    +0.129 C 
ATOM     18  C   UNL     1       3.664  12.526  -0.050  0.00  0.00    +0.129 C 
ENDBRANCH  13  16
ENDBRANCH   7  10
BRANCH   1  19
ATOM     19  C   UNL     1       2.350  -0.205   1.153  0.00  0.00    +0.163 C 
BRANCH  19  20
ATOM     20  N   UNL     1       3.325  -0.903   1.995  0.00  0.00    -0.288 N 
ATOM     21  C   UNL     1       3.686  -2.168   1.700  0.00  0.00    +0.300 C 
ATOM     22  O   UNL     1       3.202  -2.730   0.737  0.00  0.00    -0.253 OA
ATOM     23  N   UNL     1       4.583  -2.810   2.475  0.00  0.00    -0.300 N 
ATOM     24  H   UNL     1       3.711  -0.455   2.764  0.00  0.00    +0.151 HD
ATOM     25  H   UNL     1       4.968  -2.362   3.244  0.00  0.00    +0.150 HD
BRANCH  23  26
ATOM     26  C   UNL     1       4.975  -4.185   2.155  0.00  0.00    +0.102 C 
ATOM     27  C   UNL     1       5.997  -4.676   3.183  0.00  0.00    +0.024 C 
ENDBRANCH  23  26
ENDBRANCH  19  20
BRANCH  19  28
ATOM     28  C   UNL     1       0.934  -0.560   1.611  0.00  0.00    +0.015 C 
ATOM     29  C   UNL     1       0.802  -0.294   3.112  0.00  0.00    +0.010 C 
BRANCH  28  31
ATOM     30  C   UNL     1       0.650  -2.276  -0.182  0.00  0.00    +0.004 C 
ATOM     31  C   UNL     1       0.663  -2.039   1.329  0.00  0.00    +0.002 C 
ENDBRANCH  28  31
ENDBRANCH  19  28
ENDBRANCH   1  19
TORSDOF 7
