REMARK  Name = ZINC25446950
REMARK  12 active torsions:
REMARK  status: ('A' for Active; 'I' for Inactive)
REMARK    1  A    between atoms: C_1  and  C_2
REMARK    2  A    between atoms: C_2  and  C_3
REMARK    3  A    between atoms: C_3  and  C_4
REMARK    4  A    between atoms: C_4  and  C_5
REMARK    5  A    between atoms: C_5  and  C_31
REMARK    6  A    between atoms: N_8  and  C_12
REMARK    7  A    between atoms: C_12  and  C_13
REMARK    8  A    between atoms: N_15  and  C_16
REMARK    9  A    between atoms: C_17  and  C_27
REMARK   10  A    between atoms: C_22  and  C_26
REMARK   11  A    between atoms: C_27  and  O_29
REMARK   12  A    between atoms: O_29  and  C_30
REMARK                            x       y       z     vdW  Elec       q    Type
REMARK                         _______ _______ _______ _____ _____    ______ ____
ROOT
ATOM      1  C   UNL     1      -2.560  -5.562  -0.874  0.00  0.00    +0.214 C 
ENDROOT
BRANCH   1   5
ATOM      2  C   UNL     1      -0.837  -8.849  -1.021  0.00  0.00    +0.138 C 
ATOM      3  C   UNL     1      -1.295  -7.553  -1.660  0.00  0.00    +0.251 C 
ATOM      4  O   UNL     1      -1.112  -7.195  -2.804  0.00  0.00    -0.272 OA
ATOM      5  N   UNL     1      -1.947  -6.880  -0.691  0.00  0.00    -0.215 N 
ATOM      6  C   UNL     1      -1.970  -7.567   0.457  0.00  0.00    +0.310 C 
ATOM      7  O   UNL     1      -2.505  -7.167   1.473  0.00  0.00    -0.252 OA
ATOM      8  N   UNL     1      -1.337  -8.750   0.361  0.00  0.00    -0.281 N 
ATOM      9  H   UNL     1      -1.151  -9.568   1.073  0.00  0.00    +0.152 HD
BRANCH   2  10
ATOM     10  C   UNL     1       0.667  -8.949  -1.035  0.00  0.00    -0.015 A 
ATOM     11  C   UNL     1       1.305  -9.632  -2.053  0.00  0.00    +0.006 A 
ATOM     12  C   UNL     1       2.685  -9.720  -2.069  0.00  0.00    +0.000 A 
ATOM     13  C   UNL     1       3.426  -9.133  -1.060  0.00  0.00    +0.000 A 
ATOM     14  C   UNL     1       2.787  -8.453  -0.039  0.00  0.00    +0.000 A 
ATOM     15  C   UNL     1       1.408  -8.361  -0.027  0.00  0.00    +0.006 A 
ENDBRANCH   2  10
BRANCH   2  16
ATOM     16  C   UNL     1      -1.461 -10.050  -1.735  0.00  0.00    +0.040 C 
BRANCH  16  17
ATOM     17  C   UNL     1      -2.983  -9.898  -1.753  0.00  0.00    +0.003 C 
BRANCH  17  19
ATOM     18  C   UNL     1      -5.129 -10.946  -2.485  0.00  0.00    +0.004 C 
ATOM     19  C   UNL     1      -3.607 -11.098  -2.467  0.00  0.00    -0.003 C 
ENDBRANCH  17  19
ENDBRANCH  16  17
ENDBRANCH   2  16
ENDBRANCH   1   5
BRANCH   1  20
ATOM     20  C   UNL     1      -1.555  -4.490  -0.541  0.00  0.00    +0.236 C 
ATOM     21  O   UNL     1      -0.436  -4.797  -0.186  0.00  0.00    -0.274 OA
ATOM     22  N   UNL     1      -1.898  -3.190  -0.638  0.00  0.00    -0.278 N 
ATOM     23  H   UNL     1      -2.913  -2.912  -0.960  0.00  0.00    +0.155 HD
BRANCH  22  24
ATOM     24  C   UNL     1      -0.974  -2.204  -0.332  0.00  0.00    +0.086 A 
ATOM     25  C   UNL     1      -1.137  -0.826  -0.371  0.00  0.00    +0.091 A 
ATOM     26  C   UNL     1       0.002  -0.004   0.002  0.00  0.00    -0.021 A 
ATOM     27  C   UNL     1       1.114  -0.686   0.352  0.00  0.00    -0.004 A 
ATOM     28  S   UNL     1       0.667  -2.392   0.192  0.00  0.00    -0.077 S 
ATOM     29  C   UNL     1       2.429  -0.112   0.781  0.00  0.00    +0.046 C 
ATOM     30  C   UNL     1       2.220   1.369   1.127  0.00  0.00    -0.009 C 
ATOM     31  C   UNL     1       1.423   2.031  -0.001  0.00  0.00    +0.008 C 
ATOM     32  C   UNL     1      -0.019   1.520   0.010  0.00  0.00    +0.037 C 
ATOM     33  C   UNL     1       3.578   2.058   1.272  0.00  0.00    +0.008 C 
BRANCH  25  34
ATOM     34  C   UNL     1      -2.410  -0.223  -0.772  0.00  0.00    +0.342 C 
ATOM     35  O   UNL     1      -2.617   0.038  -1.942  0.00  0.00    -0.245 OA
BRANCH  34  36
ATOM     36  O   UNL     1      -3.352   0.044   0.155  0.00  0.00    -0.464 OA
ATOM     37  C   UNL     1      -4.589   0.641  -0.315  0.00  0.00    +0.280 C 
ENDBRANCH  34  36
ENDBRANCH  25  34
ENDBRANCH  22  24
ENDBRANCH   1  20
TORSDOF 9
