REMARK  Name = ZINC34750152
REMARK  9 active torsions:
REMARK  status: ('A' for Active; 'I' for Inactive)
REMARK    1  A    between atoms: C_1  and  C_2
REMARK    2  A    between atoms: C_2  and  C_3
REMARK    3  A    between atoms: C_3  and  C_4
REMARK    4  A    between atoms: C_4  and  N_5
REMARK    5  A    between atoms: C_18  and  S_20
REMARK    6  A    between atoms: S_20  and  C_21
REMARK    7  A    between atoms: C_21  and  C_22
REMARK    8  A    between atoms: C_27  and  C_29
REMARK    9  A    between atoms: C_27  and  C_30
REMARK                            x       y       z     vdW  Elec       q    Type
REMARK                         _______ _______ _______ _____ _____    ______ ____
ROOT
ATOM      1  N   UNL     1      -3.824  -1.689  -0.004  0.00  0.00    +0.382 N 
ATOM      2  C   UNL     1      -5.268  -1.901  -0.160  0.00  0.00    -0.060 C 
ATOM      3  C   UNL     1      -5.557  -3.404  -0.243  0.00  0.00    +0.088 C 
ATOM      4  N   UNL     1      -4.971  -4.058   0.937  0.00  0.00    -0.318 N 
ATOM      5  C   UNL     1      -3.565  -3.770   1.263  0.00  0.00    +0.088 C 
ATOM      6  C   UNL     1      -3.371  -2.250   1.275  0.00  0.00    -0.060 C 
ATOM      7  C   UNL     1      -5.720  -4.918   1.719  0.00  0.00    +0.134 A 
ATOM      8  C   UNL     1      -5.849  -6.289   1.360  0.00  0.00    +0.051 A 
ATOM      9  C   UNL     1      -5.279  -6.993   0.212  0.00  0.00    -0.020 A 
ATOM     10  C   UNL     1      -5.557  -8.310   0.100  0.00  0.00    +0.021 A 
ATOM     11  S   UNL     1      -6.579  -8.687   1.495  0.00  0.00    -0.071 S 
ATOM     12  C   UNL     1      -6.634  -7.073   2.229  0.00  0.00    +0.115 A 
ATOM     13  N   UNL     1      -7.206  -6.556   3.300  0.00  0.00    -0.214 NA
ATOM     14  C   UNL     1      -7.052  -5.270   3.585  0.00  0.00    +0.191 A 
ATOM     15  N   UNL     1      -6.320  -4.476   2.812  0.00  0.00    -0.206 NA
ATOM     16  C   UNL     1      -5.085  -9.225  -0.988  0.00  0.00    +0.203 C 
ATOM     17  O   UNL     1      -4.561  -8.414  -2.051  0.00  0.00    -0.368 OA
ATOM     18  C   UNL     1      -3.649  -7.407  -1.604  0.00  0.00    +0.068 C 
ATOM     19  C   UNL     1      -4.403  -6.316  -0.838  0.00  0.00    +0.071 C 
ATOM     20  C   UNL     1      -2.604  -8.043  -0.684  0.00  0.00    +0.041 C 
ATOM     21  C   UNL     1      -2.946  -6.786  -2.812  0.00  0.00    +0.041 C 
ATOM     22  H   UNL     1      -3.336  -2.144  -0.761  0.00  0.00    -0.082 HD
ENDROOT
BRANCH   1  23
ATOM     23  C   UNL     1      -3.536  -0.249  -0.035  0.00  0.00    -0.079 C 
BRANCH  23  24
ATOM     24  C   UNL     1      -3.893   0.313  -1.412  0.00  0.00    -0.019 C 
BRANCH  24  26
ATOM     25  C   UNL     1      -3.949   2.375  -2.822  0.00  0.00    +0.004 C 
ATOM     26  C   UNL     1      -3.593   1.813  -1.444  0.00  0.00    -0.005 C 
ENDBRANCH  24  26
ENDBRANCH  23  24
ENDBRANCH   1  23
BRANCH  14  27
ATOM     27  S   UNL     1      -7.827  -4.604   5.020  0.00  0.00    -0.077 S 
BRANCH  27  28
ATOM     28  C   UNL     1      -8.690  -6.022   5.751  0.00  0.00    +0.172 C 
BRANCH  28  29
ATOM     29  C   UNL     1      -9.404  -5.584   7.004  0.00  0.00    +0.221 C 
ATOM     30  O   UNL     1      -9.337  -4.429   7.368  0.00  0.00    -0.275 OA
ATOM     31  N   UNL     1     -10.117  -6.476   7.720  0.00  0.00    -0.329 N 
ATOM     32  H   UNL     1     -10.171  -7.400   7.429  0.00  0.00    +0.145 HD
ATOM     33  H   UNL     1     -10.577  -6.194   8.526  0.00  0.00    +0.145 HD
ENDBRANCH  28  29
ENDBRANCH  27  28
ENDBRANCH  14  27
TORSDOF 6
