REMARK  Name = ZINC20752631
REMARK  3 active torsions:
REMARK  status: ('A' for Active; 'I' for Inactive)
REMARK    1  A    between atoms: C_3  and  C_6
REMARK    2  A    between atoms: C_16  and  N_23
REMARK    3  A    between atoms: C_19  and  O_22
REMARK                            x       y       z     vdW  Elec       q    Type
REMARK                         _______ _______ _______ _____ _____    ______ ____
ROOT
ATOM      1  C   UNL     1       2.070   4.032  -0.058  0.00  0.00    +0.112 C 
ATOM      2  C   UNL     1       2.219   4.648   1.317  0.00  0.00    +0.029 C 
ATOM      3  C   UNL     1       2.366   3.703   2.515  0.00  0.00    +0.033 C 
ATOM      4  C   UNL     1       1.743   4.535   3.638  0.00  0.00    -0.030 C 
ATOM      5  C   UNL     1       0.864   5.393   3.131  0.00  0.00    -0.023 C 
ATOM      6  C   UNL     1       0.797   5.187   1.664  0.00  0.00    +0.051 C 
ATOM      7  C   UNL     1       0.515   6.286   0.715  0.00  0.00    +0.014 A 
ATOM      8  C   UNL     1      -0.262   7.371   1.071  0.00  0.00    +0.132 A 
ATOM      9  C   UNL     1      -0.542   8.366   0.155  0.00  0.00    +0.037 A 
ATOM     10  C   UNL     1      -0.038   8.276  -1.130  0.00  0.00    +0.049 A 
ATOM     11  C   UNL     1       0.747   7.199  -1.494  0.00  0.00    +0.138 A 
ATOM     12  C   UNL     1       1.043   6.186  -0.573  0.00  0.00    +0.076 A 
ATOM     13  N   UNL     1       1.856   5.138  -1.006  0.00  0.00    -0.333 N 
ATOM     14  H   UNL     1       2.328   5.110  -1.999  0.00  0.00    +0.147 HD
ENDROOT
BRANCH   1  17
ATOM     15  C   UNL     1      -0.372   1.111   0.080  0.00  0.00    +0.008 A 
ATOM     16  C   UNL     1       0.842   1.767   0.153  0.00  0.00    +0.013 A 
ATOM     17  C   UNL     1       0.884   3.102  -0.079  0.00  0.00    +0.010 A 
ATOM     18  S   UNL     1      -0.830   3.472  -0.414  0.00  0.00    -0.100 S 
ATOM     19  C   UNL     1      -1.485   1.822  -0.228  0.00  0.00    +0.045 A 
ENDBRANCH   1  17
BRANCH   8  20
ATOM     20  N   UNL     1      -0.800   7.468   2.446  0.00  0.00    +0.057 N 
ATOM     21  O   UNL     1      -1.411   6.531   2.929  0.00  0.00    -0.126 OA
ATOM     22  O   UNL     1      -0.631   8.484   3.096  0.00  0.00    -0.126 OA
ENDBRANCH   8  20
BRANCH  11  23
ATOM     23  O   UNL     1       1.238   7.122  -2.760  0.00  0.00    -0.505 OA
ATOM     24  H   UNL     1       1.863   6.267  -3.055  0.00  0.00    +0.292 HD
ENDBRANCH  11  23
TORSDOF 3
