REMARK  Name = ZINC46865945
REMARK  12 active torsions:
REMARK  status: ('A' for Active; 'I' for Inactive)
REMARK    1  A    between atoms: C_1  and  C_2
REMARK    2  A    between atoms: C_5  and  C_8
REMARK    3  A    between atoms: C_10  and  C_13
REMARK    4  A    between atoms: C_13  and  C_15
REMARK    5  A    between atoms: C_13  and  N_16
REMARK    6  A    between atoms: N_19  and  C_22
REMARK    7  A    between atoms: C_22  and  C_24
REMARK    8  A    between atoms: C_22  and  C_25
REMARK    9  A    between atoms: N_27  and  C_28
REMARK   10  A    between atoms: C_28  and  C_29
REMARK   11  A    between atoms: C_28  and  C_30
REMARK   12  A    between atoms: C_28  and  C_31
REMARK                            x       y       z     vdW  Elec       q    Type
REMARK                         _______ _______ _______ _____ _____    ______ ____
ROOT
ATOM      1  N   UNL     1      -1.087  -8.821  -0.853  0.00  0.00    -0.295 NA
ATOM      2  C   UNL     1      -2.462  -8.305  -0.912  0.00  0.00    +0.066 C 
ATOM      3  C   UNL     1      -3.444  -9.451  -0.656  0.00  0.00    -0.062 C 
ATOM      4  N   UNL     1      -3.179 -10.038   0.663  0.00  0.00    +0.389 N 
ATOM      5  C   UNL     1      -1.811 -10.570   0.699  0.00  0.00    -0.062 C 
ATOM      6  C   UNL     1      -0.815  -9.434   0.455  0.00  0.00    +0.066 C 
ATOM      7  H   UNL     1      -3.283  -9.329   1.374  0.00  0.00    -0.081 HD
ENDROOT
BRANCH   1   8
ATOM      8  C   UNL     1      -0.114  -7.761  -1.149  0.00  0.00    +0.143 C 
ATOM      9  C   UNL     1       1.296  -8.354  -1.169  0.00  0.00    +0.034 C 
BRANCH   8  12
ATOM     10  C   UNL     1      -0.760  -5.698  -4.065  0.00  0.00    +0.202 A 
ATOM     11  N   UNL     1      -0.448  -5.883  -2.770  0.00  0.00    -0.190 NA
ATOM     12  C   UNL     1      -0.424  -7.156  -2.494  0.00  0.00    +0.245 A 
ATOM     13  O   UNL     1      -0.721  -7.837  -3.609  0.00  0.00    -0.336 OA
ATOM     14  N   UNL     1      -0.942  -6.869  -4.623  0.00  0.00    -0.056 NA
BRANCH  10  19
ATOM     15  C   UNL     1      -1.238  -0.604  -6.710  0.00  0.00    +0.044 C 
ATOM     16  C   UNL     1      -1.113  -1.937  -6.018  0.00  0.00    -0.050 A 
ATOM     17  C   UNL     1      -1.332  -3.104  -6.726  0.00  0.00    +0.004 A 
ATOM     18  C   UNL     1      -1.218  -4.328  -6.098  0.00  0.00    +0.012 A 
ATOM     19  C   UNL     1      -0.883  -4.385  -4.747  0.00  0.00    +0.022 A 
ATOM     20  C   UNL     1      -0.663  -3.206  -4.038  0.00  0.00    +0.012 A 
ATOM     21  C   UNL     1      -0.774  -1.988  -4.678  0.00  0.00    +0.004 A 
ENDBRANCH  10  19
ENDBRANCH   8  12
ENDBRANCH   1   8
BRANCH   4  22
ATOM     22  C   UNL     1      -4.134 -11.126   0.916  0.00  0.00    +0.016 C 
ATOM     23  C   UNL     1      -3.819 -11.779   2.263  0.00  0.00    -0.004 C 
BRANCH  22  24
ATOM     24  C   UNL     1      -5.534 -10.569   0.943  0.00  0.00    +0.200 C 
ATOM     25  O   UNL     1      -5.721  -9.414   1.262  0.00  0.00    -0.278 OA
ATOM     26  N   UNL     1      -6.578 -11.355   0.612  0.00  0.00    -0.312 N 
ATOM     27  H   UNL     1      -6.429 -12.278   0.357  0.00  0.00    +0.149 HD
BRANCH  26  28
ATOM     28  C   UNL     1      -7.939 -10.813   0.639  0.00  0.00    +0.026 C 
ATOM     29  C   UNL     1      -8.039  -9.637  -0.335  0.00  0.00    +0.031 C 
ATOM     30  C   UNL     1      -8.930 -11.903   0.225  0.00  0.00    +0.031 C 
ATOM     31  C   UNL     1      -8.271 -10.334   2.053  0.00  0.00    +0.031 C 
ENDBRANCH  26  28
ENDBRANCH  22  24
ENDBRANCH   4  22
TORSDOF 6
