REMARK  Name = ZINC09114231
REMARK  7 active torsions:
REMARK  status: ('A' for Active; 'I' for Inactive)
REMARK    1  A    between atoms: C_1  and  C_2
REMARK    2  A    between atoms: C_2  and  C_3
REMARK    3  A    between atoms: C_2  and  N_4
REMARK    4  A    between atoms: C_8  and  C_10
REMARK    5  A    between atoms: C_10  and  S_11
REMARK    6  A    between atoms: S_11  and  C_12
REMARK    7  A    between atoms: N_24  and  C_25
REMARK                            x       y       z     vdW  Elec       q    Type
REMARK                         _______ _______ _______ _____ _____    ______ ____
ROOT
ATOM      1  C   UNL     1      -0.396   1.532  -5.274  0.00  0.00    +0.178 A 
ATOM      2  N   UNL     1      -1.530   1.804  -4.662  0.00  0.00    -0.215 NA
ATOM      3  C   UNL     1      -1.536   2.258  -3.413  0.00  0.00    +0.117 A 
ATOM      4  C   UNL     1      -0.353   2.471  -2.691  0.00  0.00    +0.076 A 
ATOM      5  C   UNL     1      -0.517   2.978  -1.319  0.00  0.00    -0.023 A 
ATOM      6  C   UNL     1      -1.773   3.186  -0.894  0.00  0.00    -0.004 A 
ATOM      7  S   UNL     1      -2.805   2.729  -2.268  0.00  0.00    -0.073 S 
ATOM      8  C   UNL     1      -1.818   3.707   0.518  0.00  0.00    +0.043 C 
ATOM      9  C   UNL     1      -0.382   4.214   0.790  0.00  0.00    +0.010 C 
ATOM     10  C   UNL     1       0.442   3.349  -0.184  0.00  0.00    +0.037 C 
ATOM     11  C   UNL     1       0.865   2.171  -3.378  0.00  0.00    +0.268 A 
ATOM     12  O   UNL     1       1.941   2.327  -2.828  0.00  0.00    -0.267 OA
ATOM     13  N   UNL     1       0.804   1.713  -4.643  0.00  0.00    -0.255 N 
ENDROOT
BRANCH  13  14
ATOM     14  C   UNL     1       1.991   1.416  -5.325  0.00  0.00    +0.052 A 
ATOM     15  C   UNL     1       2.536   0.141  -5.251  0.00  0.00    +0.026 A 
ATOM     16  C   UNL     1       3.704  -0.149  -5.929  0.00  0.00    +0.002 A 
ATOM     17  C   UNL     1       4.336   0.831  -6.672  0.00  0.00    +0.000 A 
ATOM     18  C   UNL     1       3.798   2.103  -6.744  0.00  0.00    +0.002 A 
ATOM     19  C   UNL     1       2.628   2.398  -6.072  0.00  0.00    +0.026 A 
ENDBRANCH  13  14
BRANCH   1  20
ATOM     20  S   UNL     1      -0.424   0.930  -6.929  0.00  0.00    -0.078 S 
BRANCH  20  21
ATOM     21  C   UNL     1      -2.210   0.897  -7.221  0.00  0.00    +0.173 C 
BRANCH  21  26
ATOM     22  N   UNL     1      -5.263  -0.263 -10.749  0.00  0.00    -0.297 N 
ATOM     23  C   UNL     1      -3.994  -0.154 -10.308  0.00  0.00    +0.306 C 
ATOM     24  O   UNL     1      -3.069  -0.458 -11.036  0.00  0.00    -0.252 OA
ATOM     25  N   UNL     1      -3.751   0.291  -9.059  0.00  0.00    -0.239 N 
ATOM     26  C   UNL     1      -2.482   0.400  -8.617  0.00  0.00    +0.231 C 
ATOM     27  O   UNL     1      -1.559   0.097  -9.343  0.00  0.00    -0.274 OA
ATOM     28  H   UNL     1      -6.001  -0.021 -10.169  0.00  0.00    +0.151 HD
ATOM     29  H   UNL     1      -4.489   0.533  -8.478  0.00  0.00    +0.159 HD
BRANCH  22  31
ATOM     30  C   UNL     1      -5.551  -2.277 -12.107  0.00  0.00    +0.027 C 
ATOM     31  C   UNL     1      -5.527  -0.747 -12.107  0.00  0.00    +0.068 C 
ATOM     32  C   UNL     1      -6.880  -0.215 -12.583  0.00  0.00    +0.027 C 
ENDBRANCH  22  31
ENDBRANCH  21  26
ENDBRANCH  20  21
ENDBRANCH   1  20
TORSDOF 5
