REMARK  Name = ZINC63654958
REMARK  6 active torsions:
REMARK  status: ('A' for Active; 'I' for Inactive)
REMARK    1  A    between atoms: C_6  and  C_27
REMARK    2  A    between atoms: C_8  and  S_11
REMARK    3  A    between atoms: S_11  and  C_12
REMARK    4  A    between atoms: C_12  and  C_13
REMARK    5  A    between atoms: C_13  and  N_14
REMARK    6  A    between atoms: C_15  and  C_17
REMARK                            x       y       z     vdW  Elec       q    Type
REMARK                         _______ _______ _______ _____ _____    ______ ____
ROOT
ATOM      1  C   UNL     1      -0.011   1.354   0.046  0.00  0.00    +0.001 A 
ATOM      2  C   UNL     1       1.169   2.099   0.057  0.00  0.00    +0.002 A 
ATOM      3  C   UNL     1       2.389   1.507   0.048  0.00  0.00    +0.026 A 
ATOM      4  C   UNL     1       2.487   0.093   0.028  0.00  0.00    +0.044 A 
ATOM      5  N   UNL     1       3.535  -0.710   0.016  0.00  0.00    -0.373 N 
ATOM      6  C   UNL     1       3.075  -2.102  -0.004  0.00  0.00    +0.147 C 
ATOM      7  C   UNL     1       1.563  -2.042  -0.003  0.00  0.00    +0.021 C 
ATOM      8  C   UNL     1       1.241  -0.689   0.017  0.00  0.00    +0.010 A 
ATOM      9  C   UNL     1       0.006  -0.004   0.027  0.00  0.00    +0.011 A 
ATOM     10  H   UNL     1       4.462  -0.425   0.020  0.00  0.00    +0.161 HD
ENDROOT
BRANCH   6  11
ATOM     11  C   UNL     1       3.567  -2.794  -1.249  0.00  0.00    -0.020 A 
ATOM     12  C   UNL     1       3.605  -2.110  -2.450  0.00  0.00    +0.007 A 
ATOM     13  C   UNL     1       4.056  -2.743  -3.593  0.00  0.00    +0.020 A 
ATOM     14  C   UNL     1       4.470  -4.062  -3.534  0.00  0.00    +0.041 A 
ATOM     15  C   UNL     1       4.432  -4.746  -2.332  0.00  0.00    +0.020 A 
ATOM     16  C   UNL     1       3.986  -4.110  -1.189  0.00  0.00    +0.007 A 
ATOM     17 CL   UNL     1       5.037  -4.859  -4.969  0.00  0.00    -0.084 Cl
ENDBRANCH   6  11
BRANCH   7  18
ATOM     18  S   UNL     1       0.509  -3.324  -0.022  0.00  0.00    -0.125 S 
BRANCH  18  19
ATOM     19  C   UNL     1      -1.123  -2.552   0.152  0.00  0.00    +0.093 C 
BRANCH  19  20
ATOM     20  C   UNL     1      -2.190  -3.640   0.294  0.00  0.00    +0.115 C 
BRANCH  20  21
ATOM     21  N   UNL     1      -3.508  -3.016   0.434  0.00  0.00    -0.314 N 
ATOM     22  C   UNL     1      -4.606  -3.785   0.574  0.00  0.00    +0.219 C 
ATOM     23  O   UNL     1      -4.502  -4.994   0.584  0.00  0.00    -0.275 OA
ATOM     24  H   UNL     1      -3.591  -2.050   0.427  0.00  0.00    +0.149 HD
BRANCH  22  25
ATOM     25  C   UNL     1      -5.962  -3.144   0.719  0.00  0.00    +0.048 C 
ATOM     26  C   UNL     1      -6.260  -2.297  -0.520  0.00  0.00    +0.019 C 
ATOM     27  C   UNL     1      -7.636  -1.645  -0.373  0.00  0.00    -0.009 C 
ATOM     28  C   UNL     1      -8.703  -2.733  -0.231  0.00  0.00    +0.007 C 
ATOM     29  C   UNL     1      -8.405  -3.581   1.007  0.00  0.00    -0.009 C 
ATOM     30  C   UNL     1      -7.028  -4.232   0.861  0.00  0.00    +0.019 C 
ATOM     31  C   UNL     1      -8.418  -2.689   2.251  0.00  0.00    +0.007 C 
ATOM     32  C   UNL     1      -7.351  -1.601   2.109  0.00  0.00    -0.009 C 
ATOM     33  C   UNL     1      -7.649  -0.754   0.870  0.00  0.00    +0.007 C 
ATOM     34  C   UNL     1      -5.974  -2.252   1.962  0.00  0.00    +0.019 C 
ENDBRANCH  22  25
ENDBRANCH  20  21
ENDBRANCH  19  20
ENDBRANCH  18  19
ENDBRANCH   7  18
TORSDOF 6
