REMARK  Name = ZINC39635806
REMARK  4 active torsions:
REMARK  status: ('A' for Active; 'I' for Inactive)
REMARK    1  A    between atoms: C_1  and  C_2
REMARK    2  A    between atoms: C_8  and  N_10
REMARK    3  A    between atoms: C_11  and  C_13
REMARK    4  A    between atoms: C_24  and  C_26
REMARK                            x       y       z     vdW  Elec       q    Type
REMARK                         _______ _______ _______ _____ _____    ______ ____
ROOT
ATOM      1  C   UNL     1       4.098   0.015   2.475  0.00  0.00    +0.100 C 
ATOM      2  C   UNL     1       5.188  -0.718   1.660  0.00  0.00    +0.121 C 
ATOM      3  N   UNL     1       6.421  -0.572   2.469  0.00  0.00    -0.296 N 
ATOM      4  C   UNL     1       5.965  -0.737   3.870  0.00  0.00    +0.115 C 
ATOM      5  C   UNL     1       4.612  -0.001   3.924  0.00  0.00    -0.004 C 
ATOM      6  C   UNL     1       3.637  -0.756   4.822  0.00  0.00    -0.010 C 
ATOM      7  C   UNL     1       4.139  -0.707   6.268  0.00  0.00    -0.082 C 
ATOM      8  N   UNL     1       4.253   0.691   6.702  0.00  0.00    +0.379 N 
ATOM      9  C   UNL     1       5.261   1.386   5.893  0.00  0.00    -0.082 C 
ATOM     10  C   UNL     1       4.806   1.425   4.431  0.00  0.00    -0.010 C 
ATOM     11  C   UNL     1       7.675  -0.341   2.029  0.00  0.00    +0.247 C 
ATOM     12  O   UNL     1       7.874  -0.119   0.851  0.00  0.00    -0.270 OA
ATOM     13  H   UNL     1       3.361   1.149   6.592  0.00  0.00    -0.086 HD
ATOM     14  H   UNL     1       4.525   0.719   7.673  0.00  0.00    -0.086 HD
ENDROOT
BRANCH  11  15
ATOM     15  C   UNL     1       8.806  -0.359   2.981  0.00  0.00    +0.040 A 
ATOM     16  C   UNL     1       8.687  -1.031   4.198  0.00  0.00    +0.033 A 
ATOM     17  C   UNL     1       9.748  -1.044   5.083  0.00  0.00    +0.043 A 
ATOM     18  C   UNL     1      10.927  -0.393   4.763  0.00  0.00    +0.040 A 
ATOM     19  C   UNL     1      11.051   0.276   3.557  0.00  0.00    +0.043 A 
ATOM     20  C   UNL     1       9.999   0.291   2.662  0.00  0.00    +0.033 A 
ATOM     21 CL   UNL     1      12.533   1.091   3.166  0.00  0.00    -0.083 Cl
ATOM     22 CL   UNL     1       9.602  -1.878   6.598  0.00  0.00    -0.083 Cl
ENDBRANCH  11  15
BRANCH   1  24
ATOM     23  N   UNL     1       1.625  -0.042   2.471  0.00  0.00    -0.312 N 
ATOM     24  C   UNL     1       2.786  -0.720   2.375  0.00  0.00    +0.218 C 
ATOM     25  O   UNL     1       2.775  -1.921   2.208  0.00  0.00    -0.275 OA
ATOM     26  H   UNL     1       1.635   0.919   2.605  0.00  0.00    +0.149 HD
BRANCH  23  33
ATOM     27  C   UNL     1      -0.351   0.199   4.575  0.00  0.00    +0.009 C 
ATOM     28  C   UNL     1      -0.736   0.039   3.103  0.00  0.00    +0.006 C 
ATOM     29  C   UNL     1      -0.875   1.421   2.459  0.00  0.00    +0.005 C 
ATOM     30  C   UNL     1      -1.260   1.261   0.987  0.00  0.00    +0.000 C 
ATOM     31  C   UNL     1      -0.174   0.466   0.259  0.00  0.00    +0.002 C 
ATOM     32  C   UNL     1      -0.035  -0.915   0.902  0.00  0.00    +0.022 C 
ATOM     33  C   UNL     1       0.350  -0.756   2.375  0.00  0.00    +0.076 C 
ENDBRANCH  23  33
ENDBRANCH   1  24
TORSDOF 3
