REMARK  Name = ZINC48870796
REMARK  1 active torsions:
REMARK  status: ('A' for Active; 'I' for Inactive)
REMARK    1  A    between atoms: C_13  and  C_15
REMARK                            x       y       z     vdW  Elec       q    Type
REMARK                         _______ _______ _______ _____ _____    ______ ____
ROOT
ATOM      1  C   UNL     1      -0.298   1.332  -0.144  0.00  0.00    +0.120 A 
ATOM      2  C   UNL     1       0.872   2.015  -0.171  0.00  0.00    +0.068 A 
ATOM      3  S   UNL     1       2.044   0.668  -0.161  0.00  0.00    -0.060 S 
ATOM      4  C   UNL     1       0.939  -0.602  -0.125  0.00  0.00    +0.165 A 
ATOM      5  N   UNL     1      -0.224   0.013  -0.121  0.00  0.00    -0.233 NA
ATOM      6  N   UNL     1       1.194  -1.968  -0.103  0.00  0.00    -0.248 N 
ATOM      7  C   UNL     1       0.170  -2.844  -0.075  0.00  0.00    +0.308 C 
ATOM      8  O   UNL     1      -0.977  -2.439  -0.068  0.00  0.00    -0.252 OA
ATOM      9  N   UNL     1       0.416  -4.169  -0.054  0.00  0.00    -0.282 N 
ATOM     10  C   UNL     1       1.746  -4.797  -0.160  0.00  0.00    +0.110 C 
ATOM     11  C   UNL     1       1.470  -6.222  -0.701  0.00  0.00    +0.021 C 
ATOM     12  C   UNL     1       0.146  -6.579   0.025  0.00  0.00    +0.024 C 
ATOM     13  C   UNL     1      -0.595  -5.227   0.083  0.00  0.00    +0.081 C 
ATOM     14  H   UNL     1       2.108  -2.291  -0.109  0.00  0.00    +0.158 HD
ENDROOT
BRANCH  13  15
ATOM     15  C   UNL     1      -1.319  -5.083   1.424  0.00  0.00    +0.010 C 
ATOM     16  C   UNL     1      -0.299  -5.147   2.563  0.00  0.00    +0.005 C 
ATOM     17  C   UNL     1      -1.023  -5.004   3.903  0.00  0.00    +0.000 C 
ATOM     18  C   UNL     1      -2.035  -6.141   4.061  0.00  0.00    +0.000 C 
ATOM     19  C   UNL     1      -3.054  -6.077   2.921  0.00  0.00    +0.000 C 
ATOM     20  C   UNL     1      -2.330  -6.220   1.581  0.00  0.00    +0.005 C 
ENDBRANCH  13  15
TORSDOF 1
