REMARK  Name = ZINC58381988
REMARK  9 active torsions:
REMARK  status: ('A' for Active; 'I' for Inactive)
REMARK    1  A    between atoms: C_1  and  C_2
REMARK    2  A    between atoms: C_4  and  N_20
REMARK    3  A    between atoms: C_6  and  C_7
REMARK    4  A    between atoms: N_9  and  N_10
REMARK    5  A    between atoms: C_11  and  C_13
REMARK    6  A    between atoms: C_21  and  C_23
REMARK    7  A    between atoms: C_23  and  C_24
REMARK    8  A    between atoms: C_23  and  C_25
REMARK    9  A    between atoms: C_23  and  C_26
REMARK                            x       y       z     vdW  Elec       q    Type
REMARK                         _______ _______ _______ _____ _____    ______ ____
ROOT
ATOM      1  C   UNL     1       0.030  -0.278   2.559  0.00  0.00    +0.267 C 
ATOM      2  O   UNL     1       0.015   0.917   2.797  0.00  0.00    -0.268 OA
ATOM      3  N   UNL     1       0.051  -1.167   3.572  0.00  0.00    -0.230 N 
ATOM      4  H   UNL     1       0.063  -2.118   3.382  0.00  0.00    +0.173 HD
ENDROOT
BRANCH   1  10
ATOM      5  C   UNL     1      -0.018   1.503   0.010  0.00  0.00    +0.045 C 
ATOM      6  C   UNL     1       0.002  -0.004   0.002  0.00  0.00    -0.029 A 
ATOM      7  C   UNL     1       0.007  -0.725  -1.164  0.00  0.00    +0.035 A 
ATOM      8  C   UNL     1       0.026  -2.098  -1.090  0.00  0.00    +0.073 A 
ATOM      9  S   UNL     1       0.038  -2.419   0.559  0.00  0.00    -0.069 S 
ATOM     10  C   UNL     1       0.023  -0.747   1.175  0.00  0.00    +0.080 A 
BRANCH   8  11
ATOM     11  N   UNL     1       0.034  -3.010  -2.139  0.00  0.00    -0.280 N 
ATOM     12  C   UNL     1       0.053  -4.333  -1.881  0.00  0.00    +0.223 C 
ATOM     13  O   UNL     1       0.065  -4.727  -0.734  0.00  0.00    -0.275 OA
ATOM     14  H   UNL     1       0.025  -2.695  -3.056  0.00  0.00    +0.155 HD
BRANCH  12  15
ATOM     15  C   UNL     1       0.061  -5.322  -3.018  0.00  0.00    +0.039 C 
ATOM     16  C   UNL     1       0.084  -6.745  -2.456  0.00  0.00    +0.020 C 
ATOM     17  C   UNL     1      -1.195  -5.130  -3.870  0.00  0.00    +0.020 C 
ATOM     18  C   UNL     1       1.303  -5.095  -3.882  0.00  0.00    +0.020 C 
ENDBRANCH  12  15
ENDBRANCH   8  11
ENDBRANCH   1  10
BRANCH   3  19
ATOM     19  N   UNL     1       0.057  -0.717   4.899  0.00  0.00    -0.230 N 
ATOM     20  C   UNL     1       0.079  -1.606   5.911  0.00  0.00    +0.262 C 
ATOM     21  O   UNL     1       0.094  -2.798   5.673  0.00  0.00    -0.269 OA
ATOM     22  H   UNL     1       0.046   0.234   5.088  0.00  0.00    +0.173 HD
BRANCH  20  23
ATOM     23  C   UNL     1       0.086  -1.132   7.311  0.00  0.00    +0.056 A 
ATOM     24  C   UNL     1       0.114  -2.046   8.372  0.00  0.00    +0.017 A 
ATOM     25  C   UNL     1       0.119  -1.551   9.663  0.00  0.00    +0.041 A 
ATOM     26  C   UNL     1       0.095  -0.180   9.864  0.00  0.00    +0.129 A 
ATOM     27  N   UNL     1       0.069   0.657   8.844  0.00  0.00    -0.243 NA
ATOM     28  C   UNL     1       0.069   0.234   7.597  0.00  0.00    +0.125 A 
ATOM     29 CL   UNL     1       0.101   0.446  11.483  0.00  0.00    -0.062 Cl
ENDBRANCH  20  23
ENDBRANCH   3  19
TORSDOF 5
