REMARK  Name = ZINC58893601
REMARK  6 active torsions:
REMARK  status: ('A' for Active; 'I' for Inactive)
REMARK    1  A    between atoms: C_5  and  C_7
REMARK    2  A    between atoms: C_7  and  C_9
REMARK    3  A    between atoms: C_7  and  O_27
REMARK    4  A    between atoms: C_9  and  N_10
REMARK    5  A    between atoms: N_13  and  C_14
REMARK    6  A    between atoms: C_16  and  N_21
REMARK                            x       y       z     vdW  Elec       q    Type
REMARK                         _______ _______ _______ _____ _____    ______ ____
ROOT
ATOM      1  N   UNL     1       1.539  -4.139   1.407  0.00  0.00    -0.296 N 
ATOM      2  C   UNL     1       1.684  -4.823   2.559  0.00  0.00    +0.304 C 
ATOM      3  O   UNL     1       1.705  -4.229   3.620  0.00  0.00    -0.253 OA
ATOM      4  N   UNL     1       1.807  -6.165   2.536  0.00  0.00    -0.268 N 
ATOM      5  H   UNL     1       1.522  -4.613   0.561  0.00  0.00    +0.150 HD
ATOM      6  H   UNL     1       1.727  -6.645   1.696  0.00  0.00    +0.156 HD
ENDROOT
BRANCH   4   7
ATOM      7  C   UNL     1       2.050  -6.867   3.723  0.00  0.00    +0.055 A 
ATOM      8  C   UNL     1       1.493  -6.428   4.915  0.00  0.00    +0.048 A 
ATOM      9  C   UNL     1       1.736  -7.126   6.089  0.00  0.00    +0.038 A 
ATOM     10  C   UNL     1       2.535  -8.262   6.068  0.00  0.00    +0.025 A 
ATOM     11  C   UNL     1       3.088  -8.697   4.880  0.00  0.00    +0.023 A 
ATOM     12  C   UNL     1       2.845  -8.007   3.707  0.00  0.00    +0.062 A 
ATOM     13 CL   UNL     1       3.536  -8.561   2.214  0.00  0.00    -0.082 Cl
BRANCH   9  14
ATOM     14  N   UNL     1       1.176  -6.686   7.294  0.00  0.00    -0.271 N 
ATOM     15  C   UNL     1       0.222  -5.577   7.408  0.00  0.00    +0.114 C 
ATOM     16  C   UNL     1      -0.434  -5.737   8.797  0.00  0.00    +0.029 C 
ATOM     17  C   UNL     1       0.658  -6.510   9.573  0.00  0.00    +0.098 C 
ATOM     18  C   UNL     1       1.439  -7.229   8.496  0.00  0.00    +0.220 C 
ATOM     19  O   UNL     1       2.194  -8.158   8.688  0.00  0.00    -0.275 OA
ENDBRANCH   9  14
ENDBRANCH   4   7
BRANCH   1  20
ATOM     20  C   UNL     1       1.405  -2.681   1.433  0.00  0.00    +0.142 C 
BRANCH  20  21
ATOM     21  C   UNL     1       1.254  -2.157   0.003  0.00  0.00    +0.164 C 
BRANCH  21  26
ATOM     22  C   UNL     1       0.024   1.412   0.056  0.00  0.00    +0.001 A 
ATOM     23  C   UNL     1       1.214   2.115   0.046  0.00  0.00    +0.003 A 
ATOM     24  C   UNL     1       2.418   1.438   0.023  0.00  0.00    +0.039 A 
ATOM     25  C   UNL     1       2.432   0.053   0.009  0.00  0.00    +0.129 A 
ATOM     26  C   UNL     1       1.240  -0.650   0.019  0.00  0.00    +0.018 A 
ATOM     27  C   UNL     1       0.037   0.029   0.042  0.00  0.00    +0.009 A 
ATOM     28  F   UNL     1       3.609  -0.610  -0.014  0.00  0.00    -0.205 F 
ENDBRANCH  21  26
BRANCH  21  29
ATOM     29  O   UNL     1       0.030  -2.639  -0.554  0.00  0.00    -0.386 OA
ATOM     30  H   UNL     1      -0.759  -2.366  -0.066  0.00  0.00    +0.210 HD
ENDBRANCH  21  29
ENDBRANCH  20  21
ENDBRANCH   1  20
TORSDOF 6
