REMARK  Name = ZINC22551522
REMARK  5 active torsions:
REMARK  status: ('A' for Active; 'I' for Inactive)
REMARK    1  A    between atoms: C_1  and  C_2
REMARK    2  A    between atoms: C_2  and  N_9
REMARK    3  A    between atoms: C_10  and  C_12
REMARK    4  A    between atoms: C_15  and  S_18
REMARK    5  A    between atoms: S_18  and  C_19
REMARK                            x       y       z     vdW  Elec       q    Type
REMARK                         _______ _______ _______ _____ _____    ______ ____
ROOT
ATOM      1  N   UNL     1      -1.378  -0.491   0.059  0.00  0.00    -0.304 N 
ATOM      2  C   UNL     1      -2.254  -0.148  -0.907  0.00  0.00    +0.245 C 
ATOM      3  O   UNL     1      -1.898   0.565  -1.825  0.00  0.00    -0.270 OA
ATOM      4  H   UNL     1      -1.662  -1.060   0.791  0.00  0.00    +0.150 HD
ENDROOT
BRANCH   1   6
ATOM      5  C   UNL     1      -0.019   1.526   0.010  0.00  0.00    +0.033 C 
ATOM      6  C   UNL     1       0.002  -0.004   0.002  0.00  0.00    +0.053 C 
ATOM      7  C   UNL     1       0.632  -0.478  -1.307  0.00  0.00    +0.049 C 
ATOM      8  C   UNL     1       2.169  -0.637  -1.140  0.00  0.00    +0.168 C 
ATOM      9  S   UNL     1       2.220  -1.358   0.560  0.00  0.00    -0.029 S 
ATOM     10  O   UNL     1       3.389  -0.902   1.226  0.00  0.00    -0.174 OA
ATOM     11  O   UNL     1       1.952  -2.752   0.484  0.00  0.00    -0.174 OA
ATOM     12  C   UNL     1       0.751  -0.495   1.257  0.00  0.00    +0.191 C 
ENDBRANCH   1   6
BRANCH   2  13
ATOM     13  C   UNL     1      -3.644  -0.639  -0.850  0.00  0.00    +0.037 A 
ATOM     14  C   UNL     1      -4.056  -1.455   0.208  0.00  0.00    +0.014 A 
ATOM     15  C   UNL     1      -5.348  -1.909   0.259  0.00  0.00    +0.016 A 
ATOM     16  C   UNL     1      -6.251  -1.559  -0.743  0.00  0.00    +0.016 A 
ATOM     17  C   UNL     1      -5.843  -0.746  -1.798  0.00  0.00    +0.016 A 
ATOM     18  C   UNL     1      -4.553  -0.284  -1.851  0.00  0.00    +0.014 A 
BRANCH  16  19
ATOM     19  S   UNL     1      -7.911  -2.146  -0.676  0.00  0.00    -0.016 S 
BRANCH  19  20
ATOM     20  C   UNL     1      -8.685  -1.444  -2.159  0.00  0.00    +0.448 C 
ATOM     21  F   UNL     1      -8.011  -1.899  -3.297  0.00  0.00    -0.160 F 
ATOM     22  F   UNL     1     -10.024  -1.843  -2.219  0.00  0.00    -0.160 F 
ATOM     23  F   UNL     1      -8.617  -0.047  -2.104  0.00  0.00    -0.160 F 
ENDBRANCH  19  20
ENDBRANCH  16  19
ENDBRANCH   2  13
TORSDOF 4
