REMARK  Name = ZINC15547290
REMARK  7 active torsions:
REMARK  status: ('A' for Active; 'I' for Inactive)
REMARK    1  A    between atoms: C_1  and  C_2
REMARK    2  A    between atoms: C_2  and  C_3
REMARK    3  A    between atoms: N_12  and  C_13
REMARK    4  A    between atoms: C_13  and  C_14
REMARK    5  A    between atoms: N_16  and  C_17
REMARK    6  A    between atoms: C_21  and  S_23
REMARK    7  A    between atoms: S_23  and  N_26
REMARK                            x       y       z     vdW  Elec       q    Type
REMARK                         _______ _______ _______ _____ _____    ______ ____
ROOT
ATOM      1  C   UNL     1      -2.920   1.610   2.488  0.00  0.00    +0.201 C 
ATOM      2  O   UNL     1      -3.140   0.772   3.336  0.00  0.00    -0.278 OA
ATOM      3  N   UNL     1      -3.183   2.908   2.739  0.00  0.00    -0.287 N 
ATOM      4  H   UNL     1      -2.945   3.586   2.088  0.00  0.00    +0.155 HD
ENDROOT
BRANCH   3   5
ATOM      5  C   UNL     1      -3.800   3.277   3.939  0.00  0.00    +0.035 A 
ATOM      6  C   UNL     1      -3.510   2.589   5.111  0.00  0.00    +0.023 A 
ATOM      7  C   UNL     1      -4.121   2.956   6.294  0.00  0.00    +0.004 A 
ATOM      8  C   UNL     1      -5.020   4.007   6.313  0.00  0.00    +0.029 A 
ATOM      9  C   UNL     1      -5.310   4.694   5.149  0.00  0.00    +0.114 A 
ATOM     10  C   UNL     1      -4.698   4.336   3.963  0.00  0.00    +0.052 A 
BRANCH   9  11
ATOM     11  S   UNL     1      -6.456   6.031   5.179  0.00  0.00    +0.100 S 
ATOM     12  O   UNL     1      -6.967   6.158   3.859  0.00  0.00    -0.146 OA
ATOM     13  O   UNL     1      -7.298   5.820   6.304  0.00  0.00    -0.146 OA
BRANCH  11  14
ATOM     14  N   UNL     1      -5.592   7.410   5.486  0.00  0.00    -0.118 NA
ATOM     15  C   UNL     1      -6.198   8.550   5.561  0.00  0.00    +0.117 C 
ATOM     16  C   UNL     1      -5.525   9.878   5.829  0.00  0.00    +0.074 C 
ATOM     17  C   UNL     1      -6.573  10.931   5.404  0.00  0.00    +0.026 C 
ATOM     18  C   UNL     1      -7.897  10.153   5.566  0.00  0.00    +0.103 C 
ATOM     19  N   UNL     1      -7.544   8.738   5.405  0.00  0.00    -0.331 N 
ATOM     20  H   UNL     1      -8.179   8.030   5.215  0.00  0.00    +0.147 HD
ENDBRANCH  11  14
ENDBRANCH   9  11
ENDBRANCH   3   5
BRANCH   1  21
ATOM     21  C   UNL     1      -2.353   1.201   1.153  0.00  0.00    +0.020 C 
BRANCH  21  30
ATOM     22  C   UNL     1      -1.449  -0.627  -0.101  0.00  0.00    -0.036 C 
ATOM     23  C   UNL     1      -1.341  -2.147  -0.167  0.00  0.00    -0.051 A 
ATOM     24  C   UNL     1      -0.423  -2.830  -0.961  0.00  0.00    +0.010 A 
ATOM     25  C   UNL     1      -0.397  -4.183  -0.955  0.00  0.00    +0.045 A 
ATOM     26  S   UNL     1      -1.704  -4.572   0.201  0.00  0.00    -0.101 S 
ATOM     27  C   UNL     1      -2.182  -2.912   0.585  0.00  0.00    -0.010 A 
ATOM     28  C   UNL     1      -3.249  -2.415   1.505  0.00  0.00    +0.024 C 
ATOM     29  C   UNL     1      -3.465  -0.922   1.201  0.00  0.00    -0.072 C 
ATOM     30  N   UNL     1      -2.158  -0.255   1.129  0.00  0.00    +0.390 N 
ATOM     31  H   UNL     1      -1.603  -0.528   1.927  0.00  0.00    -0.080 HD
BRANCH  22  33
ATOM     32  C   UNL     1       0.737  -0.552   1.108  0.00  0.00    +0.002 C 
ATOM     33  C   UNL     1      -0.047  -0.014  -0.091  0.00  0.00    -0.014 C 
ENDBRANCH  22  33
ENDBRANCH  21  30
ENDBRANCH   1  21
TORSDOF 6
