REMARK  Name = ZINC63162842
REMARK  11 active torsions:
REMARK  status: ('A' for Active; 'I' for Inactive)
REMARK    1  A    between atoms: C_1  and  C_2
REMARK    2  A    between atoms: C_3  and  N_9
REMARK    3  A    between atoms: C_10  and  C_12
REMARK    4  A    between atoms: C_12  and  C_14
REMARK    5  A    between atoms: C_12  and  N_24
REMARK    6  A    between atoms: C_14  and  C_15
REMARK    7  A    between atoms: C_25  and  O_27
REMARK    8  A    between atoms: O_27  and  C_28
REMARK    9  A    between atoms: C_28  and  C_29
REMARK   10  A    between atoms: C_29  and  C_30
REMARK   11  A    between atoms: C_29  and  C_31
REMARK                            x       y       z     vdW  Elec       q    Type
REMARK                         _______ _______ _______ _____ _____    ______ ____
ROOT
ATOM      1  C   UNL     1       0.167   0.113  -5.001  0.00  0.00    +0.166 C 
ENDROOT
BRANCH   1   3
ATOM      2  N   UNL     1      -0.086  -0.236  -2.565  0.00  0.00    -0.284 N 
ATOM      3  C   UNL     1       0.042  -0.779  -3.792  0.00  0.00    +0.238 C 
ATOM      4  O   UNL     1       0.057  -1.984  -3.924  0.00  0.00    -0.273 OA
ATOM      5  H   UNL     1      -0.176   0.725  -2.466  0.00  0.00    +0.155 HD
BRANCH   2   8
ATOM      6  C   UNL     1      -1.367   0.722  -0.211  0.00  0.00    +0.048 C 
ATOM      7  C   UNL     1      -0.704  -0.630  -0.264  0.00  0.00    +0.006 A 
ATOM      8  C   UNL     1      -0.090  -1.059  -1.433  0.00  0.00    +0.039 A 
ATOM      9  C   UNL     1       0.520  -2.306  -1.478  0.00  0.00    +0.024 A 
ATOM     10  C   UNL     1       0.515  -3.117  -0.359  0.00  0.00    +0.005 A 
ATOM     11  C   UNL     1      -0.096  -2.690   0.804  0.00  0.00    +0.039 A 
ATOM     12  C   UNL     1      -0.701  -1.444   0.855  0.00  0.00    +0.128 A 
ATOM     13  F   UNL     1      -1.293  -1.027   1.995  0.00  0.00    -0.205 F 
ENDBRANCH   2   8
ENDBRANCH   1   3
BRANCH   1  14
ATOM     14  N   UNL     1       0.293  -0.712  -6.205  0.00  0.00    -0.270 N 
ATOM     15  C   UNL     1      -0.165  -0.254  -7.386  0.00  0.00    +0.401 C 
ATOM     16  O   UNL     1      -0.683   0.844  -7.453  0.00  0.00    -0.226 OA
ATOM     17  H   UNL     1       0.707  -1.588  -6.152  0.00  0.00    +0.153 HD
BRANCH  15  18
ATOM     18  O   UNL     1      -0.049  -1.012  -8.493  0.00  0.00    -0.450 OA
BRANCH  18  19
ATOM     19  C   UNL     1      -0.556  -0.463  -9.711  0.00  0.00    +0.236 C 
BRANCH  19  20
ATOM     20  C   UNL     1      -0.337  -1.461 -10.850  0.00  0.00    +0.021 C 
ATOM     21  C   UNL     1      -1.171  -2.718 -10.594  0.00  0.00    +0.010 C 
ATOM     22  C   UNL     1      -0.765  -0.826 -12.175  0.00  0.00    +0.010 C 
ENDBRANCH  19  20
ENDBRANCH  18  19
ENDBRANCH  15  18
ENDBRANCH   1  14
BRANCH   1  23
ATOM     23  C   UNL     1       1.407   0.997  -4.856  0.00  0.00    +0.065 C 
BRANCH  23  24
ATOM     24  C   UNL     1       2.642   0.133  -4.842  0.00  0.00    -0.039 C 
ATOM     25  C   UNL     1       3.434  -0.171  -5.896  0.00  0.00    -0.001 A 
ATOM     26  C   UNL     1       3.384   0.198  -7.316  0.00  0.00    +0.010 A 
ATOM     27  C   UNL     1       4.340  -0.272  -8.149  0.00  0.00    +0.001 A 
ATOM     28  C   UNL     1       5.373  -1.101  -7.693  0.00  0.00    +0.002 A 
ATOM     29  C   UNL     1       5.486  -1.484  -6.403  0.00  0.00    +0.026 A 
ATOM     30  C   UNL     1       4.536  -1.047  -5.439  0.00  0.00    +0.043 A 
ATOM     31  N   UNL     1       4.429  -1.277  -4.152  0.00  0.00    -0.380 N 
ATOM     32  C   UNL     1       3.250  -0.566  -3.646  0.00  0.00    +0.144 C 
ATOM     33  H   UNL     1       5.032  -1.822  -3.623  0.00  0.00    +0.160 HD
ENDBRANCH  23  24
ENDBRANCH   1  23
TORSDOF 8
