REMARK  Name = ZINC13453914
REMARK  9 active torsions:
REMARK  status: ('A' for Active; 'I' for Inactive)
REMARK    1  A    between atoms: C_1  and  C_2
REMARK    2  A    between atoms: C_2  and  C_3
REMARK    3  A    between atoms: C_2  and  C_4
REMARK    4  A    between atoms: C_2  and  N_5
REMARK    5  A    between atoms: C_6  and  C_8
REMARK    6  A    between atoms: C_8  and  S_9
REMARK    7  A    between atoms: S_9  and  C_10
REMARK    8  A    between atoms: C_15  and  C_19
REMARK    9  A    between atoms: C_16  and  O_18
REMARK                            x       y       z     vdW  Elec       q    Type
REMARK                         _______ _______ _______ _____ _____    ______ ____
ROOT
ATOM      1  C   UNL     1      -1.990   2.411   3.486  0.00  0.00    +0.173 A 
ATOM      2  N   UNL     1      -1.507   3.338   2.613  0.00  0.00    -0.302 N 
ATOM      3  H   UNL     1      -1.620   4.283   2.798  0.00  0.00    +0.171 HD
ATOM      4  C   UNL     1      -0.865   2.942   1.494  0.00  0.00    +0.259 A 
ATOM      5  O   UNL     1      -0.423   3.765   0.708  0.00  0.00    -0.267 OA
ATOM      6  C   UNL     1      -0.718   1.572   1.248  0.00  0.00    +0.081 A 
ATOM      7  C   UNL     1      -1.228   0.671   2.168  0.00  0.00    +0.223 A 
ATOM      8  N   UNL     1      -1.850   1.120   3.262  0.00  0.00    -0.189 NA
ENDROOT
BRANCH   6   9
ATOM      9  C   UNL     1      -0.013   1.086   0.008  0.00  0.00    +0.030 C 
ATOM     10  C   UNL     1      -0.753   1.593  -1.232  0.00  0.00    +0.008 C 
ATOM     11  C   UNL     1      -0.037   1.099  -2.490  0.00  0.00    +0.001 C 
ATOM     12  C   UNL     1       1.399   1.629  -2.501  0.00  0.00    +0.000 C 
ATOM     13  C   UNL     1       2.139   1.122  -1.262  0.00  0.00    +0.001 C 
ATOM     14  C   UNL     1       1.423   1.615  -0.003  0.00  0.00    +0.008 C 
ENDBRANCH   6   9
BRANCH   7  15
ATOM     15  O   UNL     1      -1.097  -0.660   1.960  0.00  0.00    -0.492 OA
ATOM     16  H   UNL     1      -1.484  -1.207   2.656  0.00  0.00    +0.294 HD
ENDBRANCH   7  15
BRANCH   1  17
ATOM     17  S   UNL     1      -2.818   2.949   4.946  0.00  0.00    -0.078 S 
BRANCH  17  18
ATOM     18  C   UNL     1      -3.220   1.347   5.687  0.00  0.00    +0.173 C 
BRANCH  18  20
ATOM     19  N   UNL     1      -4.357   0.507   7.717  0.00  0.00    -0.310 N 
ATOM     20  C   UNL     1      -3.955   1.565   6.985  0.00  0.00    +0.224 C 
ATOM     21  O   UNL     1      -4.184   2.692   7.371  0.00  0.00    -0.275 OA
ATOM     22  H   UNL     1      -4.174  -0.394   7.409  0.00  0.00    +0.149 HD
BRANCH  19  24
ATOM     23  C   UNL     1      -6.361   1.495   8.711  0.00  0.00    +0.031 C 
ATOM     24  C   UNL     1      -5.071   0.719   8.979  0.00  0.00    +0.026 C 
ATOM     25  C   UNL     1      -5.410  -0.635   9.606  0.00  0.00    +0.031 C 
ATOM     26  C   UNL     1      -4.185   1.517   9.938  0.00  0.00    +0.031 C 
ENDBRANCH  19  24
ENDBRANCH  18  20
ENDBRANCH  17  18
ENDBRANCH   1  17
TORSDOF 6
