REMARK  Name = ZINC10001659
REMARK  12 active torsions:
REMARK  status: ('A' for Active; 'I' for Inactive)
REMARK    1  A    between atoms: C_1  and  C_2
REMARK    2  A    between atoms: C_2  and  N_3
REMARK    3  A    between atoms: C_4  and  C_20
REMARK    4  A    between atoms: C_7  and  S_8
REMARK    5  A    between atoms: S_8  and  C_9
REMARK    6  A    between atoms: C_9  and  C_10
REMARK    7  A    between atoms: N_12  and  C_13
REMARK    8  A    between atoms: C_20  and  C_22
REMARK    9  A    between atoms: C_20  and  N_25
REMARK   10  A    between atoms: C_22  and  C_23
REMARK   11  A    between atoms: C_22  and  C_24
REMARK   12  A    between atoms: C_26  and  C_28
REMARK                            x       y       z     vdW  Elec       q    Type
REMARK                         _______ _______ _______ _____ _____    ______ ____
ROOT
ATOM      1  N   UNL     1      -1.068   4.192  -0.936  0.00  0.00    -0.305 N 
ATOM      2  C   UNL     1      -1.492   3.701   0.268  0.00  0.00    +0.155 A 
ATOM      3  N   UNL     1      -2.786   3.845   0.312  0.00  0.00    -0.132 NA
ATOM      4  N   UNL     1      -3.207   4.385  -0.776  0.00  0.00    -0.122 NA
ATOM      5  C   UNL     1      -2.195   4.617  -1.579  0.00  0.00    +0.192 A 
ENDROOT
BRANCH   1   7
ATOM      6  C   UNL     1       0.583   3.026  -2.312  0.00  0.00    +0.027 C 
ATOM      7  C   UNL     1       0.308   4.248  -1.434  0.00  0.00    +0.122 C 
ENDBRANCH   1   7
BRANCH   5   8
ATOM      8  S   UNL     1      -2.276   5.344  -3.182  0.00  0.00    -0.077 S 
BRANCH   8   9
ATOM      9  C   UNL     1      -4.059   5.626  -3.311  0.00  0.00    +0.173 C 
BRANCH   9  10
ATOM     10  C   UNL     1      -4.373   6.260  -4.641  0.00  0.00    +0.227 C 
ATOM     11  O   UNL     1      -3.479   6.499  -5.425  0.00  0.00    -0.275 OA
ATOM     12  N   UNL     1      -5.647   6.563  -4.959  0.00  0.00    -0.285 N 
ATOM     13  H   UNL     1      -6.369   6.313  -4.362  0.00  0.00    +0.155 HD
BRANCH  12  14
ATOM     14  C   UNL     1      -5.929   7.239  -6.152  0.00  0.00    +0.033 A 
ATOM     15  C   UNL     1      -6.968   8.159  -6.202  0.00  0.00    +0.025 A 
ATOM     16  C   UNL     1      -7.241   8.828  -7.379  0.00  0.00    +0.022 A 
ATOM     17  C   UNL     1      -6.486   8.575  -8.511  0.00  0.00    +0.041 A 
ATOM     18  C   UNL     1      -5.454   7.654  -8.466  0.00  0.00    +0.022 A 
ATOM     19  C   UNL     1      -5.173   6.987  -7.290  0.00  0.00    +0.025 A 
ATOM     20 CL   UNL     1      -6.836   9.413  -9.990  0.00  0.00    -0.084 Cl
ENDBRANCH  12  14
ENDBRANCH   9  10
ENDBRANCH   8   9
ENDBRANCH   5   8
BRANCH   2  21
ATOM     21  C   UNL     1      -0.622   3.110   1.347  0.00  0.00    +0.144 C 
BRANCH  21  22
ATOM     22  N   UNL     1      -0.975   3.703   2.639  0.00  0.00    -0.301 N 
ATOM     23  C   UNL     1      -0.066   3.741   3.634  0.00  0.00    +0.245 C 
ATOM     24  O   UNL     1       1.046   3.282   3.459  0.00  0.00    -0.270 OA
ATOM     25  H   UNL     1      -1.862   4.070   2.778  0.00  0.00    +0.150 HD
BRANCH  23  26
ATOM     26  C   UNL     1      -0.421   4.339   4.935  0.00  0.00    +0.040 A 
ATOM     27  C   UNL     1      -1.697   4.872   5.136  0.00  0.00    +0.017 A 
ATOM     28  C   UNL     1      -2.028   5.426   6.354  0.00  0.00    +0.050 A 
ATOM     29  C   UNL     1      -1.094   5.466   7.380  0.00  0.00    +0.166 A 
ATOM     30  C   UNL     1       0.183   4.940   7.184  0.00  0.00    +0.167 A 
ATOM     31  C   UNL     1       0.519   4.379   5.968  0.00  0.00    +0.062 A 
ATOM     32  O   UNL     1       0.902   5.102   8.334  0.00  0.00    -0.453 OA
ATOM     33  C   UNL     1       0.189   6.095   9.095  0.00  0.00    +0.466 C 
ATOM     34  O   UNL     1      -1.173   5.955   8.651  0.00  0.00    -0.453 OA
ENDBRANCH  23  26
ENDBRANCH  21  22
BRANCH  21  35
ATOM     35  C   UNL     1      -0.840   1.596   1.405  0.00  0.00    +0.011 C 
ATOM     36  C   UNL     1      -0.334   0.958   0.110  0.00  0.00    +0.009 C 
ATOM     37  C   UNL     1      -2.332   1.302   1.569  0.00  0.00    +0.009 C 
ENDBRANCH  21  35
ENDBRANCH   2  21
TORSDOF 9
