REMARK  Name = ZINC59938185
REMARK  9 active torsions:
REMARK  status: ('A' for Active; 'I' for Inactive)
REMARK    1  A    between atoms: C_1  and  C_2
REMARK    2  A    between atoms: C_2  and  C_3
REMARK    3  A    between atoms: C_3  and  C_4
REMARK    4  A    between atoms: C_4  and  C_5
REMARK    5  A    between atoms: C_8  and  S_11
REMARK    6  A    between atoms: S_11  and  C_12
REMARK    7  A    between atoms: C_12  and  C_13
REMARK    8  A    between atoms: N_15  and  C_16
REMARK    9  A    between atoms: C_17  and  N_24
REMARK                            x       y       z     vdW  Elec       q    Type
REMARK                         _______ _______ _______ _____ _____    ______ ____
ROOT
ATOM      1  C   UNL     1       7.070  -4.185  -2.998  0.00  0.00    +0.228 C 
ATOM      2  O   UNL     1       7.224  -5.065  -3.819  0.00  0.00    -0.275 OA
ATOM      3  N   UNL     1       8.140  -3.547  -2.485  0.00  0.00    -0.282 N 
ATOM      4  H   UNL     1       8.015  -2.791  -1.890  0.00  0.00    +0.155 HD
ENDROOT
BRANCH   3   5
ATOM      5  C   UNL     1       9.433  -3.975  -2.810  0.00  0.00    +0.078 A 
ATOM      6  C   UNL     1      10.341  -4.271  -1.803  0.00  0.00    +0.149 A 
ATOM      7  C   UNL     1      11.616  -4.693  -2.126  0.00  0.00    +0.050 A 
ATOM      8  C   UNL     1      11.988  -4.822  -3.453  0.00  0.00    +0.021 A 
ATOM      9  C   UNL     1      11.085  -4.528  -4.459  0.00  0.00    +0.032 A 
ATOM     10  C   UNL     1       9.807  -4.110  -4.141  0.00  0.00    +0.042 A 
ATOM     11 BR   UNL     1       8.571  -3.716  -5.517  0.00  0.00    -0.048 Br
ATOM     12 BR   UNL     1      13.734  -5.401  -3.891  0.00  0.00    -0.050 Br
BRANCH   6  13
ATOM     13  N   UNL     1       9.945  -4.133  -0.383  0.00  0.00    +0.058 N 
ATOM     14  O   UNL     1      10.764  -4.292   0.491  0.00  0.00    -0.126 OA
ATOM     15  O   UNL     1       8.802  -3.861  -0.099  0.00  0.00    -0.126 OA
ENDBRANCH   6  13
ENDBRANCH   3   5
BRANCH   1  16
ATOM     16  C   UNL     1       5.681  -3.806  -2.553  0.00  0.00    +0.173 C 
BRANCH  16  17
ATOM     17  S   UNL     1       4.465  -4.838  -3.418  0.00  0.00    -0.077 S 
BRANCH  17  21
ATOM     18  C   UNL     1       1.428  -3.172  -1.674  0.00  0.00    +0.152 A 
ATOM     19  N   UNL     1       2.732  -3.327  -1.907  0.00  0.00    -0.206 NA
ATOM     20  H   UNL     1       1.513  -5.460  -3.787  0.00  0.00    +0.191 HD
ATOM     21  C   UNL     1       2.914  -4.280  -2.796  0.00  0.00    +0.185 A 
ATOM     22  N   UNL     1       1.699  -4.754  -3.149  0.00  0.00    -0.254 N 
ATOM     23  N   UNL     1       0.759  -4.023  -2.404  0.00  0.00    -0.157 NA
BRANCH  18  24
ATOM     24  C   UNL     1       0.824  -2.177  -0.717  0.00  0.00    +0.078 C 
BRANCH  24  25
ATOM     25  C   UNL     1       0.546  -0.865  -1.453  0.00  0.00    +0.007 C 
BRANCH  25  27
ATOM     26  C   UNL     1      -0.345   1.458  -1.218  0.00  0.00    +0.004 C 
ATOM     27  C   UNL     1      -0.067   0.145  -0.481  0.00  0.00    -0.003 C 
ENDBRANCH  25  27
ENDBRANCH  24  25
ENDBRANCH  18  24
ENDBRANCH  17  21
ENDBRANCH  16  17
ENDBRANCH   1  16
TORSDOF 8
