REMARK  Name = ZINC01341850
REMARK  11 active torsions:
REMARK  status: ('A' for Active; 'I' for Inactive)
REMARK    1  A    between atoms: C_1  and  N_2
REMARK    2  A    between atoms: N_2  and  C_3
REMARK    3  A    between atoms: N_2  and  C_4
REMARK    4  A    between atoms: C_7  and  C_10
REMARK    5  A    between atoms: C_10  and  C_12
REMARK    6  A    between atoms: C_10  and  N_22
REMARK    7  A    between atoms: N_14  and  C_15
REMARK    8  A    between atoms: C_15  and  C_16
REMARK    9  A    between atoms: N_22  and  C_23
REMARK   10  A    between atoms: C_32  and  C_34
REMARK   11  A    between atoms: C_34  and  N_35
REMARK                            x       y       z     vdW  Elec       q    Type
REMARK                         _______ _______ _______ _____ _____    ______ ____
ROOT
ATOM      1  N   UNL     1       0.779  -2.078  -5.870  0.00  0.00    -0.254 N 
ATOM      2  C   UNL     1       0.877  -2.711  -7.055  0.00  0.00    +0.242 C 
ATOM      3  O   UNL     1       0.364  -3.800  -7.205  0.00  0.00    -0.273 OA
ENDROOT
BRANCH   1   4
ATOM      4  C   UNL     1       1.454  -0.867  -5.665  0.00  0.00    +0.041 A 
ATOM      5  C   UNL     1       1.037   0.280  -6.327  0.00  0.00    +0.027 A 
ATOM      6  C   UNL     1       1.701   1.475  -6.127  0.00  0.00    +0.051 A 
ATOM      7  C   UNL     1       2.783   1.533  -5.264  0.00  0.00    +0.166 A 
ATOM      8  C   UNL     1       3.203   0.384  -4.597  0.00  0.00    +0.168 A 
ATOM      9  C   UNL     1       2.534  -0.812  -4.795  0.00  0.00    +0.073 A 
ATOM     10  O   UNL     1       4.276   0.701  -3.815  0.00  0.00    -0.453 OA
ATOM     11  C   UNL     1       4.763   1.958  -4.320  0.00  0.00    +0.466 C 
ATOM     12  O   UNL     1       3.594   2.570  -4.898  0.00  0.00    -0.453 OA
ENDBRANCH   1   4
BRANCH   1  13
ATOM     13  C   UNL     1      -0.032  -2.655  -4.795  0.00  0.00    +0.197 C 
BRANCH  13  17
ATOM     14  C   UNL     1       0.433  -0.317  -1.247  0.00  0.00    +0.029 A 
ATOM     15  C   UNL     1       0.735  -1.673  -1.232  0.00  0.00    +0.023 A 
ATOM     16  C   UNL     1       0.583  -2.426  -2.380  0.00  0.00    +0.008 A 
ATOM     17  C   UNL     1       0.132  -1.831  -3.544  0.00  0.00    -0.018 A 
ATOM     18  C   UNL     1      -0.170  -0.481  -3.562  0.00  0.00    +0.008 A 
ATOM     19  C   UNL     1      -0.026   0.276  -2.417  0.00  0.00    +0.023 A 
BRANCH  14  21
ATOM     20  C   UNL     1       0.260   1.875  -0.104  0.00  0.00    +0.129 C 
ATOM     21  N   UNL     1       0.585   0.447  -0.088  0.00  0.00    -0.336 N 
ATOM     22  C   UNL     1       1.069  -0.181   1.145  0.00  0.00    +0.129 C 
ENDBRANCH  14  21
ENDBRANCH  13  17
BRANCH  13  23
ATOM     23  C   UNL     1      -1.481  -2.661  -5.207  0.00  0.00    +0.239 C 
ATOM     24  O   UNL     1      -1.805  -2.225  -6.292  0.00  0.00    -0.273 OA
ATOM     25  N   UNL     1      -2.418  -3.150  -4.370  0.00  0.00    -0.311 N 
ATOM     26  H   UNL     1      -2.159  -3.498  -3.503  0.00  0.00    +0.149 HD
BRANCH  25  27
ATOM     27  C   UNL     1      -3.827  -3.155  -4.771  0.00  0.00    +0.135 C 
BRANCH  27  28
ATOM     28  C   UNL     1      -4.674  -3.759  -3.648  0.00  0.00    +0.135 C 
ATOM     29  C   UNL     1      -6.143  -3.880  -4.108  0.00  0.00    +0.035 C 
ATOM     30  C   UNL     1      -6.923  -3.487  -2.824  0.00  0.00    +0.031 C 
ATOM     31  C   UNL     1      -5.973  -2.425  -2.216  0.00  0.00    +0.160 C 
ATOM     32  O   UNL     1      -4.646  -2.899  -2.503  0.00  0.00    -0.375 OA
ENDBRANCH  27  28
ENDBRANCH  25  27
ENDBRANCH  13  23
ENDBRANCH   1  13
BRANCH   2  33
ATOM     33  C   UNL     1       1.623  -2.066  -8.195  0.00  0.00    +0.242 C 
BRANCH  33  34
ATOM     34  N   UNL     1       1.507  -2.905  -9.391  0.00  0.00    -0.235 N 
ATOM     35  C   UNL     1       2.353  -3.921  -9.768  0.00  0.00    +0.090 A 
ATOM     36  C   UNL     1       3.505  -4.473  -9.219  0.00  0.00    +0.029 A 
ATOM     37  C   UNL     1       4.133  -5.507  -9.856  0.00  0.00    +0.002 A 
ATOM     38  C   UNL     1       3.630  -6.012 -11.048  0.00  0.00    +0.002 A 
ATOM     39  C   UNL     1       2.502  -5.488 -11.607  0.00  0.00    +0.032 A 
ATOM     40  C   UNL     1       1.839  -4.428 -10.974  0.00  0.00    +0.113 A 
ATOM     41  N   UNL     1       0.731  -3.721 -11.276  0.00  0.00    -0.129 NA
ATOM     42  N   UNL     1       0.508  -2.833 -10.373  0.00  0.00    -0.064 NA
ENDBRANCH  33  34
ENDBRANCH   2  33
TORSDOF 9
