REMARK  Name = ZINC22408311
REMARK  9 active torsions:
REMARK  status: ('A' for Active; 'I' for Inactive)
REMARK    1  A    between atoms: C_3  and  C_6
REMARK    2  A    between atoms: C_9  and  S_16
REMARK    3  A    between atoms: N_10  and  C_11
REMARK    4  A    between atoms: C_11  and  C_12
REMARK    5  A    between atoms: C_12  and  C_13
REMARK    6  A    between atoms: S_16  and  C_17
REMARK    7  A    between atoms: C_17  and  C_18
REMARK    8  A    between atoms: N_20  and  C_21
REMARK    9  A    between atoms: C_22  and  C_26
REMARK                            x       y       z     vdW  Elec       q    Type
REMARK                         _______ _______ _______ _____ _____    ______ ____
ROOT
ATOM      1  C   UNL     1       0.914   5.126   0.019  0.00  0.00    +0.172 A 
ATOM      2  N   UNL     1       0.212   6.201   0.304  0.00  0.00    -0.128 NA
ATOM      3  N   UNL     1       0.953   7.247   0.208  0.00  0.00    -0.122 NA
ATOM      4  C   UNL     1       2.172   6.906  -0.144  0.00  0.00    +0.192 A 
ATOM      5  N   UNL     1       2.193   5.545  -0.272  0.00  0.00    -0.301 N 
ENDROOT
BRANCH   1   8
ATOM      6  C   UNL     1      -1.081   1.915   0.017  0.00  0.00    +0.008 A 
ATOM      7  C   UNL     1      -0.866   3.275   0.026  0.00  0.00    +0.019 A 
ATOM      8  C   UNL     1       0.426   3.737   0.017  0.00  0.00    +0.056 A 
ATOM      9  S   UNL     1       1.361   2.216   0.001  0.00  0.00    -0.094 S 
ATOM     10  C   UNL     1      -0.013   1.076   0.008  0.00  0.00    +0.046 A 
ENDBRANCH   1   8
BRANCH   5  11
ATOM     11  C   UNL     1       3.337   4.708  -0.643  0.00  0.00    +0.135 C 
BRANCH  11  12
ATOM     12  C   UNL     1       3.376   4.544  -2.164  0.00  0.00    +0.117 C 
BRANCH  12  13
ATOM     13  C   UNL     1       4.553   3.682  -2.545  0.00  0.00    +0.212 C 
ATOM     14  O   UNL     1       5.287   3.243  -1.685  0.00  0.00    -0.276 OA
ATOM     15  N   UNL     1       4.789   3.400  -3.842  0.00  0.00    -0.329 N 
ATOM     16  H   UNL     1       5.647   2.772  -4.120  0.00  0.00    +0.145 HD
ATOM     17  H   UNL     1       4.123   3.799  -4.622  0.00  0.00    +0.145 HD
ENDBRANCH  12  13
ENDBRANCH  11  12
ENDBRANCH   5  11
BRANCH   4  18
ATOM     18  S   UNL     1       3.530   8.000  -0.397  0.00  0.00    -0.077 S 
BRANCH  18  19
ATOM     19  C   UNL     1       2.730   9.583  -0.038  0.00  0.00    +0.173 C 
BRANCH  19  20
ATOM     20  C   UNL     1       3.730  10.699  -0.195  0.00  0.00    +0.228 C 
ATOM     21  O   UNL     1       4.872  10.449  -0.518  0.00  0.00    -0.275 OA
ATOM     22  N   UNL     1       3.356  11.976   0.023  0.00  0.00    -0.279 N 
ATOM     23  H   UNL     1       2.320  12.203   0.316  0.00  0.00    +0.155 HD
BRANCH  22  24
ATOM     24  C   UNL     1       4.277  13.002  -0.121  0.00  0.00    +0.084 A 
ATOM     25  C   UNL     1       4.082  14.367   0.052  0.00  0.00    +0.065 A 
ATOM     26  C   UNL     1       5.227  15.219  -0.162  0.00  0.00    +0.022 A 
ATOM     27  C   UNL     1       6.378  14.622  -0.520  0.00  0.00    +0.048 A 
ATOM     28  S   UNL     1       5.946  12.895  -0.570  0.00  0.00    -0.081 S 
BRANCH  25  29
ATOM     29  C   UNL     1       2.778  14.915   0.439  0.00  0.00    +0.244 C 
ATOM     30  O   UNL     1       1.833  14.169   0.615  0.00  0.00    -0.270 OA
ATOM     31  N   UNL     1       2.626  16.245   0.598  0.00  0.00    -0.325 N 
ATOM     32  H   UNL     1       1.647  16.656   0.888  0.00  0.00    +0.145 HD
ATOM     33  H   UNL     1       3.480  16.919   0.439  0.00  0.00    +0.145 HD
ENDBRANCH  25  29
ENDBRANCH  22  24
ENDBRANCH  19  20
ENDBRANCH  18  19
ENDBRANCH   4  18
TORSDOF 9
