REMARK  Name = ZINC08695197
REMARK  19 active torsions:
REMARK  status: ('A' for Active; 'I' for Inactive)
REMARK    1  A    between atoms: C_1  and  C_2
REMARK    2  A    between atoms: C_2  and  C_3
REMARK    3  A    between atoms: C_3  and  C_4
REMARK    4  A    between atoms: C_4  and  N_75
REMARK    5  A    between atoms: C_5  and  C_6
REMARK    6  A    between atoms: C_5  and  N_75
REMARK    7  A    between atoms: C_6  and  C_7
REMARK    8  A    between atoms: C_7  and  C_8
REMARK    9  A    between atoms: C_9  and  C_10
REMARK   10  A    between atoms: C_9  and  N_75
REMARK   11  A    between atoms: C_10  and  C_11
REMARK   12  A    between atoms: C_11  and  N_12
REMARK   13  A    between atoms: C_13  and  C_28
REMARK   14  A    between atoms: C_15  and  C_20
REMARK   15  A    between atoms: C_16  and  O_19
REMARK   16  A    between atoms: C_20  and  C_22
REMARK   17  A    between atoms: C_31  and  C_34
REMARK   18  A    between atoms: C_34  and  O_36
REMARK   19  A    between atoms: O_36  and  C_37
REMARK                            x       y       z     vdW  Elec       q    Type
REMARK                         _______ _______ _______ _____ _____    ______ ____
ROOT
ATOM      1  N   UNL     1       1.399   5.723   1.550  0.00  0.00    -0.284 N 
ATOM      2  C   UNL     1       1.893   5.145   0.294  0.00  0.00    +0.144 C 
ATOM      3  C   UNL     1       2.299   6.312  -0.576  0.00  0.00    +0.071 C 
ATOM      4  C   UNL     1       2.051   7.436   0.137  0.00  0.00    +0.188 C 
ATOM      5  C   UNL     1       1.493   7.062   1.454  0.00  0.00    +0.282 C 
ATOM      6  O   UNL     1       1.167   7.847   2.322  0.00  0.00    -0.267 OA
ENDROOT
BRANCH   2   7
ATOM      7  C   UNL     1       0.800   4.354  -0.378  0.00  0.00    -0.022 A 
ATOM      8  C   UNL     1       1.087   3.124  -0.941  0.00  0.00    +0.006 A 
ATOM      9  C   UNL     1       0.092   2.395  -1.558  0.00  0.00    +0.015 A 
ATOM     10  C   UNL     1      -1.207   2.904  -1.618  0.00  0.00    +0.059 A 
ATOM     11  C   UNL     1      -1.491   4.144  -1.042  0.00  0.00    +0.015 A 
ATOM     12  C   UNL     1      -0.486   4.862  -0.428  0.00  0.00    +0.006 A 
BRANCH  10  13
ATOM     13  C   UNL     1      -2.277   2.132  -2.283  0.00  0.00    +0.339 C 
ATOM     14  O   UNL     1      -2.027   1.052  -2.780  0.00  0.00    -0.245 OA
BRANCH  13  15
ATOM     15  O   UNL     1      -3.529   2.627  -2.340  0.00  0.00    -0.464 OA
ATOM     16  C   UNL     1      -4.529   1.814  -3.009  0.00  0.00    +0.280 C 
ENDBRANCH  13  15
ENDBRANCH  10  13
ENDBRANCH   2   7
BRANCH   3  17
ATOM     17  C   UNL     1       2.855   6.241  -1.930  0.00  0.00    +0.195 C 
ATOM     18  O   UNL     1       2.217   6.671  -2.873  0.00  0.00    -0.287 OA
BRANCH  17  19
ATOM     19  C   UNL     1       4.190   5.646  -2.151  0.00  0.00    +0.022 A 
ATOM     20  C   UNL     1       4.978   5.266  -1.062  0.00  0.00    +0.012 A 
ATOM     21  C   UNL     1       6.221   4.707  -1.276  0.00  0.00    +0.001 A 
ATOM     22  C   UNL     1       6.692   4.532  -2.565  0.00  0.00    +0.000 A 
ATOM     23  C   UNL     1       5.919   4.911  -3.648  0.00  0.00    +0.001 A 
ATOM     24  C   UNL     1       4.672   5.466  -3.450  0.00  0.00    +0.012 A 
ENDBRANCH  17  19
ENDBRANCH   3  17
BRANCH   4  25
ATOM     25  O   UNL     1       2.278   8.700  -0.288  0.00  0.00    -0.502 OA
ATOM     26  H   UNL     1       2.010   9.345   0.428  0.00  0.00    +0.292 HD
ENDBRANCH   4  25
BRANCH   1  27
ATOM     27  C   UNL     1       0.893   4.974   2.703  0.00  0.00    +0.107 C 
BRANCH  27  28
ATOM     28  C   UNL     1       2.050   4.660   3.654  0.00  0.00    +0.000 C 
BRANCH  28  29
ATOM     29  C   UNL     1       1.522   3.878   4.858  0.00  0.00    -0.077 C 
BRANCH  29  30
ATOM     30  N   UNL     1       2.646   3.601   5.777  0.00  0.00    +0.380 N 
ATOM     31  H   UNL     1       3.139   4.479   5.976  0.00  0.00    -0.082 HD
BRANCH  30  32
ATOM     32  C   UNL     1       3.590   2.653   5.148  0.00  0.00    -0.079 C 
BRANCH  32  33
ATOM     33  C   UNL     1       4.899   2.665   5.939  0.00  0.00    -0.019 C 
BRANCH  33  34
ATOM     34  C   UNL     1       5.857   1.624   5.357  0.00  0.00    -0.005 C 
ATOM     35  C   UNL     1       7.166   1.636   6.148  0.00  0.00    +0.004 C 
ENDBRANCH  33  34
ENDBRANCH  32  33
ENDBRANCH  30  32
BRANCH  30  36
ATOM     36  C   UNL     1       2.136   3.039   7.045  0.00  0.00    -0.079 C 
BRANCH  36  37
ATOM     37  C   UNL     1       1.566   4.178   7.892  0.00  0.00    -0.019 C 
BRANCH  37  39
ATOM     38  C   UNL     1       0.458   4.755  10.055  0.00  0.00    +0.004 C 
ATOM     39  C   UNL     1       1.027   3.615   9.208  0.00  0.00    -0.005 C 
ENDBRANCH  37  39
ENDBRANCH  36  37
ENDBRANCH  30  36
ENDBRANCH  29  30
ENDBRANCH  28  29
ENDBRANCH  27  28
ENDBRANCH   1  27
TORSDOF 16
