REMARK  Name = ZINC39666679
REMARK  8 active torsions:
REMARK  status: ('A' for Active; 'I' for Inactive)
REMARK    1  A    between atoms: C_1  and  C_2
REMARK    2  A    between atoms: C_2  and  C_3
REMARK    3  A    between atoms: C_3  and  C_4
REMARK    4  A    between atoms: C_3  and  C_6
REMARK    5  A    between atoms: C_4  and  C_5
REMARK    6  A    between atoms: C_6  and  N_7
REMARK    7  A    between atoms: C_8  and  C_10
REMARK    8  A    between atoms: C_21  and  C_23
REMARK                            x       y       z     vdW  Elec       q    Type
REMARK                         _______ _______ _______ _____ _____    ______ ____
ROOT
ATOM      1  C   UNL     1      -2.607  -4.504  -2.182  0.00  0.00    +0.100 C 
ATOM      2  C   UNL     1      -3.724  -3.966  -1.261  0.00  0.00    +0.121 C 
ATOM      3  N   UNL     1      -4.812  -4.966  -1.369  0.00  0.00    -0.296 N 
ATOM      4  C   UNL     1      -4.111  -6.272  -1.402  0.00  0.00    +0.115 C 
ATOM      5  C   UNL     1      -2.864  -6.018  -2.272  0.00  0.00    -0.004 C 
ATOM      6  C   UNL     1      -3.136  -6.423  -3.717  0.00  0.00    -0.010 C 
ATOM      7  C   UNL     1      -3.333  -7.940  -3.789  0.00  0.00    -0.082 C 
ATOM      8  N   UNL     1      -2.129  -8.615  -3.290  0.00  0.00    +0.379 N 
ATOM      9  C   UNL     1      -1.925  -8.293  -1.872  0.00  0.00    -0.082 C 
ATOM     10  C   UNL     1      -1.670  -6.791  -1.719  0.00  0.00    -0.010 C 
ATOM     11  C   UNL     1      -6.140  -4.740  -1.424  0.00  0.00    +0.247 C 
ATOM     12  O   UNL     1      -6.561  -3.601  -1.473  0.00  0.00    -0.270 OA
ATOM     13  H   UNL     1      -2.236  -9.613  -3.395  0.00  0.00    -0.086 HD
ATOM     14  H   UNL     1      -1.328  -8.308  -3.821  0.00  0.00    -0.086 HD
ENDROOT
BRANCH  11  15
ATOM     15  C   UNL     1      -7.084  -5.877  -1.424  0.00  0.00    +0.038 A 
ATOM     16  C   UNL     1      -6.688  -7.117  -0.917  0.00  0.00    +0.014 A 
ATOM     17  C   UNL     1      -7.573  -8.174  -0.919  0.00  0.00    +0.022 A 
ATOM     18  C   UNL     1      -8.852  -8.010  -1.424  0.00  0.00    +0.059 A 
ATOM     19  C   UNL     1      -9.251  -6.782  -1.929  0.00  0.00    +0.060 A 
ATOM     20  C   UNL     1      -8.376  -5.715  -1.926  0.00  0.00    +0.034 A 
ATOM     21 CL   UNL     1     -10.857  -6.585  -2.559  0.00  0.00    -0.082 Cl
ATOM     22 CL   UNL     1      -9.960  -9.347  -1.425  0.00  0.00    -0.082 Cl
ENDBRANCH  11  15
BRANCH   1  24
ATOM     23  N   UNL     1      -0.177  -4.081  -2.372  0.00  0.00    -0.315 N 
ATOM     24  C   UNL     1      -1.253  -4.237  -1.576  0.00  0.00    +0.218 C 
ATOM     25  O   UNL     1      -1.132  -4.162  -0.371  0.00  0.00    -0.275 OA
ATOM     26  H   UNL     1      -0.274  -4.141  -3.336  0.00  0.00    +0.149 HD
BRANCH  23  27
ATOM     27  C   UNL     1       1.139  -3.821  -1.783  0.00  0.00    +0.107 C 
BRANCH  27  28
ATOM     28  C   UNL     1       2.179  -3.686  -2.897  0.00  0.00    +0.006 C 
BRANCH  28  30
ATOM     29  C   UNL     1       2.844  -2.369  -4.913  0.00  0.00    +0.004 C 
ATOM     30  C   UNL     1       1.863  -2.450  -3.742  0.00  0.00    +0.002 C 
ENDBRANCH  28  30
BRANCH  28  31
ATOM     31  C   UNL     1       3.571  -3.539  -2.280  0.00  0.00    +0.002 C 
ATOM     32  C   UNL     1       3.925  -4.813  -1.510  0.00  0.00    +0.004 C 
ENDBRANCH  28  31
ENDBRANCH  27  28
ENDBRANCH  23  27
ENDBRANCH   1  24
TORSDOF 6
