REMARK  Name = ZINC39675473
REMARK  14 active torsions:
REMARK  status: ('A' for Active; 'I' for Inactive)
REMARK    1  A    between atoms: C_1  and  C_2
REMARK    2  A    between atoms: C_2  and  C_4
REMARK    3  A    between atoms: C_2  and  N_14
REMARK    4  A    between atoms: C_4  and  C_5
REMARK    5  A    between atoms: C_5  and  C_6
REMARK    6  A    between atoms: C_9  and  O_12
REMARK    7  A    between atoms: O_12  and  C_13
REMARK    8  A    between atoms: C_15  and  C_17
REMARK    9  A    between atoms: C_28  and  C_30
REMARK   10  A    between atoms: C_30  and  C_32
REMARK   11  A    between atoms: C_30  and  O_35
REMARK   12  A    between atoms: C_32  and  C_33
REMARK   13  A    between atoms: C_32  and  C_34
REMARK   14  A    between atoms: O_35  and  C_36
REMARK                            x       y       z     vdW  Elec       q    Type
REMARK                         _______ _______ _______ _____ _____    ______ ____
ROOT
ATOM      1  C   UNL     1      -3.611  -0.978  -1.939  0.00  0.00    +0.100 C 
ATOM      2  C   UNL     1      -3.572  -2.362  -1.254  0.00  0.00    +0.121 C 
ATOM      3  N   UNL     1      -4.604  -3.158  -1.958  0.00  0.00    -0.297 N 
ATOM      4  C   UNL     1      -4.468  -2.762  -3.381  0.00  0.00    +0.115 C 
ATOM      5  C   UNL     1      -4.199  -1.244  -3.335  0.00  0.00    -0.004 C 
ATOM      6  C   UNL     1      -5.502  -0.471  -3.516  0.00  0.00    -0.010 C 
ATOM      7  C   UNL     1      -6.038  -0.708  -4.931  0.00  0.00    -0.082 C 
ATOM      8  N   UNL     1      -5.042  -0.264  -5.913  0.00  0.00    +0.379 N 
ATOM      9  C   UNL     1      -3.824  -1.075  -5.794  0.00  0.00    -0.082 C 
ATOM     10  C   UNL     1      -3.195  -0.855  -4.415  0.00  0.00    -0.010 C 
ATOM     11  C   UNL     1      -5.472  -4.042  -1.427  0.00  0.00    +0.257 C 
ATOM     12  O   UNL     1      -5.520  -4.196  -0.225  0.00  0.00    -0.272 OA
ATOM     13  H   UNL     1      -5.421  -0.364  -6.843  0.00  0.00    -0.086 HD
ATOM     14  H   UNL     1      -4.816   0.705  -5.747  0.00  0.00    -0.086 HD
ENDROOT
BRANCH   1  16
ATOM     15  N   UNL     1      -2.041   0.920  -2.168  0.00  0.00    -0.312 N 
ATOM     16  C   UNL     1      -2.219  -0.411  -2.056  0.00  0.00    +0.218 C 
ATOM     17  O   UNL     1      -1.260  -1.153  -2.048  0.00  0.00    -0.275 OA
ATOM     18  H   UNL     1      -2.809   1.514  -2.175  0.00  0.00    +0.149 HD
BRANCH  15  20
ATOM     19  C   UNL     1      -0.244   1.436  -3.745  0.00  0.00    +0.028 C 
ATOM     20  C   UNL     1      -0.689   1.472  -2.282  0.00  0.00    +0.070 C 
BRANCH  20  21
ATOM     21  C   UNL     1      -0.683   2.918  -1.782  0.00  0.00    +0.026 C 
BRANCH  21  22
ATOM     22  C   UNL     1      -1.006   2.942  -0.287  0.00  0.00    +0.037 C 
BRANCH  22  23
ATOM     23  C   UNL     1      -1.002   4.366   0.205  0.00  0.00    -0.047 A 
ATOM     24  C   UNL     1       0.169   4.929   0.679  0.00  0.00    +0.007 A 
ATOM     25  C   UNL     1       0.176   6.234   1.131  0.00  0.00    +0.046 A 
ATOM     26  C   UNL     1      -0.993   6.981   1.109  0.00  0.00    +0.120 A 
ATOM     27  C   UNL     1      -2.166   6.414   0.633  0.00  0.00    +0.046 A 
ATOM     28  C   UNL     1      -2.167   5.110   0.177  0.00  0.00    +0.007 A 
BRANCH  26  29
ATOM     29  O   UNL     1      -0.988   8.265   1.553  0.00  0.00    -0.495 OA
ATOM     30  C   UNL     1      -2.228   8.974   1.501  0.00  0.00    +0.277 C 
ENDBRANCH  26  29
ENDBRANCH  22  23
ENDBRANCH  21  22
ENDBRANCH  20  21
ENDBRANCH  15  20
ENDBRANCH   1  16
BRANCH  11  31
ATOM     31  C   UNL     1      -6.381  -4.840  -2.326  0.00  0.00    +0.261 C 
BRANCH  31  32
ATOM     32  C   UNL     1      -5.541  -5.769  -3.205  0.00  0.00    +0.033 C 
ATOM     33  C   UNL     1      -4.828  -6.797  -2.325  0.00  0.00    +0.011 C 
ATOM     34  C   UNL     1      -6.453  -6.493  -4.198  0.00  0.00    +0.011 C 
ENDBRANCH  31  32
BRANCH  31  35
ATOM     35  O   UNL     1      -7.276  -5.618  -1.529  0.00  0.00    -0.479 OA
BRANCH  35  36
ATOM     36  C   UNL     1      -8.541  -5.777  -1.999  0.00  0.00    +0.122 A 
ATOM     37  C   UNL     1      -9.467  -6.507  -1.268  0.00  0.00    +0.045 A 
ATOM     38  C   UNL     1     -10.752  -6.667  -1.747  0.00  0.00    +0.004 A 
ATOM     39  C   UNL     1     -11.116  -6.101  -2.955  0.00  0.00    +0.000 A 
ATOM     40  C   UNL     1     -10.195  -5.373  -3.686  0.00  0.00    +0.004 A 
ATOM     41  C   UNL     1      -8.910  -5.205  -3.208  0.00  0.00    +0.045 A 
ENDBRANCH  35  36
ENDBRANCH  31  35
ENDBRANCH  11  31
TORSDOF 10
