REMARK  Name = ZINC38584227
REMARK  15 active torsions:
REMARK  status: ('A' for Active; 'I' for Inactive)
REMARK    1  A    between atoms: C_1  and  C_2
REMARK    2  A    between atoms: C_2  and  C_3
REMARK    3  A    between atoms: C_7  and  C_38
REMARK    4  A    between atoms: C_8  and  N_9
REMARK    5  A    between atoms: N_9  and  C_10
REMARK    6  A    between atoms: C_10  and  O_11
REMARK    7  A    between atoms: O_11  and  C_12
REMARK    8  A    between atoms: C_12  and  C_13
REMARK    9  A    between atoms: C_14  and  C_16
REMARK   10  A    between atoms: C_16  and  N_17
REMARK   11  A    between atoms: C_25  and  C_26
REMARK   12  A    between atoms: C_26  and  C_27
REMARK   13  A    between atoms: C_27  and  C_28
REMARK   14  A    between atoms: C_28  and  N_29
REMARK   15  A    between atoms: C_30  and  C_32
REMARK                            x       y       z     vdW  Elec       q    Type
REMARK                         _______ _______ _______ _____ _____    ______ ____
ROOT
ATOM      1  N   UNL     1      -1.372   2.644  -4.654  0.00  0.00    -0.319 N 
ATOM      2  C   UNL     1      -2.508   3.208  -5.200  0.00  0.00    +0.069 A 
ATOM      3  C   UNL     1      -3.741   2.709  -5.596  0.00  0.00    +0.028 A 
ATOM      4  C   UNL     1      -4.688   3.563  -6.119  0.00  0.00    +0.002 A 
ATOM      5  C   UNL     1      -4.416   4.918  -6.252  0.00  0.00    +0.002 A 
ATOM      6  C   UNL     1      -3.208   5.427  -5.868  0.00  0.00    +0.030 A 
ATOM      7  C   UNL     1      -2.233   4.580  -5.334  0.00  0.00    +0.089 A 
ATOM      8  N   UNL     1      -0.971   4.777  -4.874  0.00  0.00    -0.232 NA
ATOM      9  C   UNL     1      -0.470   3.646  -4.471  0.00  0.00    +0.111 A 
ENDROOT
BRANCH   1  10
ATOM     10  C   UNL     1      -1.176   1.229  -4.328  0.00  0.00    +0.219 C 
BRANCH  10  12
ATOM     11  N   UNL     1      -1.450  -0.242  -2.359  0.00  0.00    -0.246 N 
ATOM     12  C   UNL     1      -1.629   0.973  -2.913  0.00  0.00    +0.241 C 
ATOM     13  O   UNL     1      -2.153   1.860  -2.274  0.00  0.00    -0.273 OA
BRANCH  11  19
ATOM     14  C   UNL     1      -1.169  -0.268   0.040  0.00  0.00    -0.026 A 
ATOM     15  C   UNL     1      -1.671  -0.526   1.301  0.00  0.00    +0.005 A 
ATOM     16  C   UNL     1      -2.950  -1.029   1.448  0.00  0.00    +0.001 A 
ATOM     17  C   UNL     1      -3.732  -1.275   0.334  0.00  0.00    +0.005 A 
ATOM     18  C   UNL     1      -3.236  -1.018  -0.929  0.00  0.00    -0.029 A 
ATOM     19  C   UNL     1      -1.953  -0.508  -1.080  0.00  0.00    +0.045 A 
ATOM     20  C   UNL     1      -4.089  -1.287  -2.143  0.00  0.00    +0.045 C 
BRANCH  14  22
ATOM     21  C   UNL     1       0.165   1.806  -0.223  0.00  0.00    +0.009 C 
ATOM     22  C   UNL     1       0.226   0.281  -0.119  0.00  0.00    +0.033 C 
ENDBRANCH  14  22
ENDBRANCH  11  19
BRANCH  11  23
ATOM     23  C   UNL     1      -0.730  -1.285  -3.094  0.00  0.00    +0.275 C 
BRANCH  23  24
ATOM     24  O   UNL     1      -1.667  -2.207  -3.653  0.00  0.00    -0.361 OA
BRANCH  24  25
ATOM     25  C   UNL     1      -2.254  -1.767  -4.880  0.00  0.00    +0.158 C 
ATOM     26  C   UNL     1      -3.134  -2.881  -5.452  0.00  0.00    +0.034 C 
ENDBRANCH  24  25
ENDBRANCH  23  24
ENDBRANCH  11  23
ENDBRANCH  10  12
ENDBRANCH   1  10
BRANCH   9  27
ATOM     27  C   UNL     1       0.909   3.470  -3.889  0.00  0.00    +0.076 C 
BRANCH  27  28
ATOM     28  C   UNL     1       1.903   3.178  -5.015  0.00  0.00    +0.026 C 
BRANCH  28  29
ATOM     29  C   UNL     1       3.304   3.000  -4.424  0.00  0.00    +0.104 C 
BRANCH  29  30
ATOM     30  N   UNL     1       4.256   2.720  -5.502  0.00  0.00    -0.315 N 
ATOM     31  C   UNL     1       5.559   2.526  -5.216  0.00  0.00    +0.216 C 
ATOM     32  O   UNL     1       5.943   2.583  -4.067  0.00  0.00    -0.276 OA
ATOM     33  H   UNL     1       3.949   2.674  -6.421  0.00  0.00    +0.149 HD
BRANCH  31  34
ATOM     34  C   UNL     1       6.538   2.238  -6.324  0.00  0.00    +0.075 C 
ATOM     35  C   UNL     1       6.125   0.957  -7.051  0.00  0.00    +0.013 C 
ATOM     36  C   UNL     1       7.119   0.664  -8.176  0.00  0.00    +0.001 C 
ATOM     37  C   UNL     1       8.519   0.486  -7.585  0.00  0.00    +0.000 C 
ATOM     38  C   UNL     1       8.933   1.768  -6.859  0.00  0.00    +0.001 C 
ATOM     39  C   UNL     1       7.939   2.060  -5.734  0.00  0.00    +0.013 C 
ENDBRANCH  31  34
ENDBRANCH  29  30
ENDBRANCH  28  29
ENDBRANCH  27  28
ENDBRANCH   9  27
TORSDOF 12
