REMARK  Name = ZINC08828697
REMARK  8 active torsions:
REMARK  status: ('A' for Active; 'I' for Inactive)
REMARK    1  A    between atoms: C_1  and  C_2
REMARK    2  A    between atoms: C_2  and  C_3
REMARK    3  A    between atoms: C_8  and  C_23
REMARK    4  A    between atoms: C_9  and  C_22
REMARK    5  A    between atoms: C_12  and  C_15
REMARK    6  A    between atoms: C_13  and  O_14
REMARK    7  A    between atoms: C_15  and  N_16
REMARK    8  A    between atoms: N_26  and  C_28
REMARK                            x       y       z     vdW  Elec       q    Type
REMARK                         _______ _______ _______ _____ _____    ______ ____
ROOT
ATOM      1  C   UNL     1       0.707  -0.490  -1.238  0.00  0.00    -0.005 A 
ATOM      2  C   UNL     1      -0.017  -0.813  -2.350  0.00  0.00    +0.022 A 
ATOM      3  C   UNL     1       0.639  -1.262  -3.495  0.00  0.00    +0.065 A 
ATOM      4  C   UNL     1      -0.105  -1.635  -4.713  0.00  0.00    +0.201 A 
ATOM      5  O   UNL     1      -1.284  -1.360  -4.860  0.00  0.00    -0.286 OA
ATOM      6  C   UNL     1       0.663  -2.360  -5.743  0.00  0.00    +0.070 A 
ATOM      7  C   UNL     1       2.015  -2.399  -5.626  0.00  0.00    +0.114 A 
ATOM      8  O   UNL     1       2.672  -1.798  -4.630  0.00  0.00    -0.459 OA
ATOM      9  C   UNL     1       2.041  -1.379  -3.517  0.00  0.00    +0.144 A 
ATOM     10  C   UNL     1       2.761  -1.050  -2.376  0.00  0.00    +0.021 A 
ATOM     11  C   UNL     1       2.096  -0.603  -1.247  0.00  0.00    +0.125 A 
ATOM     12  C   UNL     1       2.808  -3.152  -6.663  0.00  0.00    +0.087 C 
ENDROOT
BRANCH   6  13
ATOM     13  C   UNL     1      -0.024  -3.030  -6.877  0.00  0.00    +0.027 A 
ATOM     14  C   UNL     1       0.093  -2.689  -8.238  0.00  0.00    +0.143 A 
ATOM     15  N   UNL     1      -0.660  -3.503  -8.931  0.00  0.00    -0.174 NA
ATOM     16  N   UNL     1      -1.286  -4.392  -8.047  0.00  0.00    -0.239 N 
ATOM     17  C   UNL     1      -0.878  -4.090  -6.788  0.00  0.00    +0.123 A 
BRANCH  16  18
ATOM     18  C   UNL     1      -2.173  -5.417  -8.402  0.00  0.00    +0.065 A 
ATOM     19  C   UNL     1      -2.729  -6.226  -7.420  0.00  0.00    +0.028 A 
ATOM     20  C   UNL     1      -3.603  -7.236  -7.773  0.00  0.00    +0.002 A 
ATOM     21  C   UNL     1      -3.923  -7.442  -9.102  0.00  0.00    +0.000 A 
ATOM     22  C   UNL     1      -3.370  -6.638 -10.082  0.00  0.00    +0.002 A 
ATOM     23  C   UNL     1      -2.501  -5.623  -9.736  0.00  0.00    +0.028 A 
ENDBRANCH  16  18
ENDBRANCH   6  13
BRANCH   1  25
ATOM     24  C   UNL     1      -0.019   1.526   0.010  0.00  0.00    +0.009 C 
ATOM     25  C   UNL     1       0.002  -0.004   0.002  0.00  0.00    +0.035 C 
ENDBRANCH   1  25
BRANCH  11  26
ATOM     26  O   UNL     1       2.804  -0.277  -0.135  0.00  0.00    -0.506 OA
ATOM     27  H   UNL     1       2.943  -1.016   0.473  0.00  0.00    +0.292 HD
ENDBRANCH  11  26
BRANCH  10  28
ATOM     28  C   UNL     1       4.263  -1.173  -2.369  0.00  0.00    -0.036 C 
BRANCH  28  29
ATOM     29  N   UNL     1       4.860   0.094  -2.812  0.00  0.00    +0.383 N 
ATOM     30  C   UNL     1       4.544   1.148  -1.841  0.00  0.00    -0.078 C 
ATOM     31  C   UNL     1       5.095   2.487  -2.339  0.00  0.00    -0.019 C 
ATOM     32  C   UNL     1       6.614   2.379  -2.501  0.00  0.00    -0.004 C 
ATOM     33  C   UNL     1       6.934   1.228  -3.459  0.00  0.00    -0.019 C 
ATOM     34  C   UNL     1       6.316  -0.064  -2.920  0.00  0.00    -0.078 C 
ATOM     35  H   UNL     1       4.483   0.345  -3.714  0.00  0.00    -0.081 HD
ENDBRANCH  28  29
ENDBRANCH  10  28
TORSDOF 6
