REMARK  Name = ZINC24144099
REMARK  12 active torsions:
REMARK  status: ('A' for Active; 'I' for Inactive)
REMARK    1  A    between atoms: C_1  and  C_2
REMARK    2  A    between atoms: C_2  and  C_3
REMARK    3  A    between atoms: C_3  and  C_5
REMARK    4  A    between atoms: C_3  and  N_33
REMARK    5  A    between atoms: C_8  and  S_17
REMARK    6  A    between atoms: N_9  and  C_10
REMARK    7  A    between atoms: C_10  and  C_11
REMARK    8  A    between atoms: S_17  and  C_18
REMARK    9  A    between atoms: C_18  and  C_19
REMARK   10  A    between atoms: N_21  and  C_22
REMARK   11  A    between atoms: N_33  and  C_34
REMARK   12  A    between atoms: N_33  and  C_35
REMARK                            x       y       z     vdW  Elec       q    Type
REMARK                         _______ _______ _______ _____ _____    ______ ____
ROOT
ATOM      1  C   UNL     1      -6.593   3.722   5.417  0.00  0.00    +0.121 A 
ATOM      2  N   UNL     1      -5.352   3.849   5.795  0.00  0.00    -0.135 NA
ATOM      3  N   UNL     1      -4.564   3.417   4.876  0.00  0.00    -0.123 NA
ATOM      4  C   UNL     1      -5.266   2.988   3.853  0.00  0.00    +0.192 A 
ATOM      5  N   UNL     1      -6.582   3.175   4.164  0.00  0.00    -0.303 N 
ENDROOT
BRANCH   1   6
ATOM      6  C   UNL     1      -7.813   4.113   6.211  0.00  0.00    +0.000 C 
BRANCH   6   7
ATOM      7  N   UNL     1      -7.664   3.648   7.597  0.00  0.00    +0.383 N 
ATOM      8  C   UNL     1      -8.821   4.045   8.411  0.00  0.00    -0.096 C 
ATOM      9  C   UNL     1      -7.460   2.194   7.646  0.00  0.00    -0.096 C 
ATOM     10  H   UNL     1      -6.771   4.130   8.021  0.00  0.00    -0.082 HD
ENDBRANCH   6   7
BRANCH   6  12
ATOM     11  C   UNL     1      -8.242   6.107   4.768  0.00  0.00    +0.002 C 
ATOM     12  C   UNL     1      -7.965   5.635   6.197  0.00  0.00    -0.011 C 
ENDBRANCH   6  12
ENDBRANCH   1   6
BRANCH   5  13
ATOM     13  C   UNL     1      -7.743   2.853   3.329  0.00  0.00    +0.160 C 
BRANCH  13  14
ATOM     14  C   UNL     1      -8.191   1.443   3.615  0.00  0.00    -0.028 A 
ATOM     15  C   UNL     1      -7.671   0.391   2.884  0.00  0.00    +0.005 A 
ATOM     16  C   UNL     1      -8.078  -0.903   3.148  0.00  0.00    +0.000 A 
ATOM     17  C   UNL     1      -9.013  -1.145   4.138  0.00  0.00    +0.000 A 
ATOM     18  C   UNL     1      -9.536  -0.092   4.866  0.00  0.00    +0.000 A 
ATOM     19  C   UNL     1      -9.126   1.201   4.604  0.00  0.00    +0.005 A 
ENDBRANCH  13  14
ENDBRANCH   5  13
BRANCH   4  20
ATOM     20  S   UNL     1      -4.629   2.307   2.358  0.00  0.00    -0.077 S 
BRANCH  20  21
ATOM     21  C   UNL     1      -2.854   2.400   2.701  0.00  0.00    +0.173 C 
BRANCH  21  22
ATOM     22  C   UNL     1      -2.086   1.855   1.524  0.00  0.00    +0.224 C 
ATOM     23  O   UNL     1      -2.680   1.445   0.550  0.00  0.00    -0.275 OA
ATOM     24  N   UNL     1      -0.739   1.824   1.555  0.00  0.00    -0.308 N 
ATOM     25  H   UNL     1      -0.200   2.196   2.439  0.00  0.00    +0.149 HD
BRANCH  24  26
ATOM     26  C   UNL     1       0.008   1.295   0.412  0.00  0.00    +0.110 C 
ATOM     27  C   UNL     1       1.409   1.911   0.389  0.00  0.00    +0.068 C 
ATOM     28  C   UNL     1       2.261   1.133  -0.623  0.00  0.00    +0.231 C 
ATOM     29  O   UNL     1       2.412  -0.206  -0.149  0.00  0.00    -0.492 OA
ATOM     30  C   UNL     1       1.294  -0.869   0.245  0.00  0.00    +0.125 A 
ATOM     31  C   UNL     1       0.114  -0.204   0.532  0.00  0.00    +0.014 A 
ATOM     32  C   UNL     1      -0.998  -0.921   0.940  0.00  0.00    +0.009 A 
ATOM     33  C   UNL     1      -0.937  -2.296   1.059  0.00  0.00    +0.001 A 
ATOM     34  C   UNL     1       0.238  -2.963   0.769  0.00  0.00    +0.004 A 
ATOM     35  C   UNL     1       1.351  -2.254   0.363  0.00  0.00    +0.046 A 
ENDBRANCH  24  26
ENDBRANCH  21  22
ENDBRANCH  20  21
ENDBRANCH   4  20
TORSDOF 9
