REMARK  Name = ZINC08437463
REMARK  11 active torsions:
REMARK  status: ('A' for Active; 'I' for Inactive)
REMARK    1  A    between atoms: C_1  and  C_2
REMARK    2  A    between atoms: C_2  and  N_3
REMARK    3  A    between atoms: N_5  and  C_30
REMARK    4  A    between atoms: C_8  and  C_11
REMARK    5  A    between atoms: C_11  and  C_12
REMARK    6  A    between atoms: N_14  and  C_15
REMARK    7  A    between atoms: C_16  and  C_26
REMARK    8  A    between atoms: C_21  and  C_25
REMARK    9  A    between atoms: C_26  and  O_28
REMARK   10  A    between atoms: O_28  and  C_29
REMARK   11  A    between atoms: C_30  and  C_31
REMARK                            x       y       z     vdW  Elec       q    Type
REMARK                         _______ _______ _______ _____ _____    ______ ____
ROOT
ATOM      1  C   UNL     1       3.793  -3.867   3.446  0.00  0.00    +0.219 C 
ATOM      2  O   UNL     1       4.480  -2.884   3.626  0.00  0.00    -0.275 OA
ATOM      3  N   UNL     1       3.041  -3.968   2.332  0.00  0.00    -0.279 N 
ATOM      4  H   UNL     1       2.491  -4.754   2.188  0.00  0.00    +0.155 HD
ENDROOT
BRANCH   3   5
ATOM      5  C   UNL     1       3.052  -2.949   1.393  0.00  0.00    +0.086 A 
ATOM      6  C   UNL     1       2.353  -2.870   0.195  0.00  0.00    +0.091 A 
ATOM      7  C   UNL     1       2.544  -1.680  -0.616  0.00  0.00    -0.021 A 
ATOM      8  C   UNL     1       3.396  -0.766  -0.105  0.00  0.00    -0.004 A 
ATOM      9  S   UNL     1       3.943  -1.463   1.428  0.00  0.00    -0.077 S 
ATOM     10  C   UNL     1       3.786   0.546  -0.715  0.00  0.00    +0.046 C 
ATOM     11  C   UNL     1       3.361   0.539  -2.190  0.00  0.00    -0.009 C 
ATOM     12  C   UNL     1       1.914   0.047  -2.285  0.00  0.00    +0.008 C 
ATOM     13  C   UNL     1       1.849  -1.445  -1.952  0.00  0.00    +0.037 C 
ATOM     14  C   UNL     1       3.459   1.956  -2.759  0.00  0.00    +0.008 C 
BRANCH   6  15
ATOM     15  C   UNL     1       1.457  -3.946  -0.233  0.00  0.00    +0.342 C 
ATOM     16  O   UNL     1       1.886  -4.862  -0.910  0.00  0.00    -0.245 OA
BRANCH  15  17
ATOM     17  O   UNL     1       0.156  -3.923   0.123  0.00  0.00    -0.464 OA
ATOM     18  C   UNL     1      -0.673  -5.022  -0.337  0.00  0.00    +0.280 C 
ENDBRANCH  15  17
ENDBRANCH   6  15
ENDBRANCH   3   5
BRANCH   1  19
ATOM     19  C   UNL     1       3.780  -4.975   4.467  0.00  0.00    +0.120 C 
BRANCH  19  25
ATOM     20  N   UNL     1       8.299  -6.332   6.202  0.00  0.00    -0.263 NA
ATOM     21  C   UNL     1       7.082  -5.873   6.122  0.00  0.00    +0.159 C 
ATOM     22  N   UNL     1       5.966  -6.285   6.825  0.00  0.00    -0.250 N 
ATOM     23  C   UNL     1       4.778  -5.733   6.650  0.00  0.00    +0.235 C 
ATOM     24  O   UNL     1       3.801  -6.097   7.269  0.00  0.00    -0.274 OA
ATOM     25  C   UNL     1       4.712  -4.612   5.625  0.00  0.00    +0.149 C 
ATOM     26  S   UNL     1       6.464  -4.562   5.077  0.00  0.00    -0.077 S 
BRANCH  20  28
ATOM     27  C   UNL     1      10.090  -7.765   7.050  0.00  0.00    +0.029 C 
ATOM     28  C   UNL     1       8.579  -7.526   7.004  0.00  0.00    +0.141 C 
ENDBRANCH  20  28
BRANCH  22  29
ATOM     29  C   UNL     1       6.105  -7.371   7.798  0.00  0.00    +0.112 C 
ATOM     30  C   UNL     1       6.596  -6.803   9.130  0.00  0.00    +0.025 C 
ENDBRANCH  22  29
ENDBRANCH  19  25
ENDBRANCH   1  19
TORSDOF 7
