REMARK  Name = ZINC19234228
REMARK  7 active torsions:
REMARK  status: ('A' for Active; 'I' for Inactive)
REMARK    1  A    between atoms: C_1  and  C_2
REMARK    2  A    between atoms: C_7  and  C_15
REMARK    3  A    between atoms: C_13  and  C_14
REMARK    4  A    between atoms: C_15  and  C_17
REMARK    5  A    between atoms: C_15  and  N_30
REMARK    6  A    between atoms: N_21  and  C_22
REMARK    7  A    between atoms: C_22  and  C_23
REMARK                            x       y       z     vdW  Elec       q    Type
REMARK                         _______ _______ _______ _____ _____    ______ ____
ROOT
ATOM      1  C   UNL     1       2.685  -0.389   1.540  0.00  0.00    +0.163 C 
ENDROOT
BRANCH   1   8
ATOM      2  C   UNL     1       5.314   6.222   5.145  0.00  0.00    +0.044 C 
ATOM      3  C   UNL     1       4.853   5.090   4.264  0.00  0.00    -0.046 A 
ATOM      4  C   UNL     1       4.853   5.248   2.885  0.00  0.00    +0.004 A 
ATOM      5  C   UNL     1       4.439   4.234   2.069  0.00  0.00    +0.010 A 
ATOM      6  C   UNL     1       4.010   3.025   2.628  0.00  0.00    -0.001 A 
ATOM      7  C   UNL     1       3.560   1.918   1.783  0.00  0.00    +0.021 A 
ATOM      8  C   UNL     1       3.155   0.770   2.380  0.00  0.00    +0.042 A 
ATOM      9  C   UNL     1       3.167   0.659   3.787  0.00  0.00    +0.254 A 
ATOM     10  O   UNL     1       2.795  -0.380   4.304  0.00  0.00    -0.268 OA
ATOM     11  N   UNL     1       3.585   1.668   4.571  0.00  0.00    -0.322 N 
ATOM     12  H   UNL     1       3.591   1.549   5.665  0.00  0.00    +0.169 HD
ATOM     13  C   UNL     1       4.009   2.861   4.026  0.00  0.00    +0.052 A 
ATOM     14  C   UNL     1       4.436   3.908   4.837  0.00  0.00    -0.024 A 
ATOM     15  C   UNL     1       4.441   3.749   6.335  0.00  0.00    +0.046 C 
ENDBRANCH   1   8
BRANCH   1  16
ATOM     16  N   UNL     1       3.433  -1.598   1.910  0.00  0.00    -0.284 NA
ATOM     17  C   UNL     1       4.879  -1.402   1.721  0.00  0.00    +0.090 C 
ATOM     18  C   UNL     1       5.620  -2.522   2.452  0.00  0.00    +0.051 C 
ATOM     19  C   UNL     1       5.045  -3.860   2.061  0.00  0.00    -0.042 A 
ATOM     20  C   UNL     1       5.786  -5.001   2.327  0.00  0.00    +0.004 A 
ATOM     21  C   UNL     1       5.292  -6.247   1.993  0.00  0.00    +0.000 A 
ATOM     22  C   UNL     1       4.053  -6.356   1.389  0.00  0.00    +0.000 A 
ATOM     23  C   UNL     1       3.316  -5.220   1.122  0.00  0.00    +0.005 A 
ATOM     24  C   UNL     1       3.811  -3.968   1.456  0.00  0.00    -0.030 A 
ATOM     25  C   UNL     1       2.972  -2.758   1.140  0.00  0.00    +0.120 C 
ENDBRANCH   1  16
BRANCH   1  26
ATOM     26  C   UNL     1       1.214  -0.616   1.775  0.00  0.00    +0.173 A 
ATOM     27  N   UNL     1       0.651  -1.008   2.892  0.00  0.00    -0.111 NA
ATOM     28  N   UNL     1      -0.619  -1.089   2.691  0.00  0.00    -0.023 NA
ATOM     29  N   UNL     1      -0.881  -0.755   1.476  0.00  0.00    -0.044 NA
ATOM     30  N   UNL     1       0.222  -0.454   0.879  0.00  0.00    -0.223 N 
BRANCH  30  31
ATOM     31  C   UNL     1       0.369  -0.022  -0.513  0.00  0.00    +0.182 C 
BRANCH  31  32
ATOM     32  C   UNL     1       0.099   1.458  -0.611  0.00  0.00    -0.026 A 
ATOM     33  C   UNL     1      -1.201   1.918  -0.711  0.00  0.00    +0.008 A 
ATOM     34  C   UNL     1      -1.450   3.274  -0.796  0.00  0.00    +0.038 A 
ATOM     35  C   UNL     1      -0.396   4.173  -0.791  0.00  0.00    +0.123 A 
ATOM     36  C   UNL     1       0.906   3.711  -0.697  0.00  0.00    +0.038 A 
ATOM     37  C   UNL     1       1.152   2.354  -0.606  0.00  0.00    +0.008 A 
ATOM     38  F   UNL     1      -0.638   5.499  -0.879  0.00  0.00    -0.205 F 
ENDBRANCH  31  32
ENDBRANCH  30  31
ENDBRANCH   1  26
TORSDOF 5
