REMARK  Name = ZINC11843503
REMARK  9 active torsions:
REMARK  status: ('A' for Active; 'I' for Inactive)
REMARK    1  A    between atoms: C_1  and  C_2
REMARK    2  A    between atoms: C_2  and  C_3
REMARK    3  A    between atoms: C_2  and  C_4
REMARK    4  A    between atoms: C_7  and  C_9
REMARK    5  A    between atoms: C_9  and  N_58
REMARK    6  A    between atoms: C_13  and  C_16
REMARK    7  A    between atoms: C_16  and  N_17
REMARK    8  A    between atoms: N_17  and  S_18
REMARK    9  A    between atoms: S_18  and  C_21
REMARK                            x       y       z     vdW  Elec       q    Type
REMARK                         _______ _______ _______ _____ _____    ______ ____
ROOT
ATOM      1  C   UNL     1       1.494  -2.476  -0.229  0.00  0.00    -0.078 C 
ATOM      2  C   UNL     1       0.917  -2.039   1.120  0.00  0.00    -0.018 C 
ATOM      3  C   UNL     1       0.852  -0.510   1.171  0.00  0.00    +0.001 C 
ATOM      4  C   UNL     1       0.002  -0.004   0.002  0.00  0.00    -0.012 C 
ATOM      5  C   UNL     1       0.606  -0.500  -1.314  0.00  0.00    -0.074 C 
ATOM      6  N   UNL     1       0.618  -1.978  -1.310  0.00  0.00    +0.384 N 
ATOM      7  H   UNL     1      -0.337  -2.318  -1.147  0.00  0.00    -0.081 HD
ENDROOT
BRANCH   6   8
ATOM      8  C   UNL     1       1.091  -2.482  -2.615  0.00  0.00    -0.015 C 
BRANCH   8  12
ATOM      9  C   UNL     1      -0.184  -5.967  -3.042  0.00  0.00    +0.051 A 
ATOM     10  C   UNL     1       0.916  -6.621  -2.589  0.00  0.00    +0.070 A 
ATOM     11  S   UNL     1       1.980  -5.241  -2.197  0.00  0.00    -0.082 S 
ATOM     12  C   UNL     1       0.886  -3.975  -2.662  0.00  0.00    +0.062 A 
ATOM     13  N   UNL     1      -0.167  -4.651  -3.059  0.00  0.00    -0.251 NA
BRANCH   9  15
ATOM     14  C   UNL     1      -1.219  -7.127  -4.974  0.00  0.00    +0.014 C 
ATOM     15  C   UNL     1      -1.398  -6.729  -3.507  0.00  0.00    +0.032 C 
ATOM     16  C   UNL     1      -1.568  -7.989  -2.655  0.00  0.00    +0.014 C 
ENDBRANCH   9  15
ENDBRANCH   8  12
ENDBRANCH   6   8
BRANCH   4  17
ATOM     17  C   UNL     1      -0.019   1.526   0.010  0.00  0.00    +0.107 C 
BRANCH  17  18
ATOM     18  N   UNL     1      -0.704   1.998   1.216  0.00  0.00    -0.190 NA
ATOM     19  H   UNL     1      -1.243   1.385   1.739  0.00  0.00    +0.148 HD
BRANCH  18  20
ATOM     20  S   UNL     1      -0.559   3.580   1.685  0.00  0.00    +0.060 S 
ATOM     21  O   UNL     1      -1.350   3.730   2.856  0.00  0.00    -0.153 OA
ATOM     22  O   UNL     1       0.828   3.886   1.658  0.00  0.00    -0.153 OA
BRANCH  20  23
ATOM     23  C   UNL     1      -1.317   4.565   0.435  0.00  0.00    +0.131 A 
ATOM     24  C   UNL     1      -2.432   5.292   0.721  0.00  0.00    +0.031 A 
ATOM     25  C   UNL     1      -3.046   6.078  -0.252  0.00  0.00    +0.003 A 
ATOM     26  C   UNL     1      -2.547   6.140  -1.517  0.00  0.00    +0.010 A 
ATOM     27  C   UNL     1      -1.399   5.404  -1.847  0.00  0.00    +0.002 A 
ATOM     28  C   UNL     1      -0.768   4.608  -0.858  0.00  0.00    +0.097 A 
ATOM     29  N   UNL     1       0.329   3.910  -1.166  0.00  0.00    -0.253 NA
ATOM     30  C   UNL     1       0.845   3.947  -2.370  0.00  0.00    +0.111 A 
ATOM     31  C   UNL     1       0.278   4.713  -3.387  0.00  0.00    +0.020 A 
ATOM     32  C   UNL     1      -0.851   5.441  -3.144  0.00  0.00    +0.011 A 
ENDBRANCH  20  23
ENDBRANCH  18  20
ENDBRANCH  17  18
ENDBRANCH   4  17
TORSDOF 7
