REMARK  Name = ZINC37690913
REMARK  8 active torsions:
REMARK  status: ('A' for Active; 'I' for Inactive)
REMARK    1  A    between atoms: C_1  and  C_2
REMARK    2  A    between atoms: C_3  and  C_21
REMARK    3  A    between atoms: C_4  and  S_11
REMARK    4  A    between atoms: C_6  and  C_8
REMARK    5  A    between atoms: C_8  and  C_9
REMARK    6  A    between atoms: C_8  and  C_10
REMARK    7  A    between atoms: S_11  and  C_12
REMARK    8  A    between atoms: C_18  and  O_20
REMARK                            x       y       z     vdW  Elec       q    Type
REMARK                         _______ _______ _______ _____ _____    ______ ____
ROOT
ATOM      1  C   UNL     1       0.346   1.484  -0.036  0.00  0.00    +0.066 C 
ATOM      2  C   UNL     1       0.175  -0.013  -0.020  0.00  0.00    +0.057 A 
ATOM      3  C   UNL     1      -0.099  -0.709  -1.203  0.00  0.00    +0.116 A 
ATOM      4  C   UNL     1      -0.249  -2.112  -1.125  0.00  0.00    +0.115 A 
ATOM      5  N   UNL     1      -0.123  -2.704   0.060  0.00  0.00    -0.225 NA
ATOM      6  C   UNL     1       0.136  -2.000   1.141  0.00  0.00    +0.133 A 
ATOM      7  N   UNL     1       0.288  -0.689   1.110  0.00  0.00    -0.236 NA
ENDROOT
BRANCH   6   8
ATOM      8  C   UNL     1       0.269  -2.716   2.461  0.00  0.00    +0.051 C 
ATOM      9  C   UNL     1      -1.038  -3.445   2.779  0.00  0.00    +0.015 C 
ATOM     10  C   UNL     1       1.412  -3.729   2.378  0.00  0.00    +0.015 C 
ENDBRANCH   6   8
BRANCH   3  11
ATOM     11  C   UNL     1      -0.228  -0.003  -2.485  0.00  0.00    +0.391 C 
ATOM     12  O   UNL     1       0.766   0.225  -3.161  0.00  0.00    -0.240 OA
ATOM     13  O   UNL     1      -1.330   0.356  -2.878  0.00  0.00    -0.240 OA
ENDBRANCH   3  11
BRANCH   4  14
ATOM     14  S   UNL     1      -0.596  -3.060  -2.570  0.00  0.00    -0.099 S 
BRANCH  14  15
ATOM     15  C   UNL     1      -0.693  -4.766  -1.963  0.00  0.00    +0.081 C 
ATOM     16  C   UNL     1      -1.887  -4.903  -1.016  0.00  0.00    +0.017 C 
ATOM     17  C   UNL     1      -1.969  -6.342  -0.503  0.00  0.00    +0.001 C 
ATOM     18  C   UNL     1      -2.145  -7.295  -1.687  0.00  0.00    +0.003 C 
ATOM     19  C   UNL     1      -0.952  -7.159  -2.634  0.00  0.00    +0.032 C 
ATOM     20  C   UNL     1      -0.870  -5.719  -3.147  0.00  0.00    +0.128 C 
BRANCH  20  21
ATOM     21  O   UNL     1      -2.072  -5.393  -3.846  0.00  0.00    -0.391 OA
ATOM     22  H   UNL     1      -2.249  -5.958  -4.610  0.00  0.00    +0.210 HD
ENDBRANCH  20  21
ENDBRANCH  14  15
ENDBRANCH   4  14
TORSDOF 5
