REMARK  Name = ZINC04453554
REMARK  7 active torsions:
REMARK  status: ('A' for Active; 'I' for Inactive)
REMARK    1  A    between atoms: C_1  and  C_2
REMARK    2  A    between atoms: C_2  and  C_3
REMARK    3  A    between atoms: C_11  and  C_23
REMARK    4  A    between atoms: C_13  and  C_19
REMARK    5  A    between atoms: C_13  and  C_21
REMARK    6  A    between atoms: C_14  and  N_18
REMARK    7  A    between atoms: C_15  and  C_16
REMARK                            x       y       z     vdW  Elec       q    Type
REMARK                         _______ _______ _______ _____ _____    ______ ____
ROOT
ATOM      1  C   UNL     1       0.718  -0.497  -1.257  0.00  0.00    -0.007 C 
ATOM      2  C   UNL     1       2.196  -0.086  -1.206  0.00  0.00    +0.031 C 
ATOM      3  C   UNL     1       2.847  -0.560  -2.480  0.00  0.00    -0.021 C 
ATOM      4  C   UNL     1       2.448  -1.668  -3.072  0.00  0.00    -0.029 C 
ATOM      5  C   UNL     1       1.379  -2.568  -2.527  0.00  0.00    +0.031 C 
ATOM      6  C   UNL     1       0.645  -2.021  -1.327  0.00  0.00    +0.012 C 
ATOM      7  C   UNL     1       0.428  -2.931  -3.669  0.00  0.00    +0.073 C 
ATOM      8  C   UNL     1       1.203  -3.718  -4.726  0.00  0.00    +0.189 C 
ATOM      9  C   UNL     1       2.471  -3.022  -5.119  0.00  0.00    +0.054 C 
ATOM     10  C   UNL     1       3.074  -2.074  -4.358  0.00  0.00    +0.074 C 
ENDROOT
BRANCH   7  11
ATOM     11  C   UNL     1      -0.703  -3.773  -3.136  0.00  0.00    -0.004 A 
ATOM     12  C   UNL     1      -2.035  -3.525  -3.159  0.00  0.00    +0.011 A 
ATOM     13  C   UNL     1      -2.898  -4.452  -2.604  0.00  0.00    +0.008 A 
ATOM     14  C   UNL     1      -2.387  -5.580  -2.054  0.00  0.00    +0.045 A 
ATOM     15  S   UNL     1      -0.635  -5.359  -2.319  0.00  0.00    -0.101 S 
ENDBRANCH   7  11
BRANCH   9  16
ATOM     16  N   UNL     1       3.052  -3.361  -6.308  0.00  0.00    -0.358 N 
ATOM     17  H   UNL     1       2.643  -4.036  -6.873  0.00  0.00    +0.142 HD
ATOM     18  H   UNL     1       3.873  -2.927  -6.588  0.00  0.00    +0.142 HD
ENDBRANCH   9  16
BRANCH   1  20
ATOM     19  C   UNL     1      -0.019   1.526   0.010  0.00  0.00    +0.004 C 
ATOM     20  C   UNL     1       0.002  -0.004   0.002  0.00  0.00    +0.000 C 
ENDBRANCH   1  20
BRANCH  10  21
ATOM     21  C   UNL     1       4.298  -1.470  -4.790  0.00  0.00    +0.101 C 
ATOM     22  N   UNL     1       5.270  -0.991  -5.132  0.00  0.00    -0.191 NA
ENDBRANCH  10  21
BRANCH   8  23
ATOM     23  C   UNL     1       1.532  -5.048  -4.188  0.00  0.00    +0.091 C 
ATOM     24  N   UNL     1       1.786  -6.075  -3.773  0.00  0.00    -0.194 NA
ENDBRANCH   8  23
BRANCH   8  25
ATOM     25  C   UNL     1       0.356  -3.882  -5.919  0.00  0.00    +0.091 C 
ATOM     26  N   UNL     1      -0.298  -4.008  -6.840  0.00  0.00    -0.194 NA
ENDBRANCH   8  25
TORSDOF 6
