REMARK  Name = ZINC20907961
REMARK  7 active torsions:
REMARK  status: ('A' for Active; 'I' for Inactive)
REMARK    1  A    between atoms: C_1  and  C_2
REMARK    2  A    between atoms: C_5  and  C_8
REMARK    3  A    between atoms: N_9  and  N_10
REMARK    4  A    between atoms: C_13  and  S_16
REMARK    5  A    between atoms: S_16  and  C_17
REMARK    6  A    between atoms: C_17  and  C_18
REMARK    7  A    between atoms: C_21  and  N_24
REMARK                            x       y       z     vdW  Elec       q    Type
REMARK                         _______ _______ _______ _____ _____    ______ ____
ROOT
ATOM      1  N   UNL     1      -4.838   0.937   0.030  0.00  0.00    -0.205 N 
ATOM      2  C   UNL     1      -6.046   1.620   0.039  0.00  0.00    +0.232 A 
ATOM      3  N   UNL     1      -7.290   1.052   0.042  0.00  0.00    -0.186 NA
ATOM      4  C   UNL     1      -8.213   2.058   0.052  0.00  0.00    +0.210 A 
ATOM      5  N   UNL     1      -7.568   3.200   0.056  0.00  0.00    -0.144 NA
ATOM      6  N   UNL     1      -6.195   2.922   0.053  0.00  0.00    -0.245 N 
ATOM      7  H   UNL     1      -4.828  -0.163   0.024  0.00  0.00    +0.177 HD
ATOM      8  H   UNL     1      -5.311   3.577   0.060  0.00  0.00    +0.192 HD
ENDROOT
BRANCH   1  10
ATOM      9  C   UNL     1      -2.501   1.010   0.019  0.00  0.00    +0.138 C 
ATOM     10  N   UNL     1      -3.631   1.649   0.028  0.00  0.00    -0.188 NA
BRANCH   9  15
ATOM     11  C   UNL     1       2.452   3.933  -0.002  0.00  0.00    +0.044 C 
ATOM     12  C   UNL     1       1.155   3.167   0.008  0.00  0.00    -0.050 A 
ATOM     13  C   UNL     1       1.171   1.783   0.001  0.00  0.00    +0.004 A 
ATOM     14  C   UNL     1      -0.013   1.076   0.008  0.00  0.00    +0.010 A 
ATOM     15  C   UNL     1      -1.231   1.760   0.017  0.00  0.00    -0.005 A 
ATOM     16  C   UNL     1      -1.240   3.157   0.031  0.00  0.00    +0.010 A 
ATOM     17  C   UNL     1      -0.048   3.851   0.023  0.00  0.00    +0.004 A 
ENDBRANCH   9  15
ENDBRANCH   1  10
BRANCH   4  18
ATOM     18  S   UNL     1      -9.964   1.857   0.060  0.00  0.00    -0.080 S 
BRANCH  18  19
ATOM     19  C   UNL     1     -10.601   3.556   0.073  0.00  0.00    +0.112 C 
BRANCH  19  20
ATOM     20  C   UNL     1     -12.107   3.527   0.080  0.00  0.00    -0.037 A 
ATOM     21  C   UNL     1     -12.804   3.527  -1.114  0.00  0.00    +0.007 A 
ATOM     22  C   UNL     1     -14.186   3.497  -1.107  0.00  0.00    +0.033 A 
ATOM     23  C   UNL     1     -14.871   3.477   0.093  0.00  0.00    +0.126 A 
ATOM     24  C   UNL     1     -14.175   3.482   1.287  0.00  0.00    +0.033 A 
ATOM     25  C   UNL     1     -12.793   3.508   1.280  0.00  0.00    +0.007 A 
BRANCH  23  26
ATOM     26  N   UNL     1     -16.351   3.449   0.100  0.00  0.00    +0.056 N 
ATOM     27  O   UNL     1     -16.955   3.430   1.158  0.00  0.00    -0.126 OA
ATOM     28  O   UNL     1     -16.965   3.444  -0.952  0.00  0.00    -0.126 OA
ENDBRANCH  23  26
ENDBRANCH  19  20
ENDBRANCH  18  19
ENDBRANCH   4  18
TORSDOF 6
