REMARK  Name = ZINC11073909
REMARK  9 active torsions:
REMARK  status: ('A' for Active; 'I' for Inactive)
REMARK    1  A    between atoms: C_1  and  C_2
REMARK    2  A    between atoms: C_5  and  N_9
REMARK    3  A    between atoms: C_10  and  C_12
REMARK    4  A    between atoms: C_12  and  C_14
REMARK    5  A    between atoms: C_12  and  N_58
REMARK    6  A    between atoms: C_15  and  N_58
REMARK    7  A    between atoms: C_16  and  C_17
REMARK    8  A    between atoms: C_16  and  N_58
REMARK    9  A    between atoms: C_30  and  C_32
REMARK                            x       y       z     vdW  Elec       q    Type
REMARK                         _______ _______ _______ _____ _____    ______ ____
ROOT
ATOM      1  C   UNL     1       0.142   4.128  -2.425  0.00  0.00    +0.020 C 
ENDROOT
BRANCH   1   2
ATOM      2  C   UNL     1       0.502   5.176  -1.405  0.00  0.00    +0.204 C 
ATOM      3  O   UNL     1       0.505   6.349  -1.714  0.00  0.00    -0.277 OA
ATOM      4  N   UNL     1       0.822   4.810  -0.147  0.00  0.00    -0.268 N 
ATOM      5  C   UNL     1       0.822   3.459   0.224  0.00  0.00    +0.058 A 
ATOM      6  C   UNL     1      -0.369   2.772   0.390  0.00  0.00    +0.025 A 
ATOM      7  C   UNL     1      -0.351   1.454   0.806  0.00  0.00    +0.002 A 
ATOM      8  C   UNL     1       0.852   0.818   1.053  0.00  0.00    +0.002 A 
ATOM      9  C   UNL     1       2.046   1.493   0.876  0.00  0.00    +0.025 A 
ATOM     10  C   UNL     1       2.036   2.812   0.455  0.00  0.00    +0.055 A 
ATOM     11  N   UNL     1       3.232   3.506   0.241  0.00  0.00    -0.284 N 
ATOM     12  C   UNL     1       3.413   4.738   0.764  0.00  0.00    +0.219 C 
ATOM     13  O   UNL     1       4.418   5.364   0.500  0.00  0.00    -0.275 OA
ATOM     14  C   UNL     1       2.374   5.340   1.673  0.00  0.00    +0.118 C 
ATOM     15  C   UNL     1       1.174   5.818   0.855  0.00  0.00    +0.087 C 
ATOM     16  C   UNL     1      -0.019   6.045   1.787  0.00  0.00    +0.029 C 
ATOM     17  H   UNL     1       3.937   3.100  -0.288  0.00  0.00    +0.155 HD
ENDBRANCH   1   2
BRANCH   1  19
ATOM     18  C   UNL     1       1.033   5.418  -4.271  0.00  0.00    -0.094 C 
ATOM     19  N   UNL     1      -0.183   4.798  -3.703  0.00  0.00    +0.391 N 
ATOM     20  H   UNL     1      -0.880   5.531  -3.527  0.00  0.00    -0.080 HD
BRANCH  19  21
ATOM     21  C   UNL     1      -0.745   3.820  -4.657  0.00  0.00    +0.017 C 
ATOM     22  C   UNL     1       0.098   2.543  -4.676  0.00  0.00    -0.004 C 
BRANCH  21  24
ATOM     23  N   UNL     1      -2.973   2.833  -5.083  0.00  0.00    -0.287 N 
ATOM     24  C   UNL     1      -2.153   3.486  -4.236  0.00  0.00    +0.203 C 
ATOM     25  O   UNL     1      -2.548   3.805  -3.135  0.00  0.00    -0.277 OA
ATOM     26  H   UNL     1      -2.679   2.633  -5.985  0.00  0.00    +0.155 HD
BRANCH  23  31
ATOM     27  C   UNL     1      -8.147   1.249  -3.373  0.00  0.00    +0.047 C 
ATOM     28  C   UNL     1      -6.773   1.670  -3.827  0.00  0.00    -0.015 A 
ATOM     29  C   UNL     1      -6.055   0.866  -4.693  0.00  0.00    +0.008 A 
ATOM     30  C   UNL     1      -4.798   1.252  -5.115  0.00  0.00    +0.024 A 
ATOM     31  C   UNL     1      -4.248   2.443  -4.660  0.00  0.00    +0.036 A 
ATOM     32  C   UNL     1      -4.969   3.250  -3.791  0.00  0.00    +0.062 A 
ATOM     33  C   UNL     1      -6.231   2.862  -3.375  0.00  0.00    +0.128 A 
ATOM     34  F   UNL     1      -6.934   3.646  -2.529  0.00  0.00    -0.205 F 
ENDBRANCH  23  31
ENDBRANCH  21  24
ENDBRANCH  19  21
ENDBRANCH   1  19
TORSDOF 5
