REMARK  Name = ZINC39451147
REMARK  3 active torsions:
REMARK  status: ('A' for Active; 'I' for Inactive)
REMARK    1  A    between atoms: C_4  and  S_7
REMARK    2  A    between atoms: S_7  and  N_10
REMARK    3  A    between atoms: C_18  and  O_21
REMARK                            x       y       z     vdW  Elec       q    Type
REMARK                         _______ _______ _______ _____ _____    ______ ____
ROOT
ATOM      1  N   UNL     1       4.378  -1.079   1.536  0.00  0.00    -0.170 N 
ATOM      2  C   UNL     1       5.233  -0.167   2.144  0.00  0.00    +0.134 A 
ATOM      3  C   UNL     1       5.634  -0.336   3.456  0.00  0.00    +0.084 A 
ATOM      4  C   UNL     1       5.145  -1.487   4.226  0.00  0.00    +0.099 A 
ATOM      5  C   UNL     1       4.276  -2.397   3.586  0.00  0.00    +0.072 A 
ATOM      6  C   UNL     1       3.894  -2.152   2.187  0.00  0.00    +0.281 A 
ATOM      7  O   UNL     1       3.143  -2.922   1.617  0.00  0.00    -0.265 OA
ATOM      8  C   UNL     1       3.799  -3.499   4.294  0.00  0.00    +0.062 A 
ATOM      9  C   UNL     1       4.206  -3.651   5.614  0.00  0.00    +0.136 A 
ATOM     10  C   UNL     1       5.066  -2.711   6.178  0.00  0.00    +0.156 A 
ATOM     11  N   UNL     1       5.503  -1.679   5.490  0.00  0.00    -0.249 NA
ATOM     12  N   UNL     1       6.497   0.575   4.035  0.00  0.00    -0.324 N 
ATOM     13  C   UNL     1       7.409   1.325   3.159  0.00  0.00    +0.171 C 
ATOM     14  C   UNL     1       6.578   1.981   2.051  0.00  0.00    +0.120 C 
ATOM     15  C   UNL     1       5.699   0.943   1.405  0.00  0.00    +0.186 C 
ATOM     16  O   UNL     1       5.387   1.062   0.237  0.00  0.00    -0.290 OA
ATOM     17 CL   UNL     1       8.615   0.200   2.431  0.00  0.00    -0.101 Cl
ATOM     18  H   UNL     1       6.501   0.715   4.995  0.00  0.00    +0.148 HD
ENDROOT
BRANCH   1  19
ATOM     19  S   UNL     1       3.934  -0.832  -0.041  0.00  0.00    +0.087 S 
ATOM     20  O   UNL     1       3.756   0.569  -0.198  0.00  0.00    -0.148 OA
ATOM     21  O   UNL     1       2.902  -1.767  -0.323  0.00  0.00    -0.148 OA
BRANCH  19  25
ATOM     22  C   UNL     1       7.467  -1.984  -2.625  0.00  0.00    +0.000 A 
ATOM     23  C   UNL     1       6.518  -2.931  -2.289  0.00  0.00    +0.002 A 
ATOM     24  C   UNL     1       5.439  -2.579  -1.500  0.00  0.00    +0.029 A 
ATOM     25  C   UNL     1       5.309  -1.280  -1.046  0.00  0.00    +0.111 A 
ATOM     26  C   UNL     1       6.259  -0.333  -1.380  0.00  0.00    +0.029 A 
ATOM     27  C   UNL     1       7.338  -0.685  -2.170  0.00  0.00    +0.002 A 
ENDBRANCH  19  25
ENDBRANCH   1  19
BRANCH   9  28
ATOM     28  O   UNL     1       3.769  -4.707   6.348  0.00  0.00    -0.505 OA
ATOM     29  H   UNL     1       4.338  -5.487   6.291  0.00  0.00    +0.292 HD
ENDBRANCH   9  28
TORSDOF 3
