REMARK  Name = ZINC33033747
REMARK  10 active torsions:
REMARK  status: ('A' for Active; 'I' for Inactive)
REMARK    1  A    between atoms: C_1  and  C_2
REMARK    2  A    between atoms: C_5  and  S_8
REMARK    3  A    between atoms: S_8  and  N_11
REMARK    4  A    between atoms: N_11  and  C_12
REMARK    5  A    between atoms: C_14  and  C_24
REMARK    6  A    between atoms: C_17  and  N_18
REMARK    7  A    between atoms: N_26  and  C_27
REMARK    8  A    between atoms: C_27  and  C_28
REMARK    9  A    between atoms: C_28  and  C_29
REMARK   10  A    between atoms: C_29  and  N_30
REMARK                            x       y       z     vdW  Elec       q    Type
REMARK                         _______ _______ _______ _____ _____    ______ ____
ROOT
ATOM      1  C   UNL     1      -4.782   0.864  -0.242  0.00  0.00    +0.070 A 
ATOM      2  C   UNL     1      -3.474   1.307  -0.181  0.00  0.00    +0.039 A 
ATOM      3  C   UNL     1      -2.443   0.398   0.073  0.00  0.00    +0.039 A 
ATOM      4  C   UNL     1      -2.737  -0.955   0.260  0.00  0.00    +0.015 A 
ATOM      5  C   UNL     1      -4.043  -1.391   0.204  0.00  0.00    +0.026 A 
ATOM      6  C   UNL     1      -5.070  -0.490  -0.049  0.00  0.00    +0.052 A 
ENDROOT
BRANCH   6   7
ATOM      7  N   UNL     1      -6.388  -0.936  -0.110  0.00  0.00    -0.332 N 
ATOM      8  C   UNL     1      -6.447  -2.404  -0.130  0.00  0.00    +0.086 C 
ATOM      9  C   UNL     1      -7.903  -2.852  -0.278  0.00  0.00    -0.063 C 
ATOM     10  N   UNL     1      -8.694  -2.312   0.836  0.00  0.00    +0.381 N 
ATOM     11  C   UNL     1      -8.636  -0.844   0.857  0.00  0.00    -0.063 C 
ATOM     12  C   UNL     1      -7.180  -0.396   1.004  0.00  0.00    +0.086 C 
ATOM     13  H   UNL     1      -9.743  -2.623   0.726  0.00  0.00    -0.086 HD
ATOM     14  H   UNL     1      -8.297  -2.695   1.788  0.00  0.00    -0.086 HD
ENDBRANCH   6   7
BRANCH   3  15
ATOM     15  C   UNL     1      -1.045   0.866   0.139  0.00  0.00    +0.244 C 
ATOM     16  O   UNL     1      -0.790   2.043  -0.028  0.00  0.00    -0.270 OA
ATOM     17  N   UNL     1      -0.052  -0.011   0.385  0.00  0.00    -0.311 N 
ATOM     18  H   UNL     1      -0.284  -1.075   0.541  0.00  0.00    +0.149 HD
BRANCH  17  19
ATOM     19  C   UNL     1       1.336   0.452   0.444  0.00  0.00    +0.106 C 
BRANCH  19  20
ATOM     20  C   UNL     1       2.259  -0.735   0.728  0.00  0.00    +0.038 C 
BRANCH  20  21
ATOM     21  C   UNL     1       3.709  -0.251   0.790  0.00  0.00    +0.109 C 
BRANCH  21  22
ATOM     22  N   UNL     1       4.592  -1.387   1.062  0.00  0.00    -0.301 N 
ATOM     23  C   UNL     1       4.980  -1.832   2.406  0.00  0.00    +0.108 C 
ATOM     24  C   UNL     1       5.523  -3.268   2.222  0.00  0.00    +0.028 C 
ATOM     25  C   UNL     1       5.996  -3.238   0.750  0.00  0.00    +0.097 C 
ATOM     26  C   UNL     1       5.156  -2.154   0.113  0.00  0.00    +0.216 C 
ATOM     27  O   UNL     1       5.012  -1.998  -1.082  0.00  0.00    -0.276 OA
ENDBRANCH  21  22
ENDBRANCH  20  21
ENDBRANCH  19  20
ENDBRANCH  17  19
ENDBRANCH   3  15
BRANCH   1  28
ATOM     28  N   UNL     1      -5.818   1.772  -0.497  0.00  0.00    -0.214 N 
ATOM     29  H   UNL     1      -6.395   2.196   0.338  0.00  0.00    +0.174 HD
BRANCH  28  30
ATOM     30  S   UNL     1      -6.174   2.206  -2.055  0.00  0.00    +0.072 S 
ATOM     31  O   UNL     1      -7.271   3.107  -1.985  0.00  0.00    -0.150 OA
ATOM     32  O   UNL     1      -4.941   2.552  -2.672  0.00  0.00    -0.150 OA
BRANCH  30  37
ATOM     33  C   UNL     1      -8.182  -2.738  -4.871  0.00  0.00    +0.044 C 
ATOM     34  C   UNL     1      -7.680  -1.503  -4.168  0.00  0.00    -0.050 A 
ATOM     35  C   UNL     1      -8.570  -0.671  -3.514  0.00  0.00    +0.005 A 
ATOM     36  C   UNL     1      -8.110   0.462  -2.869  0.00  0.00    +0.029 A 
ATOM     37  C   UNL     1      -6.760   0.762  -2.877  0.00  0.00    +0.109 A 
ATOM     38  C   UNL     1      -5.872  -0.068  -3.534  0.00  0.00    +0.029 A 
ATOM     39  C   UNL     1      -6.331  -1.203  -4.176  0.00  0.00    +0.005 A 
ENDBRANCH  30  37
ENDBRANCH  28  30
ENDBRANCH   1  28
TORSDOF 9
