REMARK  Name = ZINC62833871
REMARK  6 active torsions:
REMARK  status: ('A' for Active; 'I' for Inactive)
REMARK    1  A    between atoms: C_1  and  C_2
REMARK    2  A    between atoms: C_3  and  C_7
REMARK    3  A    between atoms: C_7  and  N_8
REMARK    4  A    between atoms: N_8  and  C_9
REMARK    5  A    between atoms: C_10  and  C_12
REMARK    6  A    between atoms: C_18  and  N_22
REMARK                            x       y       z     vdW  Elec       q    Type
REMARK                         _______ _______ _______ _____ _____    ______ ____
ROOT
ATOM      1  C   UNL     1      -4.103   1.227  -2.648  0.00  0.00    +0.103 A 
ATOM      2  C   UNL     1      -4.249   2.381  -3.349  0.00  0.00    +0.041 A 
ATOM      3  C   UNL     1      -5.251   2.169  -4.327  0.00  0.00    +0.002 A 
ATOM      4  C   UNL     1      -5.816   2.984  -5.319  0.00  0.00    +0.010 A 
ATOM      5  C   UNL     1      -6.792   2.488  -6.134  0.00  0.00    +0.002 A 
ATOM      6  C   UNL     1      -7.235   1.179  -5.994  0.00  0.00    +0.025 A 
ATOM      7  C   UNL     1      -6.696   0.354  -5.024  0.00  0.00    +0.049 A 
ATOM      8  C   UNL     1      -5.694   0.842  -4.178  0.00  0.00    +0.068 A 
ATOM      9  N   UNL     1      -4.976   0.281  -3.148  0.00  0.00    -0.349 N 
ATOM     10  H   UNL     1      -5.068  -0.629  -2.825  0.00  0.00    +0.166 HD
ENDROOT
BRANCH   1  13
ATOM     11  N   UNL     1      -2.999  -0.215  -1.016  0.00  0.00    -0.295 N 
ATOM     12  C   UNL     1      -3.673  -1.364  -1.627  0.00  0.00    +0.132 C 
ATOM     13  C   UNL     1      -3.162   1.017  -1.537  0.00  0.00    +0.263 C 
ATOM     14  O   UNL     1      -2.531   1.955  -1.089  0.00  0.00    -0.268 OA
BRANCH  11  15
ATOM     15  C   UNL     1      -2.148  -0.406   0.161  0.00  0.00    +0.146 C 
BRANCH  15  18
ATOM     16  C   UNL     1       0.244   1.383  -0.753  0.00  0.00    +0.086 C 
ATOM     17  C   UNL     1       0.245  -0.122  -0.669  0.00  0.00    +0.106 A 
ATOM     18  C   UNL     1      -0.789  -0.888  -0.275  0.00  0.00    +0.010 A 
ATOM     19  C   UNL     1      -0.354  -2.231  -0.347  0.00  0.00    +0.046 A 
ATOM     20  C   UNL     1       0.919  -2.206  -0.781  0.00  0.00    +0.195 A 
ATOM     21  O   UNL     1       1.274  -0.926  -0.980  0.00  0.00    -0.468 OA
ENDBRANCH  15  18
ENDBRANCH  11  15
ENDBRANCH   1  13
BRANCH   7  22
ATOM     22  N   UNL     1      -7.150  -0.962  -4.889  0.00  0.00    -0.356 N 
ATOM     23  H   UNL     1      -7.844  -1.298  -5.477  0.00  0.00    +0.142 HD
ATOM     24  H   UNL     1      -6.770  -1.538  -4.208  0.00  0.00    +0.142 HD
ENDBRANCH   7  22
TORSDOF 4
