REMARK  Name = ZINC21265653
REMARK  7 active torsions:
REMARK  status: ('A' for Active; 'I' for Inactive)
REMARK    1  A    between atoms: C_1  and  C_2
REMARK    2  A    between atoms: C_6  and  N_8
REMARK    3  A    between atoms: C_9  and  C_11
REMARK    4  A    between atoms: C_11  and  N_12
REMARK    5  A    between atoms: N_12  and  C_13
REMARK    6  A    between atoms: C_13  and  C_14
REMARK    7  A    between atoms: C_14  and  C_15
REMARK                            x       y       z     vdW  Elec       q    Type
REMARK                         _______ _______ _______ _____ _____    ______ ____
ROOT
ATOM      1  N   UNL     1       3.674   6.179   0.312  0.00  0.00    +0.385 N 
ATOM      2  H   UNL     1       4.168   5.747   1.195  0.00  0.00    -0.085 HD
ATOM      3  H   UNL     1       4.228   5.893  -0.595  0.00  0.00    -0.085 HD
ENDROOT
BRANCH   1   4
ATOM      4  C   UNL     1       2.297   5.675   0.225  0.00  0.00    +0.015 C 
BRANCH   4   6
ATOM      5  N   UNL     1       1.163   3.487   0.009  0.00  0.00    -0.286 N 
ATOM      6  C   UNL     1       2.320   4.173   0.104  0.00  0.00    +0.200 C 
ATOM      7  O   UNL     1       3.378   3.581   0.091  0.00  0.00    -0.278 OA
ATOM      8  H   UNL     1       0.209   4.027  -0.071  0.00  0.00    +0.155 HD
BRANCH   5  14
ATOM      9  C   UNL     1       3.383  -0.720   1.254  0.00  0.00    +0.044 C 
ATOM     10  C   UNL     1       2.241   0.022   0.610  0.00  0.00    -0.049 A 
ATOM     11  C   UNL     1       1.206  -0.680   0.020  0.00  0.00    +0.005 A 
ATOM     12  C   UNL     1       0.156  -0.003  -0.573  0.00  0.00    +0.022 A 
ATOM     13  C   UNL     1       0.139   1.379  -0.579  0.00  0.00    +0.062 A 
ATOM     14  C   UNL     1       1.177   2.087   0.013  0.00  0.00    +0.052 A 
ATOM     15  C   UNL     1       2.229   1.403   0.608  0.00  0.00    +0.028 A 
ATOM     16 CL   UNL     1      -1.175   2.228  -1.331  0.00  0.00    -0.082 Cl
ENDBRANCH   5  14
ENDBRANCH   4   6
ENDBRANCH   1   4
BRANCH   1  17
ATOM     17  C   UNL     1       3.692   7.643   0.431  0.00  0.00    -0.077 C 
BRANCH  17  18
ATOM     18  C   UNL     1       5.139   8.131   0.519  0.00  0.00    +0.018 C 
BRANCH  18  19
ATOM     19  C   UNL     1       5.157   9.633   0.642  0.00  0.00    -0.024 A 
ATOM     20  C   UNL     1       5.296  10.514  -0.361  0.00  0.00    +0.087 A 
ATOM     21  N   UNL     1       5.264  11.790   0.132  0.00  0.00    -0.360 N 
ATOM     22  H   UNL     1       5.364  12.646  -0.552  0.00  0.00    +0.165 HD
ATOM     23  C   UNL     1       5.100  11.760   1.499  0.00  0.00    +0.047 A 
ATOM     24  C   UNL     1       5.020  10.408   1.878  0.00  0.00    +0.004 A 
ATOM     25  C   UNL     1       4.857  10.068   3.222  0.00  0.00    +0.030 A 
ATOM     26  C   UNL     1       4.765  11.064   4.170  0.00  0.00    +0.042 A 
ATOM     27  C   UNL     1       4.838  12.399   3.794  0.00  0.00    +0.022 A 
ATOM     28  C   UNL     1       5.004  12.749   2.472  0.00  0.00    +0.027 A 
ATOM     29 CL   UNL     1       4.555  10.648   5.842  0.00  0.00    -0.084 Cl
ENDBRANCH  18  19
ENDBRANCH  17  18
ENDBRANCH   1  17
TORSDOF 6
