REMARK  Name = ZINC58615192
REMARK  8 active torsions:
REMARK  status: ('A' for Active; 'I' for Inactive)
REMARK    1  A    between atoms: C_1  and  C_2
REMARK    2  A    between atoms: C_4  and  C_24
REMARK    3  A    between atoms: C_5  and  C_9
REMARK    4  A    between atoms: C_6  and  C_8
REMARK    5  A    between atoms: C_9  and  O_11
REMARK    6  A    between atoms: O_11  and  C_12
REMARK    7  A    between atoms: C_12  and  C_14
REMARK    8  A    between atoms: C_12  and  C_15
REMARK                            x       y       z     vdW  Elec       q    Type
REMARK                         _______ _______ _______ _____ _____    ______ ____
ROOT
ATOM      1  O   UNL     1      -0.956  -4.973  -0.369  0.00  0.00    -0.449 OA
ENDROOT
BRANCH   1   2
ATOM      2  C   UNL     1       0.256  -4.385  -0.363  0.00  0.00    +0.340 C 
ATOM      3  O   UNL     1       1.243  -5.031  -0.071  0.00  0.00    -0.245 OA
BRANCH   2   8
ATOM      4  C   UNL     1       0.760   1.184  -1.719  0.00  0.00    +0.044 C 
ATOM      5  C   UNL     1       0.628  -0.275  -1.363  0.00  0.00    -0.050 A 
ATOM      6  C   UNL     1       0.716  -1.236  -2.355  0.00  0.00    +0.007 A 
ATOM      7  C   UNL     1       0.597  -2.573  -2.037  0.00  0.00    -0.036 A 
ATOM      8  C   UNL     1       0.386  -2.955  -0.711  0.00  0.00    +0.065 A 
ATOM      9  C   UNL     1       0.298  -1.980   0.285  0.00  0.00    -0.036 A 
ATOM     10  C   UNL     1       0.425  -0.647  -0.046  0.00  0.00    +0.007 A 
ATOM     11  C   UNL     1       0.070  -2.384   1.719  0.00  0.00    +0.044 C 
ATOM     12  C   UNL     1       0.692  -3.618  -3.119  0.00  0.00    +0.044 C 
ENDBRANCH   2   8
ENDBRANCH   1   2
BRANCH   1  13
ATOM     13  C   UNL     1      -1.007  -6.358  -0.022  0.00  0.00    +0.259 C 
ATOM     14  C   UNL     1      -1.204  -6.498   1.489  0.00  0.00    +0.062 C 
BRANCH  13  15
ATOM     15  C   UNL     1      -2.158  -7.013  -0.741  0.00  0.00    +0.256 C 
ATOM     16  O   UNL     1      -2.995  -6.332  -1.294  0.00  0.00    -0.272 OA
ATOM     17  N   UNL     1      -2.257  -8.357  -0.770  0.00  0.00    -0.298 N 
ATOM     18  C   UNL     1      -3.309  -8.958  -1.559  0.00  0.00    +0.108 C 
ATOM     19  C   UNL     1      -4.582  -9.116  -0.692  0.00  0.00    +0.019 C 
ATOM     20  C   UNL     1      -4.390 -10.176   0.309  0.00  0.00    +0.002 C 
ATOM     21  C   UNL     1      -3.280  -9.895   1.317  0.00  0.00    +0.002 C 
ATOM     22  C   UNL     1      -1.957 -10.331   0.739  0.00  0.00    +0.019 C 
ATOM     23  C   UNL     1      -1.283  -9.155   0.001  0.00  0.00    +0.108 C 
ENDBRANCH  13  15
ENDBRANCH   1  13
TORSDOF 4
