REMARK  Name = ZINC04436180
REMARK  5 active torsions:
REMARK  status: ('A' for Active; 'I' for Inactive)
REMARK    1  A    between atoms: C_1  and  C_2
REMARK    2  A    between atoms: C_2  and  S_3
REMARK    3  A    between atoms: S_3  and  C_4
REMARK    4  A    between atoms: C_9  and  C_19
REMARK    5  A    between atoms: C_24  and  C_25
REMARK                            x       y       z     vdW  Elec       q    Type
REMARK                         _______ _______ _______ _____ _____    ______ ____
ROOT
ATOM      1  C   UNL     1      -1.058  -3.036  -0.473  0.00  0.00    +0.210 A 
ATOM      2  N   UNL     1       0.015  -3.839  -0.412  0.00  0.00    -0.187 NA
ATOM      3  C   UNL     1      -0.374  -5.076  -0.265  0.00  0.00    +0.219 A 
ATOM      4  N   UNL     1      -1.729  -5.090  -0.222  0.00  0.00    -0.220 N 
ATOM      5  N   UNL     1      -2.147  -3.766  -0.356  0.00  0.00    -0.141 NA
ATOM      6  C   UNL     1      -2.514  -6.306  -0.054  0.00  0.00    +0.176 C 
ATOM      7  C   UNL     1      -1.641  -7.521  -0.280  0.00  0.00    +0.041 C 
ATOM      8  C   UNL     1      -0.294  -7.439  -0.322  0.00  0.00    +0.020 C 
ATOM      9  N   UNL     1       0.364  -6.244  -0.162  0.00  0.00    -0.287 N 
ATOM     10  C   UNL     1       0.551  -8.669  -0.556  0.00  0.00    +0.052 C 
ATOM     11  C   UNL     1      -0.154  -9.897   0.023  0.00  0.00    +0.014 C 
ATOM     12  C   UNL     1      -1.523 -10.030  -0.652  0.00  0.00    +0.080 C 
ATOM     13  C   UNL     1      -2.295  -8.756  -0.445  0.00  0.00    +0.163 C 
ATOM     14  O   UNL     1      -3.509  -8.794  -0.420  0.00  0.00    -0.292 OA
ATOM     15  H   UNL     1       1.317  -6.218   0.017  0.00  0.00    +0.155 HD
ENDROOT
BRANCH   6  16
ATOM     16  C   UNL     1      -3.076  -6.350   1.344  0.00  0.00    -0.016 A 
ATOM     17  C   UNL     1      -2.225  -6.468   2.427  0.00  0.00    +0.006 A 
ATOM     18  C   UNL     1      -2.740  -6.508   3.709  0.00  0.00    +0.000 A 
ATOM     19  C   UNL     1      -4.106  -6.429   3.908  0.00  0.00    +0.000 A 
ATOM     20  C   UNL     1      -4.956  -6.310   2.825  0.00  0.00    +0.004 A 
ATOM     21  C   UNL     1      -4.441  -6.266   1.543  0.00  0.00    -0.045 A 
ATOM     22  C   UNL     1      -5.368  -6.131   0.362  0.00  0.00    +0.044 C 
ENDBRANCH   6  16
BRANCH   1  23
ATOM     23  S   UNL     1      -1.016  -1.286  -0.671  0.00  0.00    -0.085 S 
BRANCH  23  25
ATOM     24  C   UNL     1       0.935   0.611  -0.947  0.00  0.00    +0.016 C 
ATOM     25  C   UNL     1       0.753  -0.898  -0.771  0.00  0.00    +0.074 C 
ENDBRANCH  23  25
ENDBRANCH   1  23
TORSDOF 3
