REMARK  Name = ZINC08635407
REMARK  9 active torsions:
REMARK  status: ('A' for Active; 'I' for Inactive)
REMARK    1  A    between atoms: C_1  and  C_2
REMARK    2  A    between atoms: N_4  and  C_5
REMARK    3  A    between atoms: C_8  and  S_11
REMARK    4  A    between atoms: S_11  and  N_14
REMARK    5  A    between atoms: N_14  and  C_15
REMARK    6  A    between atoms: C_15  and  C_16
REMARK    7  A    between atoms: C_24  and  C_26
REMARK    8  A    between atoms: C_28  and  C_32
REMARK    9  A    between atoms: N_30  and  C_31
REMARK                            x       y       z     vdW  Elec       q    Type
REMARK                         _______ _______ _______ _____ _____    ______ ____
ROOT
ATOM      1  C   UNL     1      -4.749   6.848   3.876  0.00  0.00    -0.053 C 
ATOM      2  C   UNL     1      -4.115   8.203   4.205  0.00  0.00    -0.010 C 
ATOM      3  C   UNL     1      -5.097   9.316   3.813  0.00  0.00    -0.007 C 
ATOM      4  C   UNL     1      -6.402   9.113   4.594  0.00  0.00    -0.015 C 
ATOM      5  C   UNL     1      -6.972   7.733   4.254  0.00  0.00    -0.078 C 
ATOM      6  C   UNL     1      -5.998   7.814   2.039  0.00  0.00    -0.068 C 
ATOM      7  C   UNL     1      -5.403   9.217   2.314  0.00  0.00    +0.024 C 
ATOM      8  N   UNL     1      -6.094   7.035   3.291  0.00  0.00    +0.383 N 
ATOM      9  H   UNL     1      -6.496   6.114   3.081  0.00  0.00    -0.081 HD
ENDROOT
BRANCH   7  10
ATOM     10  C   UNL     1      -4.129   9.381   1.526  0.00  0.00    +0.041 A 
ATOM     11  C   UNL     1      -3.587   8.467   0.693  0.00  0.00    +0.056 A 
ATOM     12  C   UNL     1      -2.403   9.018   0.159  0.00  0.00    +0.128 A 
ATOM     13  N   UNL     1      -2.249  10.221   0.673  0.00  0.00    -0.168 NA
ATOM     14  N   UNL     1      -3.325  10.467   1.535  0.00  0.00    -0.270 N 
ATOM     15  C   UNL     1      -3.541  11.690   2.312  0.00  0.00    +0.172 C 
BRANCH  12  16
ATOM     16  C   UNL     1      -1.494   8.359  -0.803  0.00  0.00    +0.155 A 
ATOM     17  C   UNL     1      -0.354   8.891  -1.316  0.00  0.00    +0.051 A 
ATOM     18  C   UNL     1       0.193   7.923  -2.183  0.00  0.00    +0.042 A 
ATOM     19  C   UNL     1      -0.637   6.862  -2.163  0.00  0.00    +0.196 A 
ATOM     20  O   UNL     1      -1.655   7.129  -1.328  0.00  0.00    -0.461 OA
ENDBRANCH  12  16
ENDBRANCH   7  10
BRANCH   1  21
ATOM     21  C   UNL     1      -3.869   6.104   2.870  0.00  0.00    +0.090 C 
BRANCH  21  22
ATOM     22  N   UNL     1      -4.530   4.860   2.469  0.00  0.00    -0.191 NA
ATOM     23  H   UNL     1      -5.276   4.518   2.987  0.00  0.00    +0.148 HD
BRANCH  22  24
ATOM     24  S   UNL     1      -4.005   4.037   1.131  0.00  0.00    +0.058 S 
ATOM     25  O   UNL     1      -3.896   4.991   0.084  0.00  0.00    -0.153 OA
ATOM     26  O   UNL     1      -4.819   2.877   1.023  0.00  0.00    -0.153 OA
BRANCH  24  30
ATOM     27  C   UNL     1       0.196   2.594   2.011  0.00  0.00    +0.033 A 
ATOM     28  C   UNL     1      -0.004   3.838   1.428  0.00  0.00    +0.025 A 
ATOM     29  C   UNL     1      -1.287   4.272   1.155  0.00  0.00    +0.030 A 
ATOM     30  C   UNL     1      -2.371   3.475   1.474  0.00  0.00    +0.105 A 
ATOM     31  C   UNL     1      -2.175   2.238   2.059  0.00  0.00    +0.030 A 
ATOM     32  C   UNL     1      -0.895   1.795   2.329  0.00  0.00    +0.025 A 
BRANCH  27  36
ATOM     33  C   UNL     1       3.938   2.199   1.903  0.00  0.00    +0.109 C 
ATOM     34  C   UNL     1       2.528   2.591   1.541  0.00  0.00    +0.214 C 
ATOM     35  O   UNL     1       2.325   3.304   0.582  0.00  0.00    -0.276 OA
ATOM     36  N   UNL     1       1.494   2.148   2.284  0.00  0.00    -0.286 N 
ATOM     37  H   UNL     1       1.649   1.517   3.004  0.00  0.00    +0.155 HD
ENDBRANCH  27  36
ENDBRANCH  24  30
ENDBRANCH  22  24
ENDBRANCH  21  22
ENDBRANCH   1  21
TORSDOF 7
