REMARK  Name = ZINC21932930
REMARK  8 active torsions:
REMARK  status: ('A' for Active; 'I' for Inactive)
REMARK    1  A    between atoms: C_1  and  C_2
REMARK    2  A    between atoms: C_2  and  N_3
REMARK    3  A    between atoms: C_7  and  C_15
REMARK    4  A    between atoms: C_11  and  C_14
REMARK    5  A    between atoms: N_17  and  C_18
REMARK    6  A    between atoms: C_18  and  C_19
REMARK    7  A    between atoms: N_21  and  C_30
REMARK    8  A    between atoms: C_23  and  C_24
REMARK                            x       y       z     vdW  Elec       q    Type
REMARK                         _______ _______ _______ _____ _____    ______ ____
ROOT
ATOM      1  C   UNL     1       4.340   1.171   1.571  0.00  0.00    +0.244 C 
ATOM      2  O   UNL     1       5.039   0.790   0.652  0.00  0.00    -0.270 OA
ATOM      3  N   UNL     1       3.058   1.521   1.342  0.00  0.00    -0.307 N 
ATOM      4  H   UNL     1       2.425   1.865   2.173  0.00  0.00    +0.149 HD
ENDROOT
BRANCH   1   9
ATOM      5  N   UNL     1       6.407   1.490   6.803  0.00  0.00    -0.305 N 
ATOM      6  C   UNL     1       5.907   1.410   5.521  0.00  0.00    +0.070 A 
ATOM      7  C   UNL     1       4.584   1.767   5.262  0.00  0.00    +0.029 A 
ATOM      8  C   UNL     1       4.087   1.695   3.995  0.00  0.00    +0.015 A 
ATOM      9  C   UNL     1       4.894   1.250   2.938  0.00  0.00    +0.039 A 
ATOM     10  C   UNL     1       6.215   0.888   3.171  0.00  0.00    +0.043 A 
ATOM     11  C   UNL     1       6.734   0.966   4.470  0.00  0.00    +0.089 A 
ATOM     12  N   UNL     1       8.014   0.618   4.705  0.00  0.00    -0.245 NA
ATOM     13  C   UNL     1       8.518   0.682   5.904  0.00  0.00    +0.103 A 
ATOM     14  C   UNL     1       7.692   1.139   7.028  0.00  0.00    +0.273 A 
ATOM     15  O   UNL     1       8.159   1.200   8.151  0.00  0.00    -0.266 OA
ATOM     16  C   UNL     1       9.953   0.286   6.139  0.00  0.00    +0.071 C 
BRANCH   5  18
ATOM     17  C   UNL     1       5.678   3.470   8.040  0.00  0.00    +0.027 C 
ATOM     18  C   UNL     1       5.558   1.950   7.904  0.00  0.00    +0.122 C 
ENDBRANCH   5  18
ENDBRANCH   1   9
BRANCH   3  19
ATOM     19  C   UNL     1       2.509   1.443  -0.014  0.00  0.00    +0.143 C 
BRANCH  19  20
ATOM     20  C   UNL     1       1.068   1.886   0.002  0.00  0.00    +0.015 A 
ATOM     21  C   UNL     1      -0.013   1.076   0.008  0.00  0.00    +0.120 A 
ATOM     22  N   UNL     1      -1.121   1.861   0.017  0.00  0.00    -0.239 N 
ATOM     23  N   UNL     1      -0.705   3.198   0.025  0.00  0.00    -0.166 NA
ATOM     24  C   UNL     1       0.611   3.218   0.013  0.00  0.00    +0.098 A 
BRANCH  24  25
ATOM     25  C   UNL     1       1.464   4.433   0.012  0.00  0.00    +0.002 A 
ATOM     26  C   UNL     1       2.677   4.436   0.697  0.00  0.00    +0.010 A 
ATOM     27  C   UNL     1       3.469   5.566   0.688  0.00  0.00    +0.001 A 
ATOM     28  C   UNL     1       3.055   6.698   0.010  0.00  0.00    +0.000 A 
ATOM     29  C   UNL     1       1.849   6.702  -0.668  0.00  0.00    +0.001 A 
ATOM     30  C   UNL     1       1.052   5.576  -0.670  0.00  0.00    +0.010 A 
ENDBRANCH  24  25
BRANCH  22  31
ATOM     31  C   UNL     1      -2.449   1.411   0.020  0.00  0.00    +0.065 A 
ATOM     32  C   UNL     1      -2.722   0.050   0.009  0.00  0.00    +0.028 A 
ATOM     33  C   UNL     1      -4.031  -0.390   0.017  0.00  0.00    +0.002 A 
ATOM     34  C   UNL     1      -5.069   0.523   0.026  0.00  0.00    +0.000 A 
ATOM     35  C   UNL     1      -4.800   1.880   0.032  0.00  0.00    +0.002 A 
ATOM     36  C   UNL     1      -3.493   2.326   0.029  0.00  0.00    +0.028 A 
ENDBRANCH  22  31
ENDBRANCH  19  20
ENDBRANCH   3  19
TORSDOF 6
