REMARK  Name = ZINC23858460
REMARK  9 active torsions:
REMARK  status: ('A' for Active; 'I' for Inactive)
REMARK    1  A    between atoms: C_1  and  N_2
REMARK    2  A    between atoms: C_10  and  C_12
REMARK    3  A    between atoms: C_12  and  C_14
REMARK    4  A    between atoms: C_12  and  N_28
REMARK    5  A    between atoms: C_14  and  N_15
REMARK    6  A    between atoms: C_16  and  C_18
REMARK    7  A    between atoms: C_22  and  N_24
REMARK    8  A    between atoms: N_28  and  C_29
REMARK    9  A    between atoms: N_28  and  C_30
REMARK                            x       y       z     vdW  Elec       q    Type
REMARK                         _______ _______ _______ _____ _____    ______ ____
ROOT
ATOM      1  C   UNL     1       3.414  -1.941   4.173  0.00  0.00    -0.021 C 
ENDROOT
BRANCH   1  11
ATOM      2  C   UNL     1      -2.691  -0.618   5.112  0.00  0.00    +0.129 C 
ATOM      3  N   UNL     1      -2.131  -0.803   3.767  0.00  0.00    -0.333 N 
ATOM      4  C   UNL     1      -2.474   0.323   2.896  0.00  0.00    +0.105 C 
ATOM      5  C   UNL     1      -1.842   0.089   1.519  0.00  0.00    +0.024 C 
ATOM      6  C   UNL     1      -0.324   0.202   1.672  0.00  0.00    +0.038 C 
ATOM      7  C   UNL     1       0.127  -0.608   2.861  0.00  0.00    -0.026 A 
ATOM      8  C   UNL     1      -0.761  -1.051   3.826  0.00  0.00    +0.033 A 
ATOM      9  C   UNL     1      -0.281  -1.784   4.913  0.00  0.00    +0.023 A 
ATOM     10  C   UNL     1       1.063  -2.068   5.025  0.00  0.00    +0.004 A 
ATOM     11  C   UNL     1       1.945  -1.627   4.055  0.00  0.00    -0.059 A 
ATOM     12  C   UNL     1       1.477  -0.900   2.979  0.00  0.00    +0.007 A 
ENDBRANCH   1  11
BRANCH   1  13
ATOM     13  N   UNL     1       3.634  -3.368   3.902  0.00  0.00    +0.382 N 
ATOM     14  C   UNL     1       2.756  -4.202   4.734  0.00  0.00    -0.096 C 
ATOM     15  C   UNL     1       3.450  -3.668   2.476  0.00  0.00    -0.096 C 
ATOM     16  H   UNL     1       4.675  -3.605   4.166  0.00  0.00    -0.082 HD
ENDBRANCH   1  13
BRANCH   1  17
ATOM     17  C   UNL     1       3.894  -1.610   5.588  0.00  0.00    +0.094 C 
BRANCH  17  18
ATOM     18  N   UNL     1       5.298  -2.003   5.731  0.00  0.00    -0.313 N 
ATOM     19  C   UNL     1       5.909  -1.898   6.928  0.00  0.00    +0.244 C 
ATOM     20  O   UNL     1       5.294  -1.476   7.889  0.00  0.00    -0.270 OA
ATOM     21  H   UNL     1       5.854  -2.385   4.862  0.00  0.00    +0.149 HD
BRANCH  19  22
ATOM     22  C   UNL     1       7.325  -2.294   7.073  0.00  0.00    +0.039 A 
ATOM     23  C   UNL     1       8.032  -2.784   5.973  0.00  0.00    +0.014 A 
ATOM     24  C   UNL     1       9.354  -3.148   6.113  0.00  0.00    +0.023 A 
ATOM     25  C   UNL     1       9.979  -3.039   7.345  0.00  0.00    +0.071 A 
ATOM     26  C   UNL     1       9.281  -2.558   8.441  0.00  0.00    +0.145 A 
ATOM     27  C   UNL     1       7.960  -2.186   8.312  0.00  0.00    +0.047 A 
ATOM     28 CL   UNL     1      11.642  -3.506   7.515  0.00  0.00    -0.081 Cl
BRANCH  26  29
ATOM     29  N   UNL     1       9.956  -2.444   9.753  0.00  0.00    +0.058 N 
ATOM     30  O   UNL     1       9.345  -2.021  10.717  0.00  0.00    -0.126 OA
ATOM     31  O   UNL     1      11.123  -2.772   9.868  0.00  0.00    -0.126 OA
ENDBRANCH  26  29
ENDBRANCH  19  22
ENDBRANCH  17  18
ENDBRANCH   1  17
TORSDOF 6
