REMARK  Name = ZINC20430708
REMARK  4 active torsions:
REMARK  status: ('A' for Active; 'I' for Inactive)
REMARK    1  A    between atoms: C_4  and  S_10
REMARK    2  A    between atoms: C_5  and  N_7
REMARK    3  A    between atoms: S_10  and  N_13
REMARK    4  A    between atoms: N_13  and  C_14
REMARK                            x       y       z     vdW  Elec       q    Type
REMARK                         _______ _______ _______ _____ _____    ______ ____
ROOT
ATOM      1  S   UNL     1      -2.526  -0.511   0.739  0.00  0.00    +0.094 S 
ATOM      2  O   UNL     1      -3.778  -1.152   0.536  0.00  0.00    -0.148 OA
ATOM      3  O   UNL     1      -1.299  -1.083   0.310  0.00  0.00    -0.148 OA
ENDROOT
BRANCH   1   7
ATOM      4  C   UNL     1      -2.141   0.191   5.194  0.00  0.00    +0.002 A 
ATOM      5  C   UNL     1      -1.113  -0.419   4.499  0.00  0.00    +0.002 A 
ATOM      6  C   UNL     1      -1.233  -0.638   3.140  0.00  0.00    +0.031 A 
ATOM      7  C   UNL     1      -2.376  -0.237   2.473  0.00  0.00    +0.140 A 
ATOM      8  C   UNL     1      -3.404   0.372   3.168  0.00  0.00    +0.153 A 
ATOM      9  C   UNL     1      -3.286   0.586   4.529  0.00  0.00    +0.035 A 
BRANCH   8  10
ATOM     10  N   UNL     1      -4.630   0.795   2.456  0.00  0.00    +0.058 N 
ATOM     11  O   UNL     1      -5.581   1.227   3.083  0.00  0.00    -0.126 OA
ATOM     12  O   UNL     1      -4.689   0.712   1.242  0.00  0.00    -0.126 OA
ENDBRANCH   8  10
ENDBRANCH   1   7
BRANCH   1  13
ATOM     13  N   UNL     1      -2.633   0.976   0.017  0.00  0.00    -0.097 NA
BRANCH  13  14
ATOM     14  C   UNL     1      -1.591   1.898   0.158  0.00  0.00    +0.088 A 
ATOM     15  C   UNL     1      -0.275   1.459   0.204  0.00  0.00    +0.030 A 
ATOM     16  C   UNL     1       0.753   2.372   0.338  0.00  0.00    +0.040 A 
ATOM     17  C   UNL     1       0.471   3.724   0.431  0.00  0.00    +0.125 A 
ATOM     18  C   UNL     1      -0.840   4.165   0.390  0.00  0.00    +0.055 A 
ATOM     19  C   UNL     1      -1.872   3.255   0.256  0.00  0.00    +0.045 A 
ATOM     20 BR   UNL     1      -3.664   3.857   0.200  0.00  0.00    -0.048 Br
ATOM     21  F   UNL     1       1.478   4.615   0.561  0.00  0.00    -0.205 F 
ENDBRANCH  13  14
ENDBRANCH   1  13
TORSDOF 4
