REMARK  Name = ZINC33014878
REMARK  5 active torsions:
REMARK  status: ('A' for Active; 'I' for Inactive)
REMARK    1  A    between atoms: C_4  and  C_7
REMARK    2  A    between atoms: C_7  and  N_8
REMARK    3  A    between atoms: C_18  and  N_19
REMARK    4  A    between atoms: N_19  and  N_20
REMARK    5  A    between atoms: C_21  and  C_23
REMARK                            x       y       z     vdW  Elec       q    Type
REMARK                         _______ _______ _______ _____ _____    ______ ____
ROOT
ATOM      1  N   UNL     1      -0.889   1.526  -1.248  0.00  0.00    -0.230 N 
ATOM      2  C   UNL     1      -2.185   1.183  -1.337  0.00  0.00    +0.254 C 
ATOM      3  O   UNL     1      -2.590   0.214  -0.723  0.00  0.00    -0.270 OA
ATOM      4  C   UNL     1      -3.121   1.960  -2.160  0.00  0.00    +0.045 A 
ATOM      5  C   UNL     1      -4.469   1.611  -2.252  0.00  0.00    +0.013 A 
ATOM      6  C   UNL     1      -5.315   2.362  -3.039  0.00  0.00    +0.001 A 
ATOM      7  C   UNL     1      -4.841   3.462  -3.740  0.00  0.00    +0.001 A 
ATOM      8  C   UNL     1      -3.512   3.823  -3.662  0.00  0.00    +0.009 A 
ATOM      9  C   UNL     1      -2.643   3.078  -2.874  0.00  0.00    +0.000 A 
ATOM     10  C   UNL     1      -1.211   3.421  -2.756  0.00  0.00    +0.060 C 
ATOM     11  C   UNL     1      -0.683   4.501  -3.428  0.00  0.00    +0.101 C 
ATOM     12  C   UNL     1      -0.368   2.577  -1.901  0.00  0.00    +0.255 C 
ATOM     13  O   UNL     1       0.817   2.833  -1.782  0.00  0.00    -0.269 OA
ENDROOT
BRANCH  11  14
ATOM     14  N   UNL     1      -1.253   4.927  -4.585  0.00  0.00    -0.271 N 
ATOM     15  H   UNL     1      -2.062   4.341  -5.047  0.00  0.00    +0.169 HD
BRANCH  14  16
ATOM     16  N   UNL     1      -0.812   6.111  -5.189  0.00  0.00    -0.237 N 
ATOM     17  C   UNL     1      -1.379   6.533  -6.337  0.00  0.00    +0.235 C 
ATOM     18  O   UNL     1      -2.270   5.887  -6.847  0.00  0.00    -0.274 OA
ATOM     19  H   UNL     1      -0.004   6.697  -4.727  0.00  0.00    +0.173 HD
BRANCH  17  20
ATOM     20  C   UNL     1      -0.904   7.807  -6.987  0.00  0.00    +0.049 C 
ATOM     21  C   UNL     1       0.581   7.682  -7.332  0.00  0.00    +0.019 C 
ATOM     22  C   UNL     1       1.062   8.975  -7.992  0.00  0.00    -0.009 C 
ATOM     23  C   UNL     1       0.261   9.224  -9.272  0.00  0.00    +0.007 C 
ATOM     24  C   UNL     1      -1.224   9.350  -8.927  0.00  0.00    -0.009 C 
ATOM     25  C   UNL     1      -1.706   8.056  -8.267  0.00  0.00    +0.019 C 
ATOM     26  C   UNL     1      -1.427  10.520  -7.963  0.00  0.00    +0.007 C 
ATOM     27  C   UNL     1      -0.626  10.271  -6.683  0.00  0.00    -0.009 C 
ATOM     28  C   UNL     1       0.860  10.146  -7.028  0.00  0.00    +0.007 C 
ATOM     29  C   UNL     1      -1.107   8.978  -6.023  0.00  0.00    +0.019 C 
ENDBRANCH  17  20
ENDBRANCH  14  16
ENDBRANCH  11  14
BRANCH   1  30
ATOM     30  C   UNL     1      -0.006   0.715  -0.407  0.00  0.00    +0.152 C 
BRANCH  30  34
ATOM     31  C   UNL     1       0.026   2.294   3.562  0.00  0.00    +0.000 A 
ATOM     32  C   UNL     1      -0.902   1.333   3.208  0.00  0.00    +0.000 A 
ATOM     33  C   UNL     1      -0.912   0.822   1.924  0.00  0.00    +0.005 A 
ATOM     34  C   UNL     1       0.005   1.272   0.993  0.00  0.00    -0.030 A 
ATOM     35  C   UNL     1       0.936   2.230   1.349  0.00  0.00    +0.005 A 
ATOM     36  C   UNL     1       0.944   2.744   2.632  0.00  0.00    +0.000 A 
ENDBRANCH  30  34
ENDBRANCH   1  30
TORSDOF 5
