REMARK  Name = ZINC13006556
REMARK  9 active torsions:
REMARK  status: ('A' for Active; 'I' for Inactive)
REMARK    1  A    between atoms: C_6  and  C_7
REMARK    2  A    between atoms: C_7  and  C_8
REMARK    3  A    between atoms: C_8  and  N_9
REMARK    4  A    between atoms: C_10  and  C_12
REMARK    5  A    between atoms: C_12  and  N_51
REMARK    6  A    between atoms: C_13  and  C_14
REMARK    7  A    between atoms: C_13  and  N_51
REMARK    8  A    between atoms: C_17  and  C_20
REMARK    9  A    between atoms: C_23  and  N_51
REMARK                            x       y       z     vdW  Elec       q    Type
REMARK                         _______ _______ _______ _____ _____    ______ ____
ROOT
ATOM      1  N   UNL     1      -0.664   1.626  -1.136  0.00  0.00    +0.390 N 
ATOM      2  H   UNL     1      -1.685   1.677  -1.044  0.00  0.00    -0.080 HD
ENDROOT
BRANCH   1   3
ATOM      3  C   UNL     1      -0.106   2.993  -1.065  0.00  0.00    -0.068 C 
ATOM      4  C   UNL     1       0.559   3.561  -2.321  0.00  0.00    -0.017 C 
ATOM      5  C   UNL     1       1.414   3.166  -1.114  0.00  0.00    -0.017 C 
ENDBRANCH   1   3
BRANCH   1   6
ATOM      6  C   UNL     1      -0.330   1.011  -2.438  0.00  0.00    +0.019 C 
BRANCH   6   8
ATOM      7  N   UNL     1      -1.133   1.181  -4.772  0.00  0.00    -0.317 N 
ATOM      8  C   UNL     1      -1.215   1.615  -3.499  0.00  0.00    +0.196 C 
ATOM      9  O   UNL     1      -2.000   2.492  -3.206  0.00  0.00    -0.278 OA
ATOM     10  H   UNL     1      -0.504   0.480  -5.006  0.00  0.00    +0.149 HD
BRANCH   7  11
ATOM     11  C   UNL     1      -1.992   1.769  -5.803  0.00  0.00    +0.109 C 
BRANCH  11  12
ATOM     12  C   UNL     1      -1.701   1.103  -7.150  0.00  0.00    +0.054 C 
BRANCH  12  18
ATOM     13  C   UNL     1      -3.825   1.155  -8.472  0.00  0.00    +0.006 A 
ATOM     14  C   UNL     1      -4.639   1.711  -9.441  0.00  0.00    +0.038 A 
ATOM     15  C   UNL     1      -4.208   2.815 -10.156  0.00  0.00    +0.123 A 
ATOM     16  C   UNL     1      -2.963   3.365  -9.896  0.00  0.00    +0.038 A 
ATOM     17  C   UNL     1      -2.154   2.810  -8.923  0.00  0.00    +0.006 A 
ATOM     18  C   UNL     1      -2.586   1.707  -8.210  0.00  0.00    -0.046 A 
ATOM     19  F   UNL     1      -5.000   3.357 -11.107  0.00  0.00    -0.205 F 
ENDBRANCH  12  18
ENDBRANCH  11  12
ENDBRANCH   7  11
ENDBRANCH   6   8
ENDBRANCH   1   6
BRANCH   1  20
ATOM     20  C   UNL     1      -0.123   0.802  -0.035  0.00  0.00    -0.042 C 
BRANCH  20  21
ATOM     21  C   UNL     1      -0.659   1.324   1.272  0.00  0.00    -0.064 A 
ATOM     22  C   UNL     1       0.048   2.285   1.973  0.00  0.00    +0.002 A 
ATOM     23  C   UNL     1      -0.440   2.771   3.168  0.00  0.00    +0.013 A 
ATOM     24  C   UNL     1      -1.646   2.284   3.675  0.00  0.00    +0.037 A 
ATOM     25  C   UNL     1      -2.352   1.311   2.966  0.00  0.00    +0.013 A 
ATOM     26  C   UNL     1      -1.855   0.837   1.770  0.00  0.00    +0.002 A 
BRANCH  24  27
ATOM     27  C   UNL     1      -2.172   2.796   4.958  0.00  0.00    +0.242 C 
ATOM     28  O   UNL     1      -3.223   2.370   5.398  0.00  0.00    -0.270 OA
ATOM     29  N   UNL     1      -1.488   3.736   5.641  0.00  0.00    -0.325 N 
ATOM     30  H   UNL     1      -0.650   4.076   5.290  0.00  0.00    +0.145 HD
ATOM     31  H   UNL     1      -1.834   4.072   6.482  0.00  0.00    +0.145 HD
ENDBRANCH  24  27
ENDBRANCH  20  21
ENDBRANCH   1  20
TORSDOF 9
