REMARK  Name = ZINC36312951
REMARK  13 active torsions:
REMARK  status: ('A' for Active; 'I' for Inactive)
REMARK    1  A    between atoms: C_4  and  C_7
REMARK    2  A    between atoms: C_7  and  O_8
REMARK    3  A    between atoms: O_8  and  C_9
REMARK    4  A    between atoms: C_9  and  C_10
REMARK    5  A    between atoms: C_10  and  C_12
REMARK    6  A    between atoms: C_10  and  O_38
REMARK    7  A    between atoms: C_12  and  N_13
REMARK    8  A    between atoms: N_13  and  C_14
REMARK    9  A    between atoms: N_13  and  C_31
REMARK   10  A    between atoms: C_14  and  C_15
REMARK   11  A    between atoms: C_16  and  C_25
REMARK   12  A    between atoms: C_19  and  N_20
REMARK   13  A    between atoms: C_31  and  C_32
REMARK                            x       y       z     vdW  Elec       q    Type
REMARK                         _______ _______ _______ _____ _____    ______ ____
ROOT
ATOM      1  N   UNL     1       6.566  -3.027   4.415  0.00  0.00    +0.386 N 
ATOM      2  H   UNL     1       6.005  -3.791   4.761  0.00  0.00    -0.081 HD
ENDROOT
BRANCH   1   3
ATOM      3  C   UNL     1       6.389  -2.911   2.961  0.00  0.00    -0.044 C 
BRANCH   3   4
ATOM      4  C   UNL     1       6.658  -4.267   2.305  0.00  0.00    +0.124 C 
BRANCH   4   5
ATOM      5  O   UNL     1       8.046  -4.586   2.422  0.00  0.00    -0.391 OA
ATOM      6  H   UNL     1       8.634  -3.944   2.001  0.00  0.00    +0.210 HD
ENDBRANCH   4   5
BRANCH   4   7
ATOM      7  C   UNL     1       6.273  -4.203   0.825  0.00  0.00    +0.189 C 
BRANCH   7   8
ATOM      8  O   UNL     1       6.413  -5.499   0.240  0.00  0.00    -0.373 OA
BRANCH   8   9
ATOM      9  C   UNL     1       6.076  -5.549  -1.148  0.00  0.00    +0.195 C 
BRANCH   9  13
ATOM     10  C   UNL     1       6.596  -9.534  -2.597  0.00  0.00    +0.000 A 
ATOM     11  C   UNL     1       5.377  -9.141  -2.077  0.00  0.00    +0.000 A 
ATOM     12  C   UNL     1       5.209  -7.852  -1.608  0.00  0.00    +0.006 A 
ATOM     13  C   UNL     1       6.260  -6.955  -1.658  0.00  0.00    -0.022 A 
ATOM     14  C   UNL     1       7.479  -7.348  -2.178  0.00  0.00    +0.006 A 
ATOM     15  C   UNL     1       7.647  -8.637  -2.648  0.00  0.00    +0.000 A 
ENDBRANCH   9  13
ENDBRANCH   8   9
ENDBRANCH   7   8
ENDBRANCH   4   7
ENDBRANCH   3   4
ENDBRANCH   1   3
BRANCH   1  16
ATOM     16  C   UNL     1       7.981  -3.280   4.718  0.00  0.00    -0.035 C 
BRANCH  16  17
ATOM     17  C   UNL     1       8.155  -3.436   6.207  0.00  0.00    +0.025 A 
ATOM     18  C   UNL     1       8.524  -2.417   7.109  0.00  0.00    +0.117 A 
ATOM     19  N   UNL     1       8.570  -2.940   8.313  0.00  0.00    -0.076 NA
ATOM     20  O   UNL     1       8.232  -4.311   8.208  0.00  0.00    -0.339 OA
ATOM     21  C   UNL     1       7.980  -4.580   6.915  0.00  0.00    +0.222 A 
BRANCH  18  22
ATOM     22  C   UNL     1       8.808  -1.002   6.761  0.00  0.00    +0.004 A 
ATOM     23  C   UNL     1       8.319   0.027   7.562  0.00  0.00    +0.010 A 
ATOM     24  C   UNL     1       8.587   1.341   7.234  0.00  0.00    +0.001 A 
ATOM     25  C   UNL     1       9.339   1.636   6.111  0.00  0.00    +0.000 A 
ATOM     26  C   UNL     1       9.827   0.618   5.312  0.00  0.00    +0.001 A 
ATOM     27  C   UNL     1       9.569  -0.699   5.634  0.00  0.00    +0.010 A 
ENDBRANCH  18  22
BRANCH  21  28
ATOM     28  N   UNL     1       7.610  -5.808   6.398  0.00  0.00    -0.299 N 
ATOM     29  C   UNL     1       7.345  -6.096   4.981  0.00  0.00    +0.108 C 
ATOM     30  C   UNL     1       6.943  -7.582   4.883  0.00  0.00    +0.020 C 
ATOM     31  C   UNL     1       6.455  -7.905   6.320  0.00  0.00    +0.020 C 
ATOM     32  C   UNL     1       7.422  -7.046   7.175  0.00  0.00    +0.108 C 
ENDBRANCH  21  28
ENDBRANCH  16  17
ENDBRANCH   1  16
BRANCH   1  33
ATOM     33  C   UNL     1       6.143  -1.777   5.061  0.00  0.00    -0.046 C 
BRANCH  33  34
ATOM     34  C   UNL     1       4.636  -1.589   4.870  0.00  0.00    +0.102 C 
ATOM     35  C   UNL     1       4.190  -0.256   5.508  0.00  0.00    +0.032 C 
ATOM     36  C   UNL     1       2.824  -0.635   6.143  0.00  0.00    +0.030 C 
ATOM     37  C   UNL     1       3.094  -2.101   6.567  0.00  0.00    +0.160 C 
ATOM     38  O   UNL     1       3.928  -2.645   5.529  0.00  0.00    -0.378 OA
ENDBRANCH  33  34
ENDBRANCH   1  33
TORSDOF 13
