REMARK  Name = ZINC40448080
REMARK  7 active torsions:
REMARK  status: ('A' for Active; 'I' for Inactive)
REMARK    1  A    between atoms: C_1  and  C_2
REMARK    2  A    between atoms: C_3  and  N_19
REMARK    3  A    between atoms: C_7  and  N_8
REMARK    4  A    between atoms: C_11  and  C_16
REMARK    5  A    between atoms: C_11  and  C_17
REMARK    6  A    between atoms: C_13  and  C_14
REMARK    7  A    between atoms: C_13  and  C_15
REMARK                            x       y       z     vdW  Elec       q    Type
REMARK                         _______ _______ _______ _____ _____    ______ ____
ROOT
ATOM      1  C   UNL     1       0.332   1.236   0.411  0.00  0.00    +0.048 C 
ATOM      2  C   UNL     1       0.247  -0.269   0.390  0.00  0.00    +0.002 A 
ATOM      3  C   UNL     1       0.320  -0.952  -0.817  0.00  0.00    +0.044 A 
ATOM      4  C   UNL     1       0.242  -2.338  -0.830  0.00  0.00    +0.043 A 
ATOM      5  C   UNL     1       0.093  -3.037   0.356  0.00  0.00    -0.020 A 
ATOM      6  C   UNL     1       0.021  -2.353   1.555  0.00  0.00    -0.006 A 
ATOM      7  C   UNL     1       0.104  -0.970   1.569  0.00  0.00    +0.135 A 
ATOM      8  C   UNL     1      -0.141  -3.336   2.695  0.00  0.00    -0.007 C 
ATOM      9  C   UNL     1      -0.598  -4.652   2.032  0.00  0.00    +0.022 C 
ATOM     10  C   UNL     1      -0.016  -4.526   0.608  0.00  0.00    -0.008 C 
ATOM     11  C   UNL     1      -0.959  -5.170  -0.410  0.00  0.00    +0.016 C 
ATOM     12  C   UNL     1       1.366  -5.178   0.540  0.00  0.00    +0.016 C 
ATOM     13  C   UNL     1       1.194  -3.539   3.414  0.00  0.00    +0.016 C 
ATOM     14  C   UNL     1      -1.204  -2.839   3.678  0.00  0.00    +0.016 C 
ATOM     15 BR   UNL     1       0.339  -3.274  -2.471  0.00  0.00    -0.048 Br
ENDROOT
BRANCH   7  16
ATOM     16  N   UNL     1       0.033  -0.241   2.855  0.00  0.00    +0.057 N 
ATOM     17  O   UNL     1      -1.037   0.117   3.289  0.00  0.00    -0.126 OA
ATOM     18  O   UNL     1       1.045  -0.003   3.472  0.00  0.00    -0.126 OA
ENDBRANCH   7  16
BRANCH   3  19
ATOM     19  N   UNL     1       0.471  -0.247  -2.014  0.00  0.00    -0.357 N 
ATOM     20  H   UNL     1       0.525   0.721  -2.003  0.00  0.00    +0.142 HD
ATOM     21  H   UNL     1       0.521  -0.727  -2.856  0.00  0.00    +0.142 HD
ENDBRANCH   3  19
TORSDOF 2
