REMARK  Name = ZINC01038112
REMARK  5 active torsions:
REMARK  status: ('A' for Active; 'I' for Inactive)
REMARK    1  A    between atoms: C_1  and  N_2
REMARK    2  A    between atoms: C_3  and  C_11
REMARK    3  A    between atoms: C_5  and  C_7
REMARK    4  A    between atoms: C_14  and  S_16
REMARK    5  A    between atoms: S_16  and  N_19
REMARK                            x       y       z     vdW  Elec       q    Type
REMARK                         _______ _______ _______ _____ _____    ______ ____
ROOT
ATOM      1  C   UNL     1      -0.005  -0.353  -2.508  0.00  0.00    +0.039 A 
ATOM      2  C   UNL     1      -0.098  -1.101  -3.654  0.00  0.00    +0.019 A 
ATOM      3  C   UNL     1      -0.090  -0.453  -4.869  0.00  0.00    +0.037 A 
ATOM      4  C   UNL     1       0.010   0.901  -4.896  0.00  0.00    +0.143 A 
ATOM      5  S   UNL     1       0.089   1.306  -3.159  0.00  0.00    -0.067 S 
ENDROOT
BRANCH   1   8
ATOM      6  C   UNL     1      -0.018   1.461   0.010  0.00  0.00    +0.173 C 
ATOM      7  N   UNL     1       0.002  -0.004   0.002  0.00  0.00    -0.266 N 
ATOM      8  C   UNL     1       0.008  -0.802  -1.105  0.00  0.00    +0.076 A 
ATOM      9  C   UNL     1       0.028  -2.108  -0.662  0.00  0.00    +0.062 A 
ATOM     10  C   UNL     1       0.034  -2.083   0.732  0.00  0.00    +0.166 A 
ATOM     11  N   UNL     1       0.025  -0.836   1.129  0.00  0.00    -0.167 NA
BRANCH  10  12
ATOM     12  C   UNL     1       0.055  -3.291   1.633  0.00  0.00    +0.436 C 
ATOM     13  F   UNL     1       1.381  -3.646   1.905  0.00  0.00    -0.164 F 
ATOM     14  F   UNL     1      -0.603  -2.991   2.830  0.00  0.00    -0.164 F 
ATOM     15  F   UNL     1      -0.592  -4.356   0.999  0.00  0.00    -0.164 F 
ENDBRANCH  10  12
ENDBRANCH   1   8
BRANCH   4  16
ATOM     16  S   UNL     1       0.044   1.981  -6.288  0.00  0.00    +0.062 S 
ATOM     17  O   UNL     1       0.699   3.169  -5.864  0.00  0.00    -0.153 OA
ATOM     18  O   UNL     1       0.503   1.209  -7.389  0.00  0.00    -0.153 OA
BRANCH  16  19
ATOM     19  N   UNL     1      -1.523   2.398  -6.623  0.00  0.00    -0.203 NA
ATOM     20  H   UNL     1      -1.721   3.261  -7.020  0.00  0.00    +0.144 HD
ATOM     21  H   UNL     1      -2.243   1.780  -6.422  0.00  0.00    +0.144 HD
ENDBRANCH  16  19
ENDBRANCH   4  16
TORSDOF 4
