REMARK  Name = ZINC35926705
REMARK  10 active torsions:
REMARK  status: ('A' for Active; 'I' for Inactive)
REMARK    1  A    between atoms: C_1  and  C_2
REMARK    2  A    between atoms: C_2  and  C_3
REMARK    3  A    between atoms: C_3  and  C_4
REMARK    4  A    between atoms: C_4  and  C_5
REMARK    5  A    between atoms: C_5  and  C_7
REMARK    6  A    between atoms: C_5  and  C_9
REMARK    7  A    between atoms: C_7  and  C_8
REMARK    8  A    between atoms: C_24  and  C_26
REMARK    9  A    between atoms: C_26  and  N_27
REMARK   10  A    between atoms: N_30  and  C_33
REMARK                            x       y       z     vdW  Elec       q    Type
REMARK                         _______ _______ _______ _____ _____    ______ ____
ROOT
ATOM      1  C   UNL     1      -2.792  -4.109   0.119  0.00  0.00    +0.219 C 
ATOM      2  O   UNL     1      -1.737  -4.676  -0.072  0.00  0.00    -0.275 OA
ATOM      3  N   UNL     1      -3.911  -4.826   0.342  0.00  0.00    -0.300 N 
ATOM      4  C   UNL     1      -3.784  -6.282   0.418  0.00  0.00    +0.109 C 
ATOM      5  C   UNL     1      -3.709  -6.670   1.880  0.00  0.00    +0.038 C 
ATOM      6  C   UNL     1      -5.117  -6.847   2.457  0.00  0.00    +0.109 C 
ATOM      7  N   UNL     1      -6.052  -5.813   1.990  0.00  0.00    -0.300 N 
ATOM      8  C   UNL     1      -5.705  -4.405   1.903  0.00  0.00    +0.127 C 
ATOM      9  C   UNL     1      -5.133  -4.116   0.492  0.00  0.00    +0.126 C 
ATOM     10  C   UNL     1      -7.313  -6.196   1.617  0.00  0.00    +0.199 A 
ATOM     11  N   UNL     1      -8.194  -5.258   1.176  0.00  0.00    -0.295 N 
ATOM     12  H   UNL     1      -7.929  -4.327   1.127  0.00  0.00    +0.172 HD
ATOM     13  C   UNL     1      -9.439  -5.629   0.807  0.00  0.00    +0.253 A 
ATOM     14  O   UNL     1     -10.241  -4.801   0.409  0.00  0.00    -0.268 OA
ATOM     15  C   UNL     1      -9.792  -6.987   0.890  0.00  0.00    +0.094 A 
ATOM     16  C   UNL     1      -8.866  -7.883   1.340  0.00  0.00    +0.064 A 
ATOM     17  N   UNL     1      -7.650  -7.469   1.688  0.00  0.00    -0.219 NA
ENDROOT
BRANCH   1  18
ATOM     18  C   UNL     1      -2.852  -2.603   0.108  0.00  0.00    +0.075 C 
BRANCH  18  19
ATOM     19  C   UNL     1      -3.187  -2.095   1.512  0.00  0.00    +0.009 C 
ATOM     20  C   UNL     1      -2.066  -2.487   2.476  0.00  0.00    +0.004 C 
ENDBRANCH  18  19
BRANCH  18  21
ATOM     21  C   UNL     1      -1.497  -2.042  -0.328  0.00  0.00    +0.013 C 
BRANCH  21  22
ATOM     22  C   UNL     1      -1.598  -0.523  -0.478  0.00  0.00    +0.000 C 
BRANCH  22  24
ATOM     23  C   UNL     1      -0.320   1.569  -0.960  0.00  0.00    +0.004 C 
ATOM     24  C   UNL     1      -0.219   0.050  -0.809  0.00  0.00    -0.003 C 
ENDBRANCH  22  24
ENDBRANCH  21  22
ENDBRANCH  18  21
ENDBRANCH   1  18
BRANCH  16  25
ATOM     25  C   UNL     1      -9.219  -9.345   1.438  0.00  0.00    +0.140 C 
BRANCH  25  26
ATOM     26  N   UNL     1      -8.395 -10.112   0.495  0.00  0.00    -0.300 NA
ATOM     27  C   UNL     1      -8.729  -9.770  -0.895  0.00  0.00    +0.066 C 
ATOM     28  C   UNL     1      -7.810 -10.544  -1.843  0.00  0.00    -0.063 C 
ATOM     29  N   UNL     1      -7.981 -11.986  -1.621  0.00  0.00    +0.383 N 
ATOM     30  C   UNL     1      -7.620 -12.316  -0.236  0.00  0.00    -0.063 C 
ATOM     31  C   UNL     1      -8.537 -11.557   0.725  0.00  0.00    +0.066 C 
ATOM     32  H   UNL     1      -8.943 -12.240  -1.788  0.00  0.00    -0.081 HD
BRANCH  29  33
ATOM     33  C   UNL     1      -7.112 -12.730  -2.543  0.00  0.00    -0.068 C 
ATOM     34  C   UNL     1      -7.489 -12.387  -3.986  0.00  0.00    -0.015 C 
ATOM     35  C   UNL     1      -6.584 -13.161  -4.947  0.00  0.00    -0.002 C 
ATOM     36  C   UNL     1      -6.761 -14.663  -4.716  0.00  0.00    -0.000 C 
ATOM     37  C   UNL     1      -6.385 -15.006  -3.273  0.00  0.00    -0.002 C 
ATOM     38  C   UNL     1      -7.290 -14.232  -2.312  0.00  0.00    -0.015 C 
ENDBRANCH  29  33
ENDBRANCH  25  26
ENDBRANCH  16  25
TORSDOF 8
