REMARK  Name = ZINC14942683
REMARK  10 active torsions:
REMARK  status: ('A' for Active; 'I' for Inactive)
REMARK    1  A    between atoms: C_1  and  C_2
REMARK    2  A    between atoms: C_2  and  C_3
REMARK    3  A    between atoms: C_2  and  C_4
REMARK    4  A    between atoms: C_4  and  C_6
REMARK    5  A    between atoms: C_4  and  N_20
REMARK    6  A    between atoms: N_8  and  C_9
REMARK    7  A    between atoms: C_12  and  S_15
REMARK    8  A    between atoms: S_15  and  N_18
REMARK    9  A    between atoms: N_18  and  C_19
REMARK   10  A    between atoms: C_21  and  C_23
REMARK                            x       y       z     vdW  Elec       q    Type
REMARK                         _______ _______ _______ _____ _____    ______ ____
ROOT
ATOM      1  C   UNL     1      -3.477   4.572   6.696  0.00  0.00    +0.162 C 
ENDROOT
BRANCH   1   2
ATOM      2  C   UNL     1      -2.804   4.159   5.413  0.00  0.00    +0.238 C 
ATOM      3  O   UNL     1      -1.772   4.696   5.069  0.00  0.00    -0.273 OA
ATOM      4  N   UNL     1      -3.349   3.194   4.647  0.00  0.00    -0.284 N 
ATOM      5  H   UNL     1      -4.203   2.804   4.892  0.00  0.00    +0.155 HD
BRANCH   4   6
ATOM      6  C   UNL     1      -2.684   2.754   3.497  0.00  0.00    +0.034 A 
ATOM      7  C   UNL     1      -1.296   2.738   3.459  0.00  0.00    +0.025 A 
ATOM      8  C   UNL     1      -0.643   2.303   2.323  0.00  0.00    +0.030 A 
ATOM      9  C   UNL     1      -1.369   1.882   1.224  0.00  0.00    +0.105 A 
ATOM     10  C   UNL     1      -2.751   1.902   1.256  0.00  0.00    +0.030 A 
ATOM     11  C   UNL     1      -3.411   2.331   2.391  0.00  0.00    +0.025 A 
BRANCH   9  12
ATOM     12  S   UNL     1      -0.531   1.328  -0.224  0.00  0.00    +0.058 S 
ATOM     13  O   UNL     1       0.758   1.925  -0.201  0.00  0.00    -0.153 OA
ATOM     14  O   UNL     1      -1.433   1.503  -1.307  0.00  0.00    -0.153 OA
BRANCH  12  15
ATOM     15  N   UNL     1      -0.299  -0.304  -0.060  0.00  0.00    -0.193 NA
ATOM     16  C   UNL     1      -1.452  -1.207  -0.021  0.00  0.00    +0.127 C 
ATOM     17  H   UNL     1       0.600  -0.661   0.010  0.00  0.00    +0.148 HD
ENDBRANCH  12  15
ENDBRANCH   9  12
ENDBRANCH   4   6
ENDBRANCH   1   2
BRANCH   1  18
ATOM     18  N   UNL     1      -3.049   5.926   7.059  0.00  0.00    -0.303 N 
ATOM     19  C   UNL     1      -3.838   6.698   7.831  0.00  0.00    +0.220 C 
ATOM     20  O   UNL     1      -4.903   6.273   8.226  0.00  0.00    -0.275 OA
ATOM     21  H   UNL     1      -2.197   6.266   6.742  0.00  0.00    +0.149 HD
BRANCH  19  22
ATOM     22  C   UNL     1      -3.398   8.091   8.203  0.00  0.00    +0.048 C 
ATOM     23  C   UNL     1      -3.198   8.919   6.933  0.00  0.00    +0.019 C 
ATOM     24  C   UNL     1      -2.751  10.333   7.311  0.00  0.00    -0.009 C 
ATOM     25  C   UNL     1      -3.821  10.989   8.186  0.00  0.00    +0.007 C 
ATOM     26  C   UNL     1      -4.020  10.161   9.456  0.00  0.00    -0.009 C 
ATOM     27  C   UNL     1      -4.468   8.747   9.078  0.00  0.00    +0.019 C 
ATOM     28  C   UNL     1      -2.703  10.088  10.230  0.00  0.00    +0.007 C 
ATOM     29  C   UNL     1      -1.633   9.432   9.356  0.00  0.00    -0.009 C 
ATOM     30  C   UNL     1      -1.433  10.261   8.085  0.00  0.00    +0.007 C 
ATOM     31  C   UNL     1      -2.080   8.018   8.977  0.00  0.00    +0.019 C 
ENDBRANCH  19  22
ENDBRANCH   1  18
BRANCH   1  33
ATOM     32  C   UNL     1      -3.723   4.053   9.128  0.00  0.00    +0.009 C 
ATOM     33  C   UNL     1      -3.089   3.599   7.811  0.00  0.00    +0.012 C 
ATOM     34  C   UNL     1      -3.589   2.196   7.461  0.00  0.00    +0.009 C 
ENDBRANCH   1  33
TORSDOF 7
