REMARK  Name = ZINC32643716
REMARK  7 active torsions:
REMARK  status: ('A' for Active; 'I' for Inactive)
REMARK    1  A    between atoms: C_8  and  C_25
REMARK    2  A    between atoms: N_10  and  S_12
REMARK    3  A    between atoms: S_12  and  C_15
REMARK    4  A    between atoms: C_18  and  C_21
REMARK    5  A    between atoms: N_27  and  C_28
REMARK    6  A    between atoms: C_28  and  C_29
REMARK    7  A    between atoms: C_29  and  C_30
REMARK                            x       y       z     vdW  Elec       q    Type
REMARK                         _______ _______ _______ _____ _____    ______ ____
ROOT
ATOM      1  C   UNL     1      -0.055   1.802  -0.194  0.00  0.00    +0.000 A 
ATOM      2  C   UNL     1       1.077   2.432   0.287  0.00  0.00    +0.000 A 
ATOM      3  C   UNL     1       2.213   1.694   0.546  0.00  0.00    +0.005 A 
ATOM      4  C   UNL     1       2.226   0.322   0.331  0.00  0.00    -0.028 A 
ATOM      5  C   UNL     1       1.096  -0.308  -0.139  0.00  0.00    -0.041 A 
ATOM      6  C   UNL     1      -0.044   0.440  -0.406  0.00  0.00    +0.004 A 
ATOM      7  C   UNL     1       1.025  -1.795  -0.367  0.00  0.00    +0.065 C 
ATOM      8  C   UNL     1       2.425  -2.393  -0.502  0.00  0.00    +0.170 C 
ATOM      9  N   UNL     1       3.249  -1.868   0.599  0.00  0.00    -0.160 NA
ATOM     10  C   UNL     1       3.504  -0.424   0.621  0.00  0.00    +0.145 C 
ENDROOT
BRANCH   8  11
ATOM     11  C   UNL     1       2.349  -3.895  -0.412  0.00  0.00    +0.232 C 
ATOM     12  O   UNL     1       1.804  -4.419   0.536  0.00  0.00    -0.274 OA
ATOM     13  N   UNL     1       2.886  -4.656  -1.387  0.00  0.00    -0.314 N 
ATOM     14  H   UNL     1       3.321  -4.237  -2.145  0.00  0.00    +0.149 HD
BRANCH  13  15
ATOM     15  C   UNL     1       2.812  -6.117  -1.300  0.00  0.00    +0.110 C 
BRANCH  15  16
ATOM     16  C   UNL     1       3.492  -6.735  -2.523  0.00  0.00    +0.073 C 
BRANCH  16  17
ATOM     17  C   UNL     1       3.416  -8.238  -2.433  0.00  0.00    +0.035 A 
ATOM     18  C   UNL     1       4.264  -9.046  -1.770  0.00  0.00    +0.105 A 
ATOM     19  N   UNL     1       3.849 -10.311  -1.938  0.00  0.00    -0.352 N 
ATOM     20  C   UNL     1       2.776 -10.316  -2.680  0.00  0.00    +0.171 A 
ATOM     21  N   UNL     1       2.468  -9.042  -3.006  0.00  0.00    -0.350 N 
ATOM     22  H   UNL     1       1.717  -8.752  -3.547  0.00  0.00    +0.166 HD
ATOM     23  H   UNL     1       4.279 -11.097  -1.566  0.00  0.00    +0.166 HD
ENDBRANCH  16  17
ENDBRANCH  15  16
ENDBRANCH  13  15
ENDBRANCH   8  11
BRANCH   9  24
ATOM     24  S   UNL     1       3.864  -2.869   1.766  0.00  0.00    +0.062 S 
ATOM     25  O   UNL     1       4.028  -4.145   1.163  0.00  0.00    -0.153 OA
ATOM     26  O   UNL     1       4.942  -2.170   2.374  0.00  0.00    -0.153 OA
BRANCH  24  27
ATOM     27  C   UNL     1       2.622  -3.053   3.002  0.00  0.00    +0.106 A 
ATOM     28  C   UNL     1       2.387  -2.031   3.903  0.00  0.00    +0.029 A 
ATOM     29  C   UNL     1       1.413  -2.175   4.873  0.00  0.00    +0.014 A 
ATOM     30  C   UNL     1       0.673  -3.341   4.942  0.00  0.00    +0.055 A 
ATOM     31  C   UNL     1       0.907  -4.362   4.040  0.00  0.00    +0.014 A 
ATOM     32  C   UNL     1       1.879  -4.216   3.068  0.00  0.00    +0.029 A 
BRANCH  30  33
ATOM     33  C   UNL     1      -0.389  -3.498   6.000  0.00  0.00    +0.417 C 
ATOM     34  F   UNL     1      -1.611  -3.028   5.507  0.00  0.00    -0.166 F 
ATOM     35  F   UNL     1      -0.512  -4.850   6.339  0.00  0.00    -0.166 F 
ATOM     36  F   UNL     1      -0.029  -2.763   7.134  0.00  0.00    -0.166 F 
ENDBRANCH  30  33
ENDBRANCH  24  27
ENDBRANCH   9  24
TORSDOF 7
