REMARK  Name = ZINC39636967
REMARK  13 active torsions:
REMARK  status: ('A' for Active; 'I' for Inactive)
REMARK    1  A    between atoms: C_1  and  C_2
REMARK    2  A    between atoms: C_2  and  C_3
REMARK    3  A    between atoms: C_3  and  C_5
REMARK    4  A    between atoms: C_3  and  C_6
REMARK    5  A    between atoms: C_10  and  C_19
REMARK    6  A    between atoms: N_21  and  C_22
REMARK    7  A    between atoms: C_22  and  C_23
REMARK    8  A    between atoms: C_25  and  O_33
REMARK    9  A    between atoms: C_26  and  O_31
REMARK   10  A    between atoms: C_27  and  O_29
REMARK   11  A    between atoms: O_29  and  C_30
REMARK   12  A    between atoms: O_31  and  C_32
REMARK   13  A    between atoms: O_33  and  C_34
REMARK                            x       y       z     vdW  Elec       q    Type
REMARK                         _______ _______ _______ _____ _____    ______ ____
ROOT
ATOM      1  C   UNL     1       1.119  -1.900   0.981  0.00  0.00    +0.218 C 
ATOM      2  O   UNL     1       0.848  -2.546  -0.009  0.00  0.00    -0.275 OA
ATOM      3  N   UNL     1       1.567  -2.521   2.089  0.00  0.00    -0.300 N 
ATOM      4  C   UNL     1       1.838  -1.925   3.418  0.00  0.00    +0.121 C 
ATOM      5  C   UNL     1       1.340  -2.981   4.429  0.00  0.00    +0.100 C 
ATOM      6  C   UNL     1       1.386  -4.312   3.660  0.00  0.00    -0.004 C 
ATOM      7  C   UNL     1       1.895  -3.958   2.256  0.00  0.00    +0.115 C 
ATOM      8  C   UNL     1       2.344  -5.284   4.341  0.00  0.00    -0.010 C 
ATOM      9  C   UNL     1       2.328  -6.619   3.592  0.00  0.00    -0.082 C 
ATOM     10  N   UNL     1       0.966  -7.166   3.591  0.00  0.00    +0.379 N 
ATOM     11  C   UNL     1       0.068  -6.269   2.853  0.00  0.00    -0.082 C 
ATOM     12  C   UNL     1      -0.012  -4.919   3.571  0.00  0.00    -0.010 C 
ATOM     13  H   UNL     1       0.970  -8.073   3.150  0.00  0.00    -0.086 HD
ATOM     14  H   UNL     1       0.641  -7.257   4.541  0.00  0.00    -0.086 HD
ENDROOT
BRANCH   5  15
ATOM     15  C   UNL     1      -0.070  -2.670   4.862  0.00  0.00    +0.218 C 
ATOM     16  O   UNL     1      -0.801  -2.034   4.133  0.00  0.00    -0.275 OA
ATOM     17  N   UNL     1      -0.518  -3.099   6.058  0.00  0.00    -0.311 N 
ATOM     18  H   UNL     1       0.067  -3.608   6.641  0.00  0.00    +0.149 HD
BRANCH  17  19
ATOM     19  C   UNL     1      -1.888  -2.797   6.478  0.00  0.00    +0.139 C 
BRANCH  19  20
ATOM     20  C   UNL     1      -2.136  -3.385   7.844  0.00  0.00    -0.023 A 
ATOM     21  C   UNL     1      -2.624  -4.673   7.961  0.00  0.00    +0.054 A 
ATOM     22  C   UNL     1      -2.854  -5.217   9.216  0.00  0.00    +0.165 A 
ATOM     23  C   UNL     1      -2.593  -4.466  10.355  0.00  0.00    +0.204 A 
ATOM     24  C   UNL     1      -2.102  -3.171  10.233  0.00  0.00    +0.165 A 
ATOM     25  C   UNL     1      -1.870  -2.636   8.975  0.00  0.00    +0.054 A 
BRANCH  24  26
ATOM     26  O   UNL     1      -1.845  -2.433  11.345  0.00  0.00    -0.491 OA
ATOM     27  C   UNL     1      -1.342  -1.110  11.144  0.00  0.00    +0.277 C 
ENDBRANCH  24  26
BRANCH  23  28
ATOM     28  O   UNL     1      -2.818  -4.996  11.588  0.00  0.00    -0.488 OA
ATOM     29  C   UNL     1      -1.734  -5.699  12.200  0.00  0.00    +0.277 C 
ENDBRANCH  23  28
BRANCH  22  30
ATOM     30  O   UNL     1      -3.335  -6.484   9.330  0.00  0.00    -0.491 OA
ATOM     31  C   UNL     1      -3.581  -7.197   8.117  0.00  0.00    +0.277 C 
ENDBRANCH  22  30
ENDBRANCH  19  20
ENDBRANCH  17  19
ENDBRANCH   5  15
BRANCH   1  32
ATOM     32  C   UNL     1       0.953  -0.402   0.971  0.00  0.00    +0.072 C 
ATOM     33  C   UNL     1      -0.253  -0.027   0.108  0.00  0.00    +0.017 C 
BRANCH  32  35
ATOM     34  C   UNL     1       2.097   1.769   0.501  0.00  0.00    +0.004 C 
ATOM     35  C   UNL     1       2.213   0.247   0.395  0.00  0.00    +0.009 C 
ENDBRANCH  32  35
ENDBRANCH   1  32
TORSDOF 8
