REMARK  Name = ZINC47006468
REMARK  7 active torsions:
REMARK  status: ('A' for Active; 'I' for Inactive)
REMARK    1  A    between atoms: C_1  and  C_2
REMARK    2  A    between atoms: C_2  and  C_3
REMARK    3  A    between atoms: N_15  and  C_16
REMARK    4  A    between atoms: C_16  and  C_18
REMARK    5  A    between atoms: C_16  and  C_19
REMARK    6  A    between atoms: N_22  and  C_25
REMARK    7  A    between atoms: C_23  and  C_24
REMARK                            x       y       z     vdW  Elec       q    Type
REMARK                         _______ _______ _______ _____ _____    ______ ____
ROOT
ATOM      1  C   UNL     1      -1.260  -0.879   2.747  0.00  0.00    +0.108 C 
ATOM      2  C   UNL     1      -2.090  -0.929   1.465  0.00  0.00    -0.017 A 
ATOM      3  C   UNL     1      -3.433  -1.302   1.439  0.00  0.00    +0.013 A 
ATOM      4  C   UNL     1      -4.104  -1.329   0.265  0.00  0.00    +0.046 A 
ATOM      5  S   UNL     1      -2.844  -0.814  -0.892  0.00  0.00    -0.101 S 
ATOM      6  C   UNL     1      -1.523  -0.601   0.272  0.00  0.00    -0.004 A 
ATOM      7  C   UNL     1      -0.119  -0.161   0.013  0.00  0.00    +0.062 C 
ATOM      8  C   UNL     1       0.741  -0.510   1.238  0.00  0.00    +0.115 C 
ATOM      9  N   UNL     1      -0.015  -0.158   2.450  0.00  0.00    -0.278 N 
ATOM     10  C   UNL     1       0.426   0.813   3.274  0.00  0.00    +0.303 C 
ATOM     11  O   UNL     1       1.502   1.341   3.070  0.00  0.00    -0.253 OA
ATOM     12  N   UNL     1      -0.324   1.197   4.325  0.00  0.00    -0.293 N 
ATOM     13  H   UNL     1      -1.147   0.726   4.532  0.00  0.00    +0.151 HD
ENDROOT
BRANCH   1  15
ATOM     14  C   UNL     1      -0.198  -2.244   4.550  0.00  0.00    +0.006 C 
ATOM     15  C   UNL     1      -0.938  -2.300   3.212  0.00  0.00    +0.024 C 
ENDBRANCH   1  15
BRANCH  12  16
ATOM     16  C   UNL     1       0.102   2.326   5.156  0.00  0.00    +0.105 C 
ATOM     17  C   UNL     1      -0.378   3.634   4.523  0.00  0.00    +0.033 C 
BRANCH  16  18
ATOM     18  C   UNL     1      -0.492   2.188   6.534  0.00  0.00    +0.013 A 
ATOM     19  C   UNL     1      -1.599   1.405   6.879  0.00  0.00    +0.140 A 
ATOM     20  N   UNL     1      -1.812   1.542   8.163  0.00  0.00    -0.179 NA
ATOM     21  N   UNL     1      -0.846   2.417   8.676  0.00  0.00    -0.271 N 
ATOM     22  C   UNL     1      -0.045   2.795   7.658  0.00  0.00    +0.041 A 
ATOM     23  C   UNL     1       1.134   3.729   7.754  0.00  0.00    +0.065 C 
ATOM     24  C   UNL     1      -0.723   2.842  10.073  0.00  0.00    +0.172 C 
ENDBRANCH  16  18
ENDBRANCH  12  16
TORSDOF 3
