REMARK  Name = ZINC40980404
REMARK  9 active torsions:
REMARK  status: ('A' for Active; 'I' for Inactive)
REMARK    1  A    between atoms: C_1  and  C_2
REMARK    2  A    between atoms: C_2  and  O_3
REMARK    3  A    between atoms: O_3  and  C_4
REMARK    4  A    between atoms: C_4  and  C_6
REMARK    5  A    between atoms: C_7  and  C_26
REMARK    6  A    between atoms: C_14  and  C_16
REMARK    7  A    between atoms: C_26  and  S_27
REMARK    8  A    between atoms: S_27  and  C_28
REMARK    9  A    between atoms: C_31  and  C_33
REMARK                            x       y       z     vdW  Elec       q    Type
REMARK                         _______ _______ _______ _____ _____    ______ ____
ROOT
ATOM      1  C   UNL     1      -2.792  -2.408   0.113  0.00  0.00    +0.083 C 
ATOM      2  C   UNL     1      -2.919  -3.729  -0.087  0.00  0.00    +0.033 C 
ATOM      3  N   UNL     1      -4.144  -4.343  -0.175  0.00  0.00    -0.285 N 
ATOM      4  C   UNL     1      -5.256  -3.605   0.204  0.00  0.00    +0.240 A 
ATOM      5  N   UNL     1      -6.486  -3.970   0.429  0.00  0.00    -0.092 NA
ATOM      6  N   UNL     1      -7.199  -2.951   0.769  0.00  0.00    -0.021 NA
ATOM      7  N   UNL     1      -6.476  -1.878   0.781  0.00  0.00    -0.042 NA
ATOM      8  N   UNL     1      -5.189  -2.264   0.411  0.00  0.00    -0.201 N 
ATOM      9  C   UNL     1      -3.970  -1.481   0.254  0.00  0.00    +0.183 C 
ATOM     10  H   UNL     1      -4.229  -5.256  -0.490  0.00  0.00    +0.155 HD
ENDROOT
BRANCH   9  11
ATOM     11  C   UNL     1      -4.086  -0.623  -0.980  0.00  0.00    +0.007 A 
ATOM     12  C   UNL     1      -4.272  -1.055  -2.237  0.00  0.00    +0.089 A 
ATOM     13  N   UNL     1      -4.327   0.012  -3.093  0.00  0.00    -0.360 N 
ATOM     14  H   UNL     1      -4.455  -0.050  -4.053  0.00  0.00    +0.165 HD
ATOM     15  C   UNL     1      -4.173   1.185  -2.389  0.00  0.00    +0.047 A 
ATOM     16  C   UNL     1      -4.022   0.839  -1.034  0.00  0.00    +0.005 A 
ATOM     17  C   UNL     1      -3.851   1.839  -0.075  0.00  0.00    +0.010 A 
ATOM     18  C   UNL     1      -3.836   3.151  -0.458  0.00  0.00    +0.001 A 
ATOM     19  C   UNL     1      -3.990   3.498  -1.793  0.00  0.00    +0.002 A 
ATOM     20  C   UNL     1      -4.150   2.526  -2.757  0.00  0.00    +0.026 A 
ENDBRANCH   9  11
BRANCH   1  21
ATOM     21  C   UNL     1      -1.492  -1.863   0.202  0.00  0.00    +0.339 C 
ATOM     22  O   UNL     1      -1.008  -1.619   1.292  0.00  0.00    -0.245 OA
BRANCH  21  23
ATOM     23  O   UNL     1      -0.787  -1.612  -0.921  0.00  0.00    -0.462 OA
BRANCH  23  25
ATOM     24  C   UNL     1       1.160  -0.846  -2.130  0.00  0.00    +0.048 C 
ATOM     25  C   UNL     1       0.521  -1.060  -0.756  0.00  0.00    +0.229 C 
ENDBRANCH  23  25
ENDBRANCH  21  23
ENDBRANCH   1  21
BRANCH   2  26
ATOM     26  C   UNL     1      -1.674  -4.567  -0.222  0.00  0.00    +0.127 C 
BRANCH  26  27
ATOM     27  S   UNL     1      -1.419  -5.519   1.301  0.00  0.00    -0.091 S 
BRANCH  27  28
ATOM     28  C   UNL     1       0.054  -6.434   0.990  0.00  0.00    +0.159 A 
ATOM     29  N   UNL     1       0.836  -6.455  -0.085  0.00  0.00    -0.134 NA
ATOM     30  N   UNL     1       1.868  -7.177  -0.143  0.00  0.00    -0.140 NA
ATOM     31  C   UNL     1       2.234  -7.960   0.864  0.00  0.00    +0.133 A 
ATOM     32  S   UNL     1       0.929  -7.596   2.034  0.00  0.00    -0.039 S 
BRANCH  31  33
ATOM     33  C   UNL     1       3.393  -8.869   0.986  0.00  0.00    +0.009 A 
ATOM     34  C   UNL     1       3.582  -9.611   2.153  0.00  0.00    +0.010 A 
ATOM     35  C   UNL     1       4.665 -10.458   2.261  0.00  0.00    +0.001 A 
ATOM     36  C   UNL     1       5.565 -10.572   1.216  0.00  0.00    +0.000 A 
ATOM     37  C   UNL     1       5.385  -9.838   0.057  0.00  0.00    +0.001 A 
ATOM     38  C   UNL     1       4.302  -8.992  -0.067  0.00  0.00    +0.010 A 
ENDBRANCH  31  33
ENDBRANCH  27  28
ENDBRANCH  26  27
ENDBRANCH   2  26
TORSDOF 8
