REMARK  Name = ZINC40313098
REMARK  11 active torsions:
REMARK  status: ('A' for Active; 'I' for Inactive)
REMARK    1  A    between atoms: C_1  and  C_2
REMARK    2  A    between atoms: C_5  and  O_8
REMARK    3  A    between atoms: O_8  and  C_9
REMARK    4  A    between atoms: C_9  and  C_10
REMARK    5  A    between atoms: C_10  and  C_12
REMARK    6  A    between atoms: C_10  and  O_36
REMARK    7  A    between atoms: C_12  and  N_13
REMARK    8  A    between atoms: N_13  and  C_14
REMARK    9  A    between atoms: N_13  and  C_28
REMARK   10  A    between atoms: C_14  and  C_15
REMARK   11  A    between atoms: C_18  and  C_20
REMARK                            x       y       z     vdW  Elec       q    Type
REMARK                         _______ _______ _______ _____ _____    ______ ____
ROOT
ATOM      1  N   UNL     1      -0.007  -8.623   2.430  0.00  0.00    +0.389 N 
ATOM      2  H   UNL     1      -0.829  -9.200   2.333  0.00  0.00    -0.081 HD
ENDROOT
BRANCH   1   3
ATOM      3  C   UNL     1       1.095  -9.206   1.653  0.00  0.00    -0.045 C 
ATOM      4  C   UNL     1       1.051 -10.739   1.757  0.00  0.00    +0.009 C 
ATOM      5  C   UNL     1       2.371 -11.343   1.220  0.00  0.00    +0.164 C 
ATOM      6  S   UNL     1       3.588 -10.002   1.540  0.00  0.00    -0.033 S 
ATOM      7  O   UNL     1       4.108  -9.544   0.299  0.00  0.00    -0.174 OA
ATOM      8  O   UNL     1       4.483 -10.424   2.560  0.00  0.00    -0.174 OA
ATOM      9  C   UNL     1       2.457  -8.720   2.227  0.00  0.00    +0.151 C 
ENDBRANCH   1   3
BRANCH   1  10
ATOM     10  C   UNL     1      -0.296  -7.271   1.933  0.00  0.00    -0.043 C 
BRANCH  10  11
ATOM     11  C   UNL     1      -0.850  -7.359   0.510  0.00  0.00    +0.135 C 
BRANCH  11  12
ATOM     12  O   UNL     1      -2.053  -8.131   0.513  0.00  0.00    -0.390 OA
ATOM     13  H   UNL     1      -2.753  -7.764   1.070  0.00  0.00    +0.210 HD
ENDBRANCH  11  12
BRANCH  11  14
ATOM     14  C   UNL     1      -1.149  -5.951  -0.009  0.00  0.00    +0.258 C 
BRANCH  14  15
ATOM     15  O   UNL     1      -1.556  -6.024  -1.377  0.00  0.00    -0.489 OA
BRANCH  15  20
ATOM     16  C   UNL     1      -2.820  -1.166  -3.931  0.00  0.00    +0.044 C 
ATOM     17  C   UNL     1      -2.482  -2.466  -3.248  0.00  0.00    -0.050 A 
ATOM     18  C   UNL     1      -2.572  -3.656  -3.945  0.00  0.00    +0.007 A 
ATOM     19  C   UNL     1      -2.263  -4.849  -3.321  0.00  0.00    +0.046 A 
ATOM     20  C   UNL     1      -1.860  -4.852  -1.993  0.00  0.00    +0.121 A 
ATOM     21  C   UNL     1      -1.770  -3.656  -1.296  0.00  0.00    +0.046 A 
ATOM     22  C   UNL     1      -2.076  -2.465  -1.926  0.00  0.00    +0.007 A 
ENDBRANCH  15  20
ENDBRANCH  14  15
ENDBRANCH  11  14
ENDBRANCH  10  11
ENDBRANCH   1  10
BRANCH   1  23
ATOM     23  C   UNL     1       0.377  -8.552   3.846  0.00  0.00    -0.003 C 
BRANCH  23  24
ATOM     24  C   UNL     1       0.539  -9.947   4.393  0.00  0.00    +0.089 A 
ATOM     25  C   UNL     1       1.703 -10.514   4.767  0.00  0.00    +0.043 A 
ATOM     26  C   UNL     1       1.403 -11.816   5.215  0.00  0.00    +0.050 A 
ATOM     27  C   UNL     1       0.058 -11.973   5.089  0.00  0.00    +0.137 A 
ATOM     28  O   UNL     1      -0.453 -10.829   4.595  0.00  0.00    -0.462 OA
BRANCH  27  29
ATOM     29  C   UNL     1      -0.710 -13.187   5.439  0.00  0.00    +0.037 A 
ATOM     30  C   UNL     1      -0.297 -14.436   4.973  0.00  0.00    +0.033 A 
ATOM     31  C   UNL     1      -1.018 -15.566   5.303  0.00  0.00    +0.042 A 
ATOM     32  C   UNL     1      -2.150 -15.461   6.095  0.00  0.00    +0.021 A 
ATOM     33  C   UNL     1      -2.565 -14.226   6.560  0.00  0.00    +0.022 A 
ATOM     34  C   UNL     1      -1.849 -13.089   6.241  0.00  0.00    +0.052 A 
ATOM     35 CL   UNL     1      -2.367 -11.541   6.831  0.00  0.00    -0.083 Cl
ATOM     36 CL   UNL     1      -0.507 -17.120   4.725  0.00  0.00    -0.084 Cl
ENDBRANCH  27  29
ENDBRANCH  23  24
ENDBRANCH   1  23
TORSDOF 10
