REMARK  Name = ZINC20583400
REMARK  11 active torsions:
REMARK  status: ('A' for Active; 'I' for Inactive)
REMARK    1  A    between atoms: C_1  and  C_2
REMARK    2  A    between atoms: C_2  and  C_3
REMARK    3  A    between atoms: C_3  and  C_4
REMARK    4  A    between atoms: C_4  and  O_5
REMARK    5  A    between atoms: O_5  and  C_6
REMARK    6  A    between atoms: C_6  and  C_8
REMARK    7  A    between atoms: C_9  and  N_29
REMARK    8  A    between atoms: C_18  and  C_24
REMARK    9  A    between atoms: C_19  and  C_23
REMARK   10  A    between atoms: C_24  and  O_26
REMARK   11  A    between atoms: O_26  and  C_27
REMARK                            x       y       z     vdW  Elec       q    Type
REMARK                         _______ _______ _______ _____ _____    ______ ____
ROOT
ATOM      1  C   UNL     1      -0.053   0.854   4.835  0.00  0.00    +0.117 C 
ATOM      2  C   UNL     1      -0.373   1.466   6.006  0.00  0.00    +0.196 C 
ATOM      3  O   UNL     1       0.326   1.251   7.131  0.00  0.00    -0.441 OA
ATOM      4  C   UNL     1       1.573   0.723   7.074  0.00  0.00    +0.135 A 
ATOM      5  C   UNL     1       2.421   0.855   8.167  0.00  0.00    +0.048 A 
ATOM      6  C   UNL     1       3.693   0.321   8.126  0.00  0.00    +0.019 A 
ATOM      7  C   UNL     1       4.126  -0.347   6.994  0.00  0.00    +0.018 A 
ATOM      8  C   UNL     1       3.286  -0.479   5.904  0.00  0.00    +0.024 A 
ATOM      9  C   UNL     1       2.011   0.055   5.941  0.00  0.00    +0.020 A 
ATOM     10  C   UNL     1       1.103  -0.097   4.752  0.00  0.00    +0.145 C 
ATOM     11  C   UNL     1       0.611  -1.522   4.638  0.00  0.00    +0.077 C 
ATOM     12  C   UNL     1       1.070  -1.977   3.456  0.00  0.00    +0.019 C 
ATOM     13  N   UNL     1       1.795  -1.035   2.787  0.00  0.00    -0.288 N 
ATOM     14  C   UNL     1       1.877   0.123   3.471  0.00  0.00    +0.237 C 
ATOM     15  O   UNL     1       2.451   1.135   3.130  0.00  0.00    -0.274 OA
ATOM     16  C   UNL     1       0.814  -3.367   2.933  0.00  0.00    +0.061 C 
ATOM     17 BR   UNL     1       5.869  -1.080   6.938  0.00  0.00    -0.050 Br
ATOM     18  H   UNL     1       2.232  -1.271   1.806  0.00  0.00    +0.155 HD
ENDROOT
BRANCH   2  19
ATOM     19  N   UNL     1      -1.439   2.325   6.038  0.00  0.00    -0.329 N 
ATOM     20  H   UNL     1      -1.712   2.828   6.978  0.00  0.00    +0.145 HD
ATOM     21  H   UNL     1      -2.023   2.511   5.125  0.00  0.00    +0.145 HD
ENDBRANCH   2  19
BRANCH   1  22
ATOM     22  C   UNL     1      -0.819   1.112   3.690  0.00  0.00    +0.342 C 
ATOM     23  O   UNL     1      -1.827   1.791   3.771  0.00  0.00    -0.245 OA
BRANCH  22  24
ATOM     24  O   UNL     1      -0.440   0.607   2.496  0.00  0.00    -0.461 OA
BRANCH  24  25
ATOM     25  C   UNL     1      -1.267   0.910   1.371  0.00  0.00    +0.232 C 
BRANCH  25  26
ATOM     26  C   UNL     1      -0.682   0.257   0.117  0.00  0.00    +0.041 C 
BRANCH  26  28
ATOM     27  C   UNL     1      -0.983  -0.072  -2.342  0.00  0.00    +0.004 C 
ATOM     28  C   UNL     1      -1.568   0.581  -1.088  0.00  0.00    -0.000 C 
ENDBRANCH  26  28
ENDBRANCH  25  26
ENDBRANCH  24  25
ENDBRANCH  22  24
ENDBRANCH   1  22
BRANCH  11  29
ATOM     29  C   UNL     1      -0.171  -2.232   5.579  0.00  0.00    +0.338 C 
ATOM     30  O   UNL     1      -0.497  -3.382   5.355  0.00  0.00    -0.245 OA
BRANCH  29  31
ATOM     31  O   UNL     1      -0.555  -1.633   6.726  0.00  0.00    -0.465 OA
ATOM     32  C   UNL     1      -1.344  -2.409   7.630  0.00  0.00    +0.280 C 
ENDBRANCH  29  31
ENDBRANCH  11  29
TORSDOF 8
