REMARK  Name = ZINC38651161
REMARK  7 active torsions:
REMARK  status: ('A' for Active; 'I' for Inactive)
REMARK    1  A    between atoms: C_3  and  C_8
REMARK    2  A    between atoms: C_13  and  O_22
REMARK    3  A    between atoms: C_17  and  N_21
REMARK    4  A    between atoms: C_18  and  C_19
REMARK    5  A    between atoms: O_22  and  C_23
REMARK    6  A    between atoms: C_23  and  C_25
REMARK    7  A    between atoms: C_26  and  C_27
REMARK                            x       y       z     vdW  Elec       q    Type
REMARK                         _______ _______ _______ _____ _____    ______ ____
ROOT
ATOM      1  C   UNL     1       3.724   2.170   0.014  0.00  0.00    +0.098 C 
ATOM      2  C   UNL     1       4.487   1.832  -1.239  0.00  0.00    +0.008 A 
ATOM      3  C   UNL     1       4.037   2.305  -2.459  0.00  0.00    +0.012 A 
ATOM      4  C   UNL     1       4.725   2.006  -3.618  0.00  0.00    +0.047 A 
ATOM      5  C   UNL     1       5.873   1.227  -3.562  0.00  0.00    +0.135 A 
ATOM      6  C   UNL     1       6.326   0.752  -2.342  0.00  0.00    +0.093 A 
ATOM      7  C   UNL     1       5.633   1.054  -1.177  0.00  0.00    +0.138 A 
ATOM      8  O   UNL     1       6.089   0.581   0.008  0.00  0.00    -0.441 OA
ATOM      9  C   UNL     1       5.691   1.153   1.156  0.00  0.00    +0.199 C 
ATOM     10  C   UNL     1       4.578   1.917   1.224  0.00  0.00    +0.098 C 
ENDROOT
BRANCH   1  13
ATOM     11  C   UNL     1       0.100   1.121   0.185  0.00  0.00    +0.002 A 
ATOM     12  C   UNL     1       1.237   1.906   0.116  0.00  0.00    +0.004 A 
ATOM     13  C   UNL     1       2.485   1.314   0.089  0.00  0.00    -0.033 A 
ATOM     14  C   UNL     1       2.599  -0.063   0.132  0.00  0.00    +0.024 A 
ATOM     15  C   UNL     1       1.462  -0.849   0.201  0.00  0.00    +0.041 A 
ATOM     16  C   UNL     1       0.212  -0.256   0.228  0.00  0.00    +0.020 A 
ATOM     17 CL   UNL     1       1.604  -2.578   0.253  0.00  0.00    -0.084 Cl
ENDBRANCH   1  13
BRANCH   9  18
ATOM     18  N   UNL     1       6.435   0.955   2.293  0.00  0.00    -0.328 N 
ATOM     19  H   UNL     1       7.235   0.409   2.259  0.00  0.00    +0.145 HD
ATOM     20  H   UNL     1       6.160   1.362   3.129  0.00  0.00    +0.145 HD
ENDBRANCH   9  18
BRANCH  10  21
ATOM     21  C   UNL     1       4.207   2.498   2.479  0.00  0.00    +0.101 C 
ATOM     22  N   UNL     1       3.912   2.959   3.475  0.00  0.00    -0.191 NA
ENDBRANCH  10  21
BRANCH   5  23
ATOM     23  O   UNL     1       6.551   0.932  -4.702  0.00  0.00    -0.423 OA
BRANCH  23  24
ATOM     24  C   UNL     1       6.531  -0.344  -5.139  0.00  0.00    +0.337 C 
ATOM     25  O   UNL     1       5.834  -1.168  -4.578  0.00  0.00    -0.245 OA
BRANCH  24  26
ATOM     26  C   UNL     1       7.345  -0.737  -6.287  0.00  0.00    +0.092 C 
ATOM     27  C   UNL     1       7.325  -2.014  -6.724  0.00  0.00    +0.016 C 
BRANCH  27  28
ATOM     28  C   UNL     1       8.144  -2.409  -7.879  0.00  0.00    -0.006 A 
ATOM     29  C   UNL     1       8.952  -1.466  -8.524  0.00  0.00    +0.011 A 
ATOM     30  C   UNL     1       9.717  -1.843  -9.606  0.00  0.00    +0.020 A 
ATOM     31  C   UNL     1       9.690  -3.154 -10.056  0.00  0.00    +0.042 A 
ATOM     32  C   UNL     1       8.894  -4.094  -9.424  0.00  0.00    +0.040 A 
ATOM     33  C   UNL     1       8.126  -3.732  -8.336  0.00  0.00    +0.049 A 
ATOM     34 CL   UNL     1       7.133  -4.914  -7.540  0.00  0.00    -0.083 Cl
ATOM     35 CL   UNL     1      10.659  -3.619 -11.419  0.00  0.00    -0.083 Cl
ENDBRANCH  27  28
ENDBRANCH  24  26
ENDBRANCH  23  24
ENDBRANCH   5  23
TORSDOF 7
