REMARK  Name = ZINC14158141
REMARK  9 active torsions:
REMARK  status: ('A' for Active; 'I' for Inactive)
REMARK    1  A    between atoms: C_1  and  C_2
REMARK    2  A    between atoms: C_4  and  C_37
REMARK    3  A    between atoms: N_10  and  C_11
REMARK    4  A    between atoms: C_11  and  N_13
REMARK    5  A    between atoms: N_13  and  C_14
REMARK    6  A    between atoms: C_17  and  C_20
REMARK    7  A    between atoms: N_24  and  C_25
REMARK    8  A    between atoms: C_25  and  C_26
REMARK    9  A    between atoms: C_26  and  C_27
REMARK                            x       y       z     vdW  Elec       q    Type
REMARK                         _______ _______ _______ _____ _____    ______ ____
ROOT
ATOM      1  C   UNL     1      -6.876  -4.854  -6.037  0.00  0.00    +0.066 C 
ATOM      2  C   UNL     1      -5.893  -3.725  -6.209  0.00  0.00    +0.044 A 
ATOM      3  C   UNL     1      -5.467  -3.352  -7.474  0.00  0.00    +0.046 A 
ATOM      4  C   UNL     1      -4.563  -2.307  -7.587  0.00  0.00    +0.044 A 
ATOM      5  N   UNL     1      -4.136  -1.702  -6.491  0.00  0.00    -0.217 NA
ATOM      6  C   UNL     1      -4.563  -2.083  -5.297  0.00  0.00    +0.231 A 
ATOM      7  N   UNL     1      -5.423  -3.080  -5.154  0.00  0.00    -0.217 NA
ATOM      8  N   UNL     1      -4.094  -1.425  -4.168  0.00  0.00    -0.297 N 
ATOM      9  C   UNL     1      -4.434  -1.878  -2.921  0.00  0.00    +0.195 C 
ATOM     10  N   UNL     1      -5.114  -3.004  -2.790  0.00  0.00    -0.159 NA
ATOM     11  N   UNL     1      -4.071  -1.166  -1.815  0.00  0.00    -0.357 N 
ATOM     12  C   UNL     1      -4.072  -1.867  -8.942  0.00  0.00    +0.066 C 
ATOM     13  H   UNL     1      -3.449  -0.541  -4.275  0.00  0.00    +0.171 HD
ATOM     14  H   UNL     1      -4.410  -1.488  -0.819  0.00  0.00    +0.162 HD
ENDROOT
BRANCH  10  15
ATOM     15  C   UNL     1      -5.568  -3.376  -1.584  0.00  0.00    +0.161 C 
ATOM     16  S   UNL     1      -6.740  -2.423  -0.779  0.00  0.00    -0.016 S 
BRANCH  15  17
ATOM     17  N   UNL     1      -5.101  -4.500  -1.006  0.00  0.00    -0.295 N 
ATOM     18  H   UNL     1      -4.278  -5.060  -1.476  0.00  0.00    +0.154 HD
BRANCH  17  19
ATOM     19  C   UNL     1      -5.661  -4.955   0.192  0.00  0.00    +0.033 A 
ATOM     20  C   UNL     1      -4.847  -5.485   1.184  0.00  0.00    +0.024 A 
ATOM     21  C   UNL     1      -5.403  -5.929   2.368  0.00  0.00    +0.014 A 
ATOM     22  C   UNL     1      -6.771  -5.856   2.561  0.00  0.00    +0.055 A 
ATOM     23  C   UNL     1      -7.585  -5.335   1.572  0.00  0.00    +0.014 A 
ATOM     24  C   UNL     1      -7.034  -4.884   0.389  0.00  0.00    +0.024 A 
BRANCH  22  25
ATOM     25  C   UNL     1      -7.375  -6.346   3.852  0.00  0.00    +0.417 C 
ATOM     26  F   UNL     1      -7.699  -7.702   3.729  0.00  0.00    -0.166 F 
ATOM     27  F   UNL     1      -6.453  -6.180   4.891  0.00  0.00    -0.166 F 
ATOM     28  F   UNL     1      -8.532  -5.613   4.133  0.00  0.00    -0.166 F 
ENDBRANCH  22  25
ENDBRANCH  17  19
ENDBRANCH  15  17
ENDBRANCH  10  15
BRANCH  11  29
ATOM     29  C   UNL     1      -3.230   0.025  -1.953  0.00  0.00    +0.120 C 
BRANCH  29  30
ATOM     30  C   UNL     1      -2.871   0.560  -0.565  0.00  0.00    +0.058 C 
BRANCH  30  31
ATOM     31  C   UNL     1      -2.107   1.851  -0.707  0.00  0.00    -0.021 A 
ATOM     32  C   UNL     1      -0.775   2.002  -0.641  0.00  0.00    +0.087 A 
ATOM     33  N   UNL     1      -0.445   3.319  -0.815  0.00  0.00    -0.360 N 
ATOM     34  H   UNL     1       0.610   3.629  -0.791  0.00  0.00    +0.165 HD
ATOM     35  C   UNL     1      -1.586   4.067  -1.001  0.00  0.00    +0.047 A 
ATOM     36  C   UNL     1      -2.677   3.180  -0.942  0.00  0.00    +0.003 A 
ATOM     37  C   UNL     1      -3.977   3.665  -1.095  0.00  0.00    +0.010 A 
ATOM     38  C   UNL     1      -4.183   4.999  -1.311  0.00  0.00    +0.001 A 
ATOM     39  C   UNL     1      -3.110   5.877  -1.370  0.00  0.00    +0.002 A 
ATOM     40  C   UNL     1      -1.819   5.421  -1.217  0.00  0.00    +0.026 A 
ENDBRANCH  30  31
ENDBRANCH  29  30
ENDBRANCH  11  29
TORSDOF 7
