REMARK  Name = ZINC21032478
REMARK  7 active torsions:
REMARK  status: ('A' for Active; 'I' for Inactive)
REMARK    1  A    between atoms: C_1  and  C_2
REMARK    2  A    between atoms: C_5  and  C_20
REMARK    3  A    between atoms: C_7  and  S_8
REMARK    4  A    between atoms: S_8  and  N_11
REMARK    5  A    between atoms: N_11  and  C_12
REMARK    6  A    between atoms: C_17  and  C_18
REMARK    7  A    between atoms: C_23  and  C_25
REMARK                            x       y       z     vdW  Elec       q    Type
REMARK                         _______ _______ _______ _____ _____    ______ ____
ROOT
ATOM      1  C   UNL     1      -0.369   3.804   1.186  0.00  0.00    +0.046 C 
ATOM      2  C   UNL     1       0.823   3.390   2.010  0.00  0.00    -0.024 A 
ATOM      3  C   UNL     1       1.036   3.965   3.250  0.00  0.00    +0.006 A 
ATOM      4  C   UNL     1       2.124   3.591   4.010  0.00  0.00    +0.012 A 
ATOM      5  C   UNL     1       3.013   2.629   3.525  0.00  0.00    +0.021 A 
ATOM      6  C   UNL     1       2.789   2.049   2.275  0.00  0.00    +0.040 A 
ATOM      7  C   UNL     1       1.699   2.437   1.523  0.00  0.00    +0.112 A 
ENDROOT
BRANCH   5   8
ATOM      8  C   UNL     1       4.181   2.223   4.333  0.00  0.00    +0.155 A 
ATOM      9  C   UNL     1       4.523   2.699   5.558  0.00  0.00    +0.161 A 
ATOM     10  N   UNL     1       5.643   2.067   5.939  0.00  0.00    -0.221 NA
ATOM     11  C   UNL     1       6.001   1.238   4.999  0.00  0.00    +0.193 A 
ATOM     12  O   UNL     1       5.118   1.311   3.993  0.00  0.00    -0.440 OA
ATOM     13  C   UNL     1       7.212   0.342   5.037  0.00  0.00    +0.109 C 
ENDBRANCH   5   8
BRANCH   7  14
ATOM     14  S   UNL     1       1.419   1.711  -0.058  0.00  0.00    +0.073 S 
ATOM     15  O   UNL     1       0.058   1.303  -0.082  0.00  0.00    -0.150 OA
ATOM     16  O   UNL     1       2.489   0.804  -0.284  0.00  0.00    -0.150 OA
BRANCH  14  17
ATOM     17  N   UNL     1       1.573   2.915  -1.184  0.00  0.00    -0.216 N 
ATOM     18  H   UNL     1       0.724   3.171  -1.835  0.00  0.00    +0.174 HD
BRANCH  17  19
ATOM     19  C   UNL     1       2.781   3.606  -1.307  0.00  0.00    +0.051 A 
ATOM     20  C   UNL     1       3.986   2.941  -1.118  0.00  0.00    +0.026 A 
ATOM     21  C   UNL     1       5.178   3.626  -1.240  0.00  0.00    +0.022 A 
ATOM     22  C   UNL     1       5.174   4.975  -1.550  0.00  0.00    +0.041 A 
ATOM     23  C   UNL     1       3.975   5.641  -1.738  0.00  0.00    +0.025 A 
ATOM     24  C   UNL     1       2.780   4.958  -1.623  0.00  0.00    -0.027 A 
ATOM     25  C   UNL     1       1.475   5.682  -1.835  0.00  0.00    +0.046 C 
ATOM     26 CL   UNL     1       6.675   5.834  -1.703  0.00  0.00    -0.084 Cl
ENDBRANCH  17  19
ENDBRANCH  14  17
ENDBRANCH   7  14
TORSDOF 4
