REMARK  Name = ZINC42080376
REMARK  5 active torsions:
REMARK  status: ('A' for Active; 'I' for Inactive)
REMARK    1  A    between atoms: C_1  and  C_2
REMARK    2  A    between atoms: C_7  and  C_8
REMARK    3  A    between atoms: C_8  and  C_10
REMARK    4  A    between atoms: C_8  and  N_11
REMARK    5  A    between atoms: N_11  and  C_12
REMARK                            x       y       z     vdW  Elec       q    Type
REMARK                         _______ _______ _______ _____ _____    ______ ____
ROOT
ATOM      1  N   UNL     1      -0.426  -0.849   3.579  0.00  0.00    +0.394 N 
ATOM      2  H   UNL     1      -1.326  -1.237   3.338  0.00  0.00    -0.083 HD
ATOM      3  H   UNL     1       0.241  -1.597   3.696  0.00  0.00    -0.083 HD
ENDROOT
BRANCH   1   4
ATOM      4  C   UNL     1      -0.539  -0.091   4.832  0.00  0.00    +0.050 C 
ATOM      5  C   UNL     1      -0.929  -1.006   5.971  0.00  0.00    -0.030 A 
ATOM      6  C   UNL     1      -0.322  -2.102   6.541  0.00  0.00    +0.004 A 
ATOM      7  C   UNL     1      -0.930  -2.756   7.598  0.00  0.00    +0.001 A 
ATOM      8  C   UNL     1      -2.147  -2.305   8.078  0.00  0.00    +0.017 A 
ATOM      9  C   UNL     1      -2.757  -1.207   7.508  0.00  0.00    +0.039 A 
ATOM     10  C   UNL     1      -2.150  -0.542   6.443  0.00  0.00    +0.049 A 
ATOM     11  N   UNL     1      -2.560   0.572   5.709  0.00  0.00    -0.285 N 
ATOM     12  C   UNL     1      -1.676   0.905   4.749  0.00  0.00    +0.208 C 
ATOM     13  O   UNL     1      -1.771   1.826   3.966  0.00  0.00    -0.277 OA
ATOM     14 BR   UNL     1      -4.421  -0.601   8.172  0.00  0.00    -0.048 Br
ATOM     15  H   UNL     1      -3.386   1.053   5.873  0.00  0.00    +0.155 HD
ENDBRANCH   1   4
BRANCH   1  16
ATOM     16  C   UNL     1       0.025   0.045   2.504  0.00  0.00    -0.042 C 
ATOM     17  C   UNL     1       1.442   0.534   2.810  0.00  0.00    -0.009 C 
BRANCH  16  24
ATOM     18  C   UNL     1      -0.018   1.503   0.010  0.00  0.00    +0.044 C 
ATOM     19  C   UNL     1       0.002  -0.004   0.002  0.00  0.00    -0.049 A 
ATOM     20  C   UNL     1       0.006  -0.689  -1.199  0.00  0.00    +0.003 A 
ATOM     21  C   UNL     1       0.025  -2.071  -1.207  0.00  0.00    +0.000 A 
ATOM     22  C   UNL     1       0.040  -2.768  -0.013  0.00  0.00    +0.000 A 
ATOM     23  C   UNL     1       0.037  -2.084   1.188  0.00  0.00    +0.002 A 
ATOM     24  C   UNL     1       0.023  -0.702   1.195  0.00  0.00    -0.059 A 
ENDBRANCH  16  24
ENDBRANCH   1  16
TORSDOF 3
