REMARK  Name = ZINC20707388
REMARK  6 active torsions:
REMARK  status: ('A' for Active; 'I' for Inactive)
REMARK    1  A    between atoms: C_1  and  C_2
REMARK    2  A    between atoms: C_2  and  C_3
REMARK    3  A    between atoms: C_2  and  O_4
REMARK    4  A    between atoms: O_4  and  C_5
REMARK    5  A    between atoms: C_18  and  C_21
REMARK    6  A    between atoms: C_26  and  O_27
REMARK                            x       y       z     vdW  Elec       q    Type
REMARK                         _______ _______ _______ _____ _____    ______ ____
ROOT
ATOM      1  C   UNL     1      -5.110   3.477   1.975  0.00  0.00    +0.121 A 
ATOM      2  C   UNL     1      -4.752   3.637   3.305  0.00  0.00    +0.047 A 
ATOM      3  C   UNL     1      -3.516   3.211   3.746  0.00  0.00    +0.027 A 
ATOM      4  C   UNL     1      -2.620   2.621   2.863  0.00  0.00    +0.032 A 
ATOM      5  C   UNL     1      -2.990   2.451   1.524  0.00  0.00    -0.016 A 
ATOM      6  C   UNL     1      -4.224   2.882   1.089  0.00  0.00    +0.051 A 
ATOM      7  C   UNL     1      -2.014   1.800   0.624  0.00  0.00    +0.049 C 
ATOM      8  C   UNL     1      -2.001   2.060  -0.839  0.00  0.00    -0.023 C 
ATOM      9  C   UNL     1      -0.750   1.974  -1.274  0.00  0.00    -0.030 C 
ATOM     10  C   UNL     1       0.191   1.676  -0.105  0.00  0.00    +0.033 C 
ATOM     11  C   UNL     1      -0.594   2.255   1.080  0.00  0.00    +0.029 C 
ATOM     12  C   UNL     1      -0.377   1.579   2.431  0.00  0.00    +0.108 C 
ATOM     13  N   UNL     1      -1.362   2.216   3.333  0.00  0.00    -0.336 N 
ATOM     14  H   UNL     1      -1.113   2.379   4.392  0.00  0.00    +0.147 HD
ENDROOT
BRANCH  12  15
ATOM     15  C   UNL     1       1.023   1.835   2.925  0.00  0.00    +0.014 A 
ATOM     16  C   UNL     1       1.270   2.881   3.794  0.00  0.00    +0.009 A 
ATOM     17  C   UNL     1       2.554   3.116   4.248  0.00  0.00    +0.001 A 
ATOM     18  C   UNL     1       3.595   2.306   3.834  0.00  0.00    +0.004 A 
ATOM     19  C   UNL     1       3.355   1.260   2.965  0.00  0.00    +0.046 A 
ATOM     20  C   UNL     1       2.066   1.018   2.512  0.00  0.00    +0.122 A 
BRANCH  20  21
ATOM     21  O   UNL     1       1.825  -0.014   1.662  0.00  0.00    -0.506 OA
ATOM     22  H   UNL     1       2.652  -0.661   1.335  0.00  0.00    +0.292 HD
ENDBRANCH  20  21
ENDBRANCH  12  15
BRANCH   1  23
ATOM     23  O   UNL     1      -6.327   3.901   1.540  0.00  0.00    -0.489 OA
BRANCH  23  25
ATOM     24  C   UNL     1      -6.940   5.874   2.795  0.00  0.00    +0.051 C 
ATOM     25  C   UNL     1      -7.232   4.396   2.529  0.00  0.00    +0.167 C 
ATOM     26  C   UNL     1      -8.669   4.242   2.026  0.00  0.00    +0.051 C 
ENDBRANCH  23  25
ENDBRANCH   1  23
TORSDOF 4
