REMARK  Name = ZINC08996596
REMARK  13 active torsions:
REMARK  status: ('A' for Active; 'I' for Inactive)
REMARK    1  A    between atoms: C_1  and  C_2
REMARK    2  A    between atoms: C_2  and  O_3
REMARK    3  A    between atoms: O_3  and  C_4
REMARK    4  A    between atoms: C_6  and  C_16
REMARK    5  A    between atoms: C_8  and  O_13
REMARK    6  A    between atoms: C_9  and  O_10
REMARK    7  A    between atoms: O_10  and  C_11
REMARK    8  A    between atoms: C_11  and  C_12
REMARK    9  A    between atoms: O_13  and  C_14
REMARK   10  A    between atoms: C_14  and  C_15
REMARK   11  A    between atoms: N_18  and  C_19
REMARK   12  A    between atoms: C_19  and  C_21
REMARK   13  A    between atoms: C_19  and  C_22
REMARK                            x       y       z     vdW  Elec       q    Type
REMARK                         _______ _______ _______ _____ _____    ______ ____
ROOT
ATOM      1  C   UNL     1      -0.273   9.669   2.685  0.00  0.00    +0.156 C 
ATOM      2  C   UNL     1       0.157  10.493   1.470  0.00  0.00    +0.038 C 
ENDROOT
BRANCH   1   3
ATOM      3  C   UNL     1       0.442  10.174   3.912  0.00  0.00    +0.236 C 
ATOM      4  O   UNL     1       1.398   9.568   4.349  0.00  0.00    -0.274 OA
ATOM      5  N   UNL     1       0.018  11.297   4.525  0.00  0.00    -0.300 N 
ATOM      6  C   UNL     1      -1.199  11.984   4.072  0.00  0.00    +0.107 C 
ATOM      7  C   UNL     1      -2.136  12.160   5.277  0.00  0.00    +0.013 C 
ATOM      8  C   UNL     1      -1.387  12.881   6.399  0.00  0.00    -0.022 C 
ATOM      9  C   UNL     1      -0.186  12.044   6.839  0.00  0.00    +0.013 C 
ATOM     10  C   UNL     1       0.769  11.862   5.654  0.00  0.00    +0.107 C 
ATOM     11  C   UNL     1      -2.311  13.100   7.567  0.00  0.00    +0.027 A 
ATOM     12  C   UNL     1      -2.390  14.263   8.253  0.00  0.00    +0.059 A 
ATOM     13  N   UNL     1      -3.301  14.114   9.215  0.00  0.00    -0.241 NA
ATOM     14  C   UNL     1      -3.791  12.902   9.156  0.00  0.00    +0.196 A 
ATOM     15  N   UNL     1      -3.194  12.239   8.138  0.00  0.00    -0.349 N 
ATOM     16  H   UNL     1      -3.370  11.295   7.859  0.00  0.00    +0.166 HD
ATOM     17  C   UNL     1      -1.553  15.473   7.918  0.00  0.00    +0.038 C 
ATOM     18  C   UNL     1      -0.398  15.013   7.018  0.00  0.00    -0.075 C 
ATOM     19  N   UNL     1      -0.925  14.197   5.904  0.00  0.00    +0.387 N 
ATOM     20  H   UNL     1      -1.713  14.689   5.468  0.00  0.00    -0.085 HD
ATOM     21  H   UNL     1      -0.182  14.055   5.210  0.00  0.00    -0.085 HD
ENDBRANCH   1   3
BRANCH   1  24
ATOM     22  C   UNL     1      -0.779   7.462   1.787  0.00  0.00    +0.245 C 
ATOM     23  O   UNL     1      -1.824   7.909   1.356  0.00  0.00    -0.270 OA
ATOM     24  N   UNL     1       0.067   8.261   2.466  0.00  0.00    -0.300 N 
ATOM     25  H   UNL     1       0.901   7.904   2.810  0.00  0.00    +0.150 HD
BRANCH  22  28
ATOM     26  C   UNL     1       1.081   4.198   1.857  0.00  0.00    +0.166 A 
ATOM     27  C   UNL     1       0.764   5.528   2.060  0.00  0.00    +0.062 A 
ATOM     28  C   UNL     1      -0.436   6.043   1.566  0.00  0.00    +0.044 A 
ATOM     29  C   UNL     1      -1.312   5.213   0.862  0.00  0.00    +0.062 A 
ATOM     30  C   UNL     1      -0.989   3.885   0.656  0.00  0.00    +0.166 A 
ATOM     31  C   UNL     1       0.208   3.374   1.150  0.00  0.00    +0.204 A 
BRANCH  26  32
ATOM     32  O   UNL     1       2.247   3.694   2.343  0.00  0.00    -0.488 OA
BRANCH  32  34
ATOM     33  C   UNL     1       4.349   3.854   3.524  0.00  0.00    +0.048 C 
ATOM     34  C   UNL     1       3.094   4.596   3.058  0.00  0.00    +0.226 C 
ENDBRANCH  32  34
ENDBRANCH  26  32
BRANCH  31  35
ATOM     35  O   UNL     1       0.524   2.068   0.946  0.00  0.00    -0.485 OA
BRANCH  35  36
ATOM     36  C   UNL     1       1.256   1.755  -0.240  0.00  0.00    +0.226 C 
ATOM     37  C   UNL     1       1.517   0.248  -0.296  0.00  0.00    +0.048 C 
ENDBRANCH  35  36
ENDBRANCH  31  35
BRANCH  30  38
ATOM     38  O   UNL     1      -1.841   3.076  -0.029  0.00  0.00    -0.488 OA
BRANCH  38  39
ATOM     39  C   UNL     1      -3.052   3.666  -0.507  0.00  0.00    +0.226 C 
ATOM     40  C   UNL     1      -3.875   2.611  -1.248  0.00  0.00    +0.048 C 
ENDBRANCH  38  39
ENDBRANCH  30  38
ENDBRANCH  22  28
ENDBRANCH   1  24
TORSDOF 9
