REMARK  Name = ZINC09192795
REMARK  12 active torsions:
REMARK  status: ('A' for Active; 'I' for Inactive)
REMARK    1  A    between atoms: C_1  and  C_2
REMARK    2  A    between atoms: C_3  and  C_34
REMARK    3  A    between atoms: C_8  and  C_28
REMARK    4  A    between atoms: C_10  and  C_11
REMARK    5  A    between atoms: C_11  and  C_12
REMARK    6  A    between atoms: C_15  and  O_18
REMARK    7  A    between atoms: O_18  and  C_19
REMARK    8  A    between atoms: C_19  and  C_20
REMARK    9  A    between atoms: C_20  and  C_21
REMARK   10  A    between atoms: C_20  and  C_22
REMARK   11  A    between atoms: C_34  and  O_36
REMARK   12  A    between atoms: O_36  and  C_37
REMARK                            x       y       z     vdW  Elec       q    Type
REMARK                         _______ _______ _______ _____ _____    ______ ____
ROOT
ATOM      1  C   UNL     1       0.266   1.546   0.141  0.00  0.00    +0.067 C 
ATOM      2  C   UNL     1       0.184   0.042   0.098  0.00  0.00    +0.062 A 
ATOM      3  C   UNL     1       0.102  -0.653  -1.102  0.00  0.00    +0.120 A 
ATOM      4  S   UNL     1       0.035  -2.335  -0.504  0.00  0.00    -0.045 S 
ATOM      5  C   UNL     1       0.116  -1.999   1.144  0.00  0.00    +0.169 A 
ATOM      6  N   UNL     1       0.192  -0.681   1.188  0.00  0.00    -0.229 NA
ATOM      7  N   UNL     1       0.108  -2.892   2.199  0.00  0.00    -0.232 N 
ATOM      8  C   UNL     1       0.033  -4.353   2.094  0.00  0.00    +0.153 C 
ATOM      9  C   UNL     1       0.056  -4.879   3.510  0.00  0.00    +0.077 C 
ATOM     10  C   UNL     1       0.137  -3.801   4.325  0.00  0.00    +0.250 C 
ATOM     11  O   UNL     1       0.182  -3.842   5.677  0.00  0.00    -0.282 OA
ATOM     12  C   UNL     1       0.174  -2.574   3.505  0.00  0.00    +0.293 C 
ATOM     13  O   UNL     1       0.252  -1.444   3.944  0.00  0.00    -0.266 OA
ENDROOT
BRANCH   8  14
ATOM     14  C   UNL     1      -1.248  -4.759   1.411  0.00  0.00    -0.004 A 
ATOM     15  C   UNL     1      -1.239  -5.728   0.419  0.00  0.00    +0.009 A 
ATOM     16  C   UNL     1      -2.441  -6.069  -0.181  0.00  0.00    +0.020 A 
ATOM     17  C   UNL     1      -3.600  -5.436   0.226  0.00  0.00    +0.111 A 
ATOM     18  N   UNL     1      -3.571  -4.519   1.172  0.00  0.00    -0.263 NA
ATOM     19  C   UNL     1      -2.447  -4.173   1.769  0.00  0.00    +0.116 A 
ENDBRANCH   8  14
BRANCH   9  20
ATOM     20  C   UNL     1       0.002  -6.285   3.922  0.00  0.00    +0.195 C 
ATOM     21  O   UNL     1      -0.960  -6.702   4.540  0.00  0.00    -0.287 OA
BRANCH  20  22
ATOM     22  C   UNL     1       1.115  -7.196   3.587  0.00  0.00    +0.022 A 
ATOM     23  C   UNL     1       2.275  -6.695   2.988  0.00  0.00    +0.015 A 
ATOM     24  C   UNL     1       3.310  -7.547   2.677  0.00  0.00    +0.046 A 
ATOM     25  C   UNL     1       3.203  -8.905   2.958  0.00  0.00    +0.121 A 
ATOM     26  C   UNL     1       2.051  -9.407   3.553  0.00  0.00    +0.046 A 
ATOM     27  C   UNL     1       1.014  -8.561   3.873  0.00  0.00    +0.015 A 
BRANCH  25  28
ATOM     28  O   UNL     1       4.226  -9.742   2.650  0.00  0.00    -0.492 OA
BRANCH  28  29
ATOM     29  C   UNL     1       4.051 -11.124   2.966  0.00  0.00    +0.232 C 
BRANCH  29  30
ATOM     30  C   UNL     1       5.298 -11.905   2.549  0.00  0.00    +0.020 C 
ATOM     31  C   UNL     1       6.492 -11.447   3.390  0.00  0.00    +0.010 C 
ATOM     32  C   UNL     1       5.062 -13.400   2.772  0.00  0.00    +0.010 C 
ENDBRANCH  29  30
ENDBRANCH  28  29
ENDBRANCH  25  28
ENDBRANCH  20  22
ENDBRANCH   9  20
BRANCH   3  33
ATOM     33  C   UNL     1       0.076  -0.149  -2.474  0.00  0.00    +0.347 C 
ATOM     34  O   UNL     1       0.132   1.048  -2.683  0.00  0.00    -0.244 OA
BRANCH  33  35
ATOM     35  O   UNL     1      -0.008  -1.011  -3.508  0.00  0.00    -0.464 OA
ATOM     36  C   UNL     1      -0.028  -0.449  -4.822  0.00  0.00    +0.280 C 
ENDBRANCH  33  35
ENDBRANCH   3  33
TORSDOF 8
