REMARK  Name = ZINC37124067
REMARK  4 active torsions:
REMARK  status: ('A' for Active; 'I' for Inactive)
REMARK    1  A    between atoms: C_1  and  C_2
REMARK    2  A    between atoms: C_2  and  C_4
REMARK    3  A    between atoms: C_2  and  N_10
REMARK    4  A    between atoms: N_10  and  C_11
REMARK                            x       y       z     vdW  Elec       q    Type
REMARK                         _______ _______ _______ _____ _____    ______ ____
ROOT
ATOM      1  C   UNL     1       2.105  -0.604   1.173  0.00  0.00    +0.028 A 
ATOM      2  C   UNL     1       2.818  -0.252   0.034  0.00  0.00    +0.025 A 
ATOM      3  C   UNL     1       4.194  -0.366   0.018  0.00  0.00    +0.025 A 
ATOM      4  C   UNL     1       4.865  -0.832   1.141  0.00  0.00    +0.037 A 
ATOM      5  C   UNL     1       4.152  -1.182   2.280  0.00  0.00    -0.024 A 
ATOM      6  C   UNL     1       2.777  -1.064   2.298  0.00  0.00    +0.028 A 
ATOM      7  C   UNL     1       4.884  -1.686   3.497  0.00  0.00    +0.046 C 
ATOM      8  C   UNL     1       6.107  -2.493   3.061  0.00  0.00    +0.101 C 
ATOM      9  C   UNL     1       6.889  -1.722   2.031  0.00  0.00    +0.218 C 
ATOM     10  O   UNL     1       8.099  -1.800   2.015  0.00  0.00    -0.275 OA
ATOM     11  N   UNL     1       6.261  -0.948   1.128  0.00  0.00    -0.285 N 
ATOM     12  H   UNL     1       6.778  -0.467   0.463  0.00  0.00    +0.155 HD
ENDROOT
BRANCH   1  13
ATOM     13  N   UNL     1       0.711  -0.489   1.189  0.00  0.00    -0.337 N 
ATOM     14  H   UNL     1       0.213  -0.731   1.986  0.00  0.00    +0.147 HD
BRANCH  13  16
ATOM     15  C   UNL     1      -0.019   1.526   0.010  0.00  0.00    +0.033 C 
ATOM     16  C   UNL     1       0.002  -0.004   0.002  0.00  0.00    +0.104 C 
BRANCH  16  17
ATOM     17  C   UNL     1      -1.412  -0.526   0.013  0.00  0.00    +0.011 A 
ATOM     18  C   UNL     1      -2.157  -0.992  -1.019  0.00  0.00    +0.014 A 
ATOM     19  C   UNL     1      -3.447  -1.424  -0.772  0.00  0.00    +0.028 A 
ATOM     20  C   UNL     1      -3.928  -1.369   0.495  0.00  0.00    +0.078 A 
ATOM     21  S   UNL     1      -2.536  -0.697   1.389  0.00  0.00    -0.080 S 
ATOM     22 CL   UNL     1      -5.489  -1.836   1.093  0.00  0.00    -0.076 Cl
ENDBRANCH  16  17
ENDBRANCH  13  16
ENDBRANCH   1  13
TORSDOF 3
