REMARK  Name = ZINC13361193
REMARK  4 active torsions:
REMARK  status: ('A' for Active; 'I' for Inactive)
REMARK    1  A    between atoms: C_5  and  C_7
REMARK    2  A    between atoms: C_13  and  S_15
REMARK    3  A    between atoms: S_15  and  C_16
REMARK    4  A    between atoms: C_16  and  C_17
REMARK                            x       y       z     vdW  Elec       q    Type
REMARK                         _______ _______ _______ _____ _____    ______ ____
ROOT
ATOM      1  C   UNL     1      -1.264  -0.763   0.009  0.00  0.00    +0.253 C 
ATOM      2  O   UNL     1      -2.327  -0.173   0.022  0.00  0.00    -0.270 OA
ATOM      3  N   UNL     1      -1.242  -2.111   0.002  0.00  0.00    -0.259 N 
ATOM      4  C   UNL     1      -2.436  -2.827   0.009  0.00  0.00    +0.189 A 
ATOM      5  N   UNL     1      -3.686  -2.395   0.022  0.00  0.00    -0.125 NA
ATOM      6  N   UNL     1      -4.667  -3.187   0.027  0.00  0.00    -0.133 NA
ATOM      7  C   UNL     1      -4.505  -4.502   0.019  0.00  0.00    +0.160 A 
ATOM      8  S   UNL     1      -2.717  -4.595  -0.005  0.00  0.00    -0.024 S 
ATOM      9  H   UNL     1      -0.394  -2.582  -0.008  0.00  0.00    +0.157 HD
ENDROOT
BRANCH   1  14
ATOM     10  C   UNL     1       2.404   0.036  -0.021  0.00  0.00    +0.001 A 
ATOM     11  C   UNL     1       2.379   1.421  -0.013  0.00  0.00    +0.003 A 
ATOM     12  C   UNL     1       1.174   2.097   0.002  0.00  0.00    +0.039 A 
ATOM     13  C   UNL     1      -0.017   1.394   0.010  0.00  0.00    +0.135 A 
ATOM     14  C   UNL     1       0.002  -0.004   0.002  0.00  0.00    +0.072 A 
ATOM     15  C   UNL     1       1.225  -0.679  -0.013  0.00  0.00    +0.016 A 
ATOM     16  F   UNL     1      -1.195   2.056   0.019  0.00  0.00    -0.205 F 
ENDBRANCH   1  14
BRANCH   7  17
ATOM     17  S   UNL     1      -5.706  -5.792   0.024  0.00  0.00    -0.091 S 
BRANCH  17  18
ATOM     18  C   UNL     1      -7.293  -4.913   0.043  0.00  0.00    +0.137 C 
BRANCH  18  19
ATOM     19  C   UNL     1      -8.421  -5.913   0.048  0.00  0.00    +0.116 A 
ATOM     20  C   UNL     1      -9.811  -5.446   0.070  0.00  0.00    +0.271 A 
ATOM     21  O   UNL     1     -10.061  -4.254   0.083  0.00  0.00    -0.266 OA
ATOM     22  N   UNL     1     -10.812  -6.354   0.070  0.00  0.00    -0.319 N 
ATOM     23  H   UNL     1     -11.738  -6.067   0.080  0.00  0.00    +0.169 HD
ATOM     24  C   UNL     1     -10.494  -7.697   0.059  0.00  0.00    +0.068 A 
ATOM     25  C   UNL     1     -11.502  -8.658   0.065  0.00  0.00    +0.028 A 
ATOM     26  C   UNL     1     -11.173  -9.996   0.054  0.00  0.00    +0.002 A 
ATOM     27  C   UNL     1      -9.843 -10.395   0.039  0.00  0.00    +0.002 A 
ATOM     28  C   UNL     1      -8.839  -9.472   0.034  0.00  0.00    +0.030 A 
ATOM     29  C   UNL     1      -9.146  -8.102   0.044  0.00  0.00    +0.088 A 
ATOM     30  N   UNL     1      -8.157  -7.188   0.039  0.00  0.00    -0.244 NA
ENDBRANCH  18  19
ENDBRANCH  17  18
ENDBRANCH   7  17
TORSDOF 4
