REMARK  Name = ZINC28290333
REMARK  11 active torsions:
REMARK  status: ('A' for Active; 'I' for Inactive)
REMARK    1  A    between atoms: C_1  and  C_2
REMARK    2  A    between atoms: C_6  and  C_32
REMARK    3  A    between atoms: C_7  and  C_11
REMARK    4  A    between atoms: N_13  and  C_14
REMARK    5  A    between atoms: C_14  and  C_15
REMARK    6  A    between atoms: C_15  and  C_17
REMARK    7  A    between atoms: C_15  and  N_27
REMARK    8  A    between atoms: C_20  and  C_23
REMARK    9  A    between atoms: C_23  and  C_24
REMARK   10  A    between atoms: C_23  and  C_25
REMARK   11  A    between atoms: C_23  and  C_26
REMARK                            x       y       z     vdW  Elec       q    Type
REMARK                         _______ _______ _______ _____ _____    ______ ____
ROOT
ATOM      1  C   UNL     1      -7.415  -0.390   0.131  0.00  0.00    -0.020 C 
ENDROOT
BRANCH   1   2
ATOM      2  C   UNL     1      -8.921  -0.423   0.173  0.00  0.00    -0.059 A 
ATOM      3  C   UNL     1      -9.584  -0.225   1.370  0.00  0.00    +0.002 A 
ATOM      4  C   UNL     1     -10.965  -0.251   1.408  0.00  0.00    +0.004 A 
ATOM      5  C   UNL     1     -11.684  -0.484   0.250  0.00  0.00    -0.042 A 
ATOM      6  C   UNL     1     -11.022  -0.688  -0.946  0.00  0.00    +0.004 A 
ATOM      7  C   UNL     1      -9.640  -0.657  -0.984  0.00  0.00    +0.002 A 
BRANCH   5   8
ATOM      8  C   UNL     1     -13.190  -0.517   0.292  0.00  0.00    -0.013 C 
ATOM      9  C   UNL     1     -13.684  -1.888  -0.175  0.00  0.00    +0.015 C 
ATOM     10  C   UNL     1     -13.666  -0.265   1.724  0.00  0.00    +0.015 C 
ATOM     11  C   UNL     1     -13.750   0.568  -0.630  0.00  0.00    +0.015 C 
ENDBRANCH   5   8
ENDBRANCH   1   2
BRANCH   1  12
ATOM     12  N   UNL     1      -6.877  -1.060   1.322  0.00  0.00    +0.385 N 
ATOM     13  C   UNL     1      -7.322  -2.477   1.382  0.00  0.00    -0.078 C 
ATOM     14  C   UNL     1      -6.288  -3.132   2.331  0.00  0.00    -0.020 C 
ATOM     15  C   UNL     1      -4.968  -2.424   1.948  0.00  0.00    -0.020 C 
ATOM     16  C   UNL     1      -5.399  -1.103   1.284  0.00  0.00    -0.078 C 
ATOM     17  H   UNL     1      -7.242  -0.480   2.183  0.00  0.00    -0.081 HD
ENDBRANCH   1  12
BRANCH   1  18
ATOM     18  C   UNL     1      -6.938   1.063   0.104  0.00  0.00    +0.094 C 
BRANCH  18  21
ATOM     19  C   UNL     1      -7.146   3.010  -1.347  0.00  0.00    +0.280 C 
ATOM     20  O   UNL     1      -6.596   3.673  -0.487  0.00  0.00    -0.267 OA
ATOM     21  N   UNL     1      -7.364   1.695  -1.147  0.00  0.00    -0.310 N 
ATOM     22  H   UNL     1      -7.862   1.096  -1.924  0.00  0.00    +0.149 HD
BRANCH  19  29
ATOM     23  C   UNL     1      -9.848   4.633  -8.052  0.00  0.00    +0.044 C 
ATOM     24  C   UNL     1      -9.190   4.801  -6.707  0.00  0.00    -0.047 A 
ATOM     25  C   UNL     1      -8.721   6.050  -6.324  0.00  0.00    +0.004 A 
ATOM     26  C   UNL     1      -8.121   6.222  -5.108  0.00  0.00    +0.012 A 
ATOM     27  C   UNL     1      -7.981   5.132  -4.246  0.00  0.00    +0.024 A 
ATOM     28  C   UNL     1      -7.408   4.955  -2.912  0.00  0.00    +0.008 A 
ATOM     29  C   UNL     1      -7.574   3.643  -2.602  0.00  0.00    +0.193 A 
ATOM     30  O   UNL     1      -8.192   3.009  -3.620  0.00  0.00    -0.450 OA
ATOM     31  C   UNL     1      -8.459   3.865  -4.627  0.00  0.00    +0.136 A 
ATOM     32  C   UNL     1      -9.061   3.713  -5.871  0.00  0.00    +0.050 A 
ATOM     33  C   UNL     1      -6.765   6.014  -2.054  0.00  0.00    +0.048 C 
ENDBRANCH  19  29
ENDBRANCH  18  21
ENDBRANCH   1  18
TORSDOF 6
