REMARK  Name = ZINC48884218
REMARK  13 active torsions:
REMARK  status: ('A' for Active; 'I' for Inactive)
REMARK    1  A    between atoms: C_1  and  C_2
REMARK    2  A    between atoms: C_5  and  C_32
REMARK    3  A    between atoms: N_8  and  C_10
REMARK    4  A    between atoms: C_10  and  C_11
REMARK    5  A    between atoms: C_16  and  C_17
REMARK    6  A    between atoms: C_17  and  N_18
REMARK    7  A    between atoms: C_19  and  C_21
REMARK    8  A    between atoms: C_21  and  C_22
REMARK    9  A    between atoms: C_22  and  C_23
REMARK   10  A    between atoms: C_25  and  C_28
REMARK   11  A    between atoms: C_28  and  C_29
REMARK   12  A    between atoms: C_28  and  C_30
REMARK   13  A    between atoms: C_28  and  C_31
REMARK                            x       y       z     vdW  Elec       q    Type
REMARK                         _______ _______ _______ _____ _____    ______ ____
ROOT
ATOM      1  C   UNL     1       3.041  -2.188   2.520  0.00  0.00    -0.059 A 
ATOM      2  C   UNL     1       3.941  -3.113   2.025  0.00  0.00    +0.002 A 
ATOM      3  C   UNL     1       5.246  -2.739   1.766  0.00  0.00    +0.000 A 
ATOM      4  C   UNL     1       5.651  -1.438   2.002  0.00  0.00    +0.000 A 
ATOM      5  C   UNL     1       4.752  -0.513   2.497  0.00  0.00    +0.005 A 
ATOM      6  C   UNL     1       3.445  -0.886   2.751  0.00  0.00    -0.029 A 
ENDROOT
BRANCH   1   7
ATOM      7  C   UNL     1       1.618  -2.596   2.802  0.00  0.00    -0.043 C 
BRANCH   7  13
ATOM      8  C   UNL     1       1.374  -5.328  -1.253  0.00  0.00    +0.005 C 
ATOM      9  C   UNL     1       1.299  -5.353   0.275  0.00  0.00    -0.031 C 
ATOM     10  C   UNL     1      -0.060  -5.909   0.711  0.00  0.00    +0.003 C 
ATOM     11  C   UNL     1      -0.155  -5.856   2.239  0.00  0.00    -0.031 C 
ATOM     12  C   UNL     1       0.060  -4.415   2.708  0.00  0.00    -0.075 C 
ATOM     13  N   UNL     1       1.386  -3.951   2.283  0.00  0.00    +0.383 N 
ATOM     14  C   UNL     1       1.461  -3.931   0.817  0.00  0.00    -0.075 C 
ATOM     15  C   UNL     1       0.919  -6.758   2.849  0.00  0.00    +0.005 C 
ATOM     16  H   UNL     1       2.091  -4.574   2.646  0.00  0.00    -0.081 HD
ENDBRANCH   7  13
ENDBRANCH   1   7
BRANCH   6  17
ATOM     17  C   UNL     1       2.463   0.124   3.285  0.00  0.00    +0.139 C 
BRANCH  17  18
ATOM     18  N   UNL     1       2.228  -0.129   4.709  0.00  0.00    -0.311 N 
ATOM     19  C   UNL     1       1.379   0.656   5.402  0.00  0.00    +0.214 C 
ATOM     20  O   UNL     1       0.810   1.572   4.846  0.00  0.00    -0.276 OA
ATOM     21  H   UNL     1       2.684  -0.861   5.154  0.00  0.00    +0.149 HD
BRANCH  19  22
ATOM     22  C   UNL     1       1.138   0.397   6.867  0.00  0.00    +0.105 C 
BRANCH  22  23
ATOM     23  C   UNL     1       0.141   1.422   7.409  0.00  0.00    +0.108 C 
BRANCH  23  24
ATOM     24  C   UNL     1      -0.101   1.163   8.873  0.00  0.00    +0.228 A 
ATOM     25  N   UNL     1       0.572   1.681   9.863  0.00  0.00    -0.196 NA
ATOM     26  C   UNL     1       0.092   1.235  11.029  0.00  0.00    +0.177 A 
ATOM     27  N   UNL     1      -0.898   0.423  10.794  0.00  0.00    -0.061 NA
ATOM     28  O   UNL     1      -1.047   0.364   9.383  0.00  0.00    -0.338 OA
BRANCH  26  29
ATOM     29  C   UNL     1       0.612   1.612  12.392  0.00  0.00    +0.025 C 
ATOM     30  C   UNL     1       0.487   3.124  12.586  0.00  0.00    +0.019 C 
ATOM     31  C   UNL     1      -0.204   0.890  13.467  0.00  0.00    +0.019 C 
ATOM     32  C   UNL     1       2.082   1.202  12.508  0.00  0.00    +0.019 C 
ENDBRANCH  26  29
ENDBRANCH  23  24
ENDBRANCH  22  23
ENDBRANCH  19  22
ENDBRANCH  17  18
ENDBRANCH   6  17
TORSDOF 8
