REMARK  Name = ZINC14532055
REMARK  11 active torsions:
REMARK  status: ('A' for Active; 'I' for Inactive)
REMARK    1  A    between atoms: C_1  and  C_2
REMARK    2  A    between atoms: C_2  and  C_4
REMARK    3  A    between atoms: C_2  and  N_12
REMARK    4  A    between atoms: C_4  and  O_5
REMARK    5  A    between atoms: O_5  and  C_6
REMARK    6  A    between atoms: C_17  and  C_24
REMARK    7  A    between atoms: N_19  and  C_20
REMARK    8  A    between atoms: C_20  and  C_21
REMARK    9  A    between atoms: C_21  and  C_22
REMARK   10  A    between atoms: C_21  and  C_23
REMARK   11  A    between atoms: N_26  and  C_27
REMARK                            x       y       z     vdW  Elec       q    Type
REMARK                         _______ _______ _______ _____ _____    ______ ____
ROOT
ATOM      1  N   UNL     1       0.805  -0.374   1.175  0.00  0.00    +0.387 N 
ATOM      2  C   UNL     1       1.064  -1.819   1.151  0.00  0.00    -0.072 C 
ATOM      3  C   UNL     1       2.152  -2.171   2.176  0.00  0.00    +0.037 C 
ATOM      4  C   UNL     1       1.765  -1.537   3.488  0.00  0.00    +0.040 A 
ATOM      5  C   UNL     1       0.822  -0.563   3.581  0.00  0.00    -0.011 A 
ATOM      6  C   UNL     1       0.739  -0.238   4.943  0.00  0.00    +0.149 A 
ATOM      7  N   UNL     1       1.613  -1.008   5.570  0.00  0.00    -0.166 NA
ATOM      8  N   UNL     1       2.220  -1.771   4.726  0.00  0.00    -0.267 N 
ATOM      9  C   UNL     1       0.074  -0.008   2.401  0.00  0.00    -0.038 C 
ATOM     10  H   UNL     1       1.683   0.121   1.149  0.00  0.00    -0.081 HD
ENDROOT
BRANCH   6  11
ATOM     11  C   UNL     1      -0.149   0.770   5.557  0.00  0.00    +0.265 C 
ATOM     12  O   UNL     1      -0.910   1.414   4.861  0.00  0.00    -0.268 OA
ATOM     13  N   UNL     1      -0.117   0.974   6.889  0.00  0.00    -0.307 N 
ATOM     14  H   UNL     1       0.489   0.460   7.444  0.00  0.00    +0.149 HD
BRANCH  13  15
ATOM     15  C   UNL     1      -0.999   1.973   7.498  0.00  0.00    +0.073 C 
ATOM     16  C   UNL     1      -0.316   3.357   7.488  0.00  0.00    +0.022 C 
ATOM     17  C   UNL     1      -0.745   4.001   8.830  0.00  0.00    +0.002 C 
ATOM     18  C   UNL     1      -0.720   2.801   9.809  0.00  0.00    +0.002 C 
ATOM     19  C   UNL     1      -1.256   1.620   8.973  0.00  0.00    +0.022 C 
ENDBRANCH  13  15
ENDBRANCH   6  11
BRANCH   1  21
ATOM     20  C   UNL     1      -0.374   1.477   0.087  0.00  0.00    -0.010 C 
ATOM     21  C   UNL     1       0.002  -0.004   0.002  0.00  0.00    -0.033 C 
BRANCH  21  22
ATOM     22  C   UNL     1       0.815  -0.251  -1.270  0.00  0.00    +0.213 C 
BRANCH  22  23
ATOM     23  O   UNL     1       1.958   0.606  -1.280  0.00  0.00    -0.494 OA
BRANCH  23  24
ATOM     24  C   UNL     1       2.792   0.512  -2.349  0.00  0.00    +0.120 A 
ATOM     25  C   UNL     1       2.512  -0.383  -3.371  0.00  0.00    +0.045 A 
ATOM     26  C   UNL     1       3.360  -0.477  -4.457  0.00  0.00    +0.004 A 
ATOM     27  C   UNL     1       4.488   0.320  -4.526  0.00  0.00    +0.000 A 
ATOM     28  C   UNL     1       4.769   1.213  -3.508  0.00  0.00    +0.004 A 
ATOM     29  C   UNL     1       3.920   1.315  -2.423  0.00  0.00    +0.045 A 
ENDBRANCH  23  24
ENDBRANCH  22  23
ENDBRANCH  21  22
ENDBRANCH   1  21
BRANCH   8  30
ATOM     30  C   UNL     1       3.254  -2.750   5.070  0.00  0.00    +0.146 C 
BRANCH  30  31
ATOM     31  C   UNL     1       4.629  -2.082   5.008  0.00  0.00    +0.004 C 
ATOM     32  C   UNL     1       4.721  -1.000   6.086  0.00  0.00    +0.009 C 
ATOM     33  C   UNL     1       5.717  -3.131   5.245  0.00  0.00    +0.009 C 
ENDBRANCH  30  31
ENDBRANCH   8  30
TORSDOF 8
