REMARK  Name = ZINC33386610
REMARK  11 active torsions:
REMARK  status: ('A' for Active; 'I' for Inactive)
REMARK    1  A    between atoms: C_1  and  C_2
REMARK    2  A    between atoms: C_2  and  O_3
REMARK    3  A    between atoms: O_3  and  C_4
REMARK    4  A    between atoms: C_8  and  C_10
REMARK    5  A    between atoms: C_10  and  C_11
REMARK    6  A    between atoms: C_12  and  C_31
REMARK    7  A    between atoms: C_21  and  C_30
REMARK    8  A    between atoms: C_22  and  C_24
REMARK    9  A    between atoms: C_24  and  O_26
REMARK   10  A    between atoms: O_26  and  C_27
REMARK   11  A    between atoms: C_27  and  C_28
REMARK                            x       y       z     vdW  Elec       q    Type
REMARK                         _______ _______ _______ _____ _____    ______ ____
ROOT
ATOM      1  C   UNL     1       5.085   6.980  -0.339  0.00  0.00    +0.077 C 
ATOM      2  C   UNL     1       3.806   6.174  -0.358  0.00  0.00    +0.152 C 
ATOM      3  N   UNL     1       4.171   4.818  -0.780  0.00  0.00    -0.232 N 
ATOM      4  C   UNL     1       5.495   4.772  -1.007  0.00  0.00    +0.293 C 
ATOM      5  O   UNL     1       6.104   3.788  -1.373  0.00  0.00    -0.266 OA
ATOM      6  C   UNL     1       6.105   6.102  -0.743  0.00  0.00    +0.250 C 
ATOM      7  O   UNL     1       7.284   6.383  -0.857  0.00  0.00    -0.282 OA
ATOM      8  C   UNL     1       3.294   3.760  -0.927  0.00  0.00    +0.169 A 
ATOM      9  N   UNL     1       3.551   2.518  -1.307  0.00  0.00    -0.229 NA
ATOM     10  C   UNL     1       2.607   1.619  -1.393  0.00  0.00    +0.062 A 
ATOM     11  C   UNL     1       1.311   2.010  -1.083  0.00  0.00    +0.120 A 
ATOM     12  S   UNL     1       1.579   3.725  -0.659  0.00  0.00    -0.045 S 
ATOM     13  C   UNL     1       2.913   0.206  -1.819  0.00  0.00    +0.067 C 
ENDROOT
BRANCH   2  14
ATOM     14  C   UNL     1       2.829   6.773  -1.337  0.00  0.00    -0.019 A 
ATOM     15  C   UNL     1       2.964   6.554  -2.699  0.00  0.00    +0.025 A 
ATOM     16  C   UNL     1       2.046   7.116  -3.566  0.00  0.00    +0.111 A 
ATOM     17  N   UNL     1       1.058   7.861  -3.111  0.00  0.00    -0.263 NA
ATOM     18  C   UNL     1       0.902   8.096  -1.823  0.00  0.00    +0.111 A 
ATOM     19  C   UNL     1       1.778   7.562  -0.896  0.00  0.00    +0.025 A 
ENDBRANCH   2  14
BRANCH   1  20
ATOM     20  C   UNL     1       5.221   8.309   0.002  0.00  0.00    +0.195 C 
ATOM     21  O   UNL     1       4.125   9.060   0.242  0.00  0.00    -0.287 OA
BRANCH  20  26
ATOM     22  C   UNL     1       8.808   8.864   0.969  0.00  0.00    +0.121 A 
ATOM     23  C   UNL     1       9.086  10.045   0.293  0.00  0.00    +0.045 A 
ATOM     24  C   UNL     1       8.111  10.657  -0.474  0.00  0.00    +0.004 A 
ATOM     25  C   UNL     1       6.854  10.098  -0.573  0.00  0.00    +0.012 A 
ATOM     26  C   UNL     1       6.563   8.910   0.104  0.00  0.00    +0.026 A 
ATOM     27  C   UNL     1       7.549   8.296   0.882  0.00  0.00    +0.057 A 
BRANCH  22  28
ATOM     28  O   UNL     1       9.771   8.270   1.722  0.00  0.00    -0.492 OA
BRANCH  28  30
ATOM     29  C   UNL     1      11.992   8.104   2.659  0.00  0.00    +0.048 C 
ATOM     30  C   UNL     1      11.045   8.914   1.771  0.00  0.00    +0.225 C 
ENDBRANCH  28  30
ENDBRANCH  22  28
ENDBRANCH  20  26
ENDBRANCH   1  20
BRANCH  11  31
ATOM     31  C   UNL     1       0.073   1.233  -1.093  0.00  0.00    +0.348 C 
ATOM     32  O   UNL     1       0.094   0.060  -1.415  0.00  0.00    -0.244 OA
BRANCH  31  33
ATOM     33  O   UNL     1      -1.094   1.818  -0.750  0.00  0.00    -0.457 OA
BRANCH  33  34
ATOM     34  C   UNL     1      -2.265   1.001  -0.789  0.00  0.00    +0.259 C 
BRANCH  34  35
ATOM     35  C   UNL     1      -3.462   1.819  -0.378  0.00  0.00    +0.006 C 
ATOM     36  C   UNL     1      -4.575   1.742  -1.065  0.00  0.00    +0.007 C 
ENDBRANCH  34  35
ENDBRANCH  33  34
ENDBRANCH  31  33
ENDBRANCH  11  31
TORSDOF 9
