REMARK  Name = ZINC36579287
REMARK  15 active torsions:
REMARK  status: ('A' for Active; 'I' for Inactive)
REMARK    1  A    between atoms: C_1  and  C_2
REMARK    2  A    between atoms: C_2  and  C_3
REMARK    3  A    between atoms: C_2  and  C_4
REMARK    4  A    between atoms: C_2  and  N_5
REMARK    5  A    between atoms: C_6  and  C_8
REMARK    6  A    between atoms: C_8  and  C_10
REMARK    7  A    between atoms: C_8  and  N_19
REMARK    8  A    between atoms: C_13  and  N_16
REMARK    9  A    between atoms: N_19  and  C_36
REMARK   10  A    between atoms: C_20  and  C_22
REMARK   11  A    between atoms: C_22  and  C_30
REMARK   12  A    between atoms: C_23  and  C_24
REMARK   13  A    between atoms: C_36  and  C_37
REMARK   14  A    between atoms: C_36  and  C_38
REMARK   15  A    between atoms: C_36  and  C_39
REMARK                            x       y       z     vdW  Elec       q    Type
REMARK                         _______ _______ _______ _____ _____    ______ ____
ROOT
ATOM      1  N   UNL     1       4.723  -0.078  -3.177  0.00  0.00    -0.277 N 
ATOM      2  C   UNL     1       4.122   0.168  -4.358  0.00  0.00    +0.248 C 
ATOM      3  O   UNL     1       4.144   1.289  -4.830  0.00  0.00    -0.270 OA
ENDROOT
BRANCH   1   4
ATOM      4  C   UNL     1       5.431   0.997  -2.478  0.00  0.00    +0.030 C 
ATOM      5  C   UNL     1       6.810   1.195  -3.111  0.00  0.00    +0.031 C 
ATOM      6  C   UNL     1       4.628   2.295  -2.590  0.00  0.00    +0.031 C 
ATOM      7  C   UNL     1       5.595   0.625  -1.003  0.00  0.00    +0.031 C 
ENDBRANCH   1   4
BRANCH   2   8
ATOM      8  C   UNL     1       3.438  -0.920  -5.077  0.00  0.00    +0.045 C 
ATOM      9  C   UNL     1       3.768  -1.195  -6.367  0.00  0.00    +0.021 C 
BRANCH   9  10
ATOM     10  C   UNL     1       2.975  -2.162  -7.138  0.00  0.00    -0.024 A 
ATOM     11  C   UNL     1       1.595  -2.266  -6.929  0.00  0.00    +0.008 A 
ATOM     12  C   UNL     1       0.858  -3.175  -7.657  0.00  0.00    +0.001 A 
ATOM     13  C   UNL     1       1.480  -3.985  -8.592  0.00  0.00    +0.000 A 
ATOM     14  C   UNL     1       2.844  -3.890  -8.804  0.00  0.00    +0.001 A 
ATOM     15  C   UNL     1       3.595  -2.981  -8.089  0.00  0.00    +0.008 A 
ENDBRANCH   9  10
BRANCH   8  16
ATOM     16  C   UNL     1       2.391  -1.714  -4.394  0.00  0.00    -0.013 A 
ATOM     17  C   UNL     1       1.314  -1.074  -3.782  0.00  0.00    +0.008 A 
ATOM     18  C   UNL     1       0.342  -1.820  -3.148  0.00  0.00    +0.001 A 
ATOM     19  C   UNL     1       0.434  -3.200  -3.119  0.00  0.00    +0.000 A 
ATOM     20  C   UNL     1       1.500  -3.841  -3.724  0.00  0.00    +0.001 A 
ATOM     21  C   UNL     1       2.475  -3.107  -4.367  0.00  0.00    +0.008 A 
ENDBRANCH   8  16
ENDBRANCH   2   8
BRANCH   1  22
ATOM     22  C   UNL     1       4.667  -1.420  -2.592  0.00  0.00    +0.193 C 
BRANCH  22  23
ATOM     23  C   UNL     1       6.043  -2.035  -2.615  0.00  0.00    -0.018 A 
ATOM     24  C   UNL     1       7.110  -1.363  -2.050  0.00  0.00    +0.008 A 
ATOM     25  C   UNL     1       8.372  -1.927  -2.071  0.00  0.00    +0.033 A 
ATOM     26  C   UNL     1       8.566  -3.164  -2.657  0.00  0.00    +0.126 A 
ATOM     27  C   UNL     1       7.498  -3.837  -3.222  0.00  0.00    +0.033 A 
ATOM     28  C   UNL     1       6.236  -3.274  -3.197  0.00  0.00    +0.008 A 
BRANCH  26  29
ATOM     29  N   UNL     1       9.917  -3.767  -2.681  0.00  0.00    +0.056 N 
ATOM     30  O   UNL     1      10.851  -3.179  -2.188  0.00  0.00    -0.126 OA
ATOM     31  O   UNL     1      10.087  -4.849  -3.193  0.00  0.00    -0.126 OA
ENDBRANCH  26  29
ENDBRANCH  22  23
BRANCH  22  33
ATOM     32  N   UNL     1       4.645  -2.189  -0.242  0.00  0.00    -0.309 N 
ATOM     33  C   UNL     1       4.182  -1.328  -1.169  0.00  0.00    +0.239 C 
ATOM     34  O   UNL     1       3.374  -0.478  -0.857  0.00  0.00    -0.273 OA
ATOM     35  H   UNL     1       5.291  -2.869  -0.491  0.00  0.00    +0.149 HD
BRANCH  32  37
ATOM     36  C   UNL     1       2.657  -2.299   1.178  0.00  0.00    +0.031 C 
ATOM     37  C   UNL     1       4.173  -2.100   1.143  0.00  0.00    +0.026 C 
ATOM     38  C   UNL     1       4.521  -0.723   1.712  0.00  0.00    +0.031 C 
ATOM     39  C   UNL     1       4.850  -3.185   1.983  0.00  0.00    +0.031 C 
ENDBRANCH  32  37
ENDBRANCH  22  33
ENDBRANCH   1  22
TORSDOF 9
