REMARK  Name = ZINC09534529
REMARK  9 active torsions:
REMARK  status: ('A' for Active; 'I' for Inactive)
REMARK    1  A    between atoms: C_1  and  C_2
REMARK    2  A    between atoms: C_2  and  C_4
REMARK    3  A    between atoms: C_2  and  N_14
REMARK    4  A    between atoms: C_15  and  C_17
REMARK    5  A    between atoms: C_17  and  S_18
REMARK    6  A    between atoms: S_18  and  C_19
REMARK    7  A    between atoms: C_22  and  C_31
REMARK    8  A    between atoms: N_23  and  C_24
REMARK    9  A    between atoms: C_24  and  C_25
REMARK                            x       y       z     vdW  Elec       q    Type
REMARK                         _______ _______ _______ _____ _____    ______ ____
ROOT
ATOM      1  S   UNL     1      -1.388  -1.083  -0.117  0.00  0.00    -0.077 S 
ENDROOT
BRANCH   1   2
ATOM      2  C   UNL     1       0.008  -0.010  -0.048  0.00  0.00    +0.192 A 
ATOM      3  N   UNL     1       1.271  -0.372  -0.044  0.00  0.00    -0.122 NA
ATOM      4  N   UNL     1       2.028   0.665   0.014  0.00  0.00    -0.128 NA
ATOM      5  C   UNL     1       1.294   1.753   0.051  0.00  0.00    +0.165 A 
ATOM      6  N   UNL     1      -0.022   1.354   0.013  0.00  0.00    -0.300 N 
BRANCH   5   7
ATOM      7  C   UNL     1       1.790   3.144   0.120  0.00  0.00    +0.019 A 
ATOM      8  C   UNL     1       0.947   4.167   0.557  0.00  0.00    +0.014 A 
ATOM      9  C   UNL     1       1.415   5.462   0.624  0.00  0.00    +0.039 A 
ATOM     10  C   UNL     1       2.717   5.751   0.248  0.00  0.00    +0.123 A 
ATOM     11  C   UNL     1       3.557   4.740  -0.192  0.00  0.00    +0.039 A 
ATOM     12  C   UNL     1       3.100   3.440  -0.258  0.00  0.00    +0.014 A 
ATOM     13  F   UNL     1       3.170   7.022   0.310  0.00  0.00    -0.205 F 
ENDBRANCH   5   7
BRANCH   6  14
ATOM     14  C   UNL     1      -1.208   2.214   0.027  0.00  0.00    +0.157 C 
BRANCH  14  15
ATOM     15  C   UNL     1      -1.683   2.403   1.469  0.00  0.00    +0.138 C 
ATOM     16  C   UNL     1      -2.905   3.354   1.512  0.00  0.00    +0.035 C 
ATOM     17  C   UNL     1      -3.583   2.905   2.836  0.00  0.00    +0.031 C 
ATOM     18  C   UNL     1      -3.285   1.390   2.857  0.00  0.00    +0.160 C 
ATOM     19  O   UNL     1      -2.158   1.158   2.005  0.00  0.00    -0.375 OA
ENDBRANCH  14  15
ENDBRANCH   6  14
ENDBRANCH   1   2
BRANCH   1  20
ATOM     20  C   UNL     1      -0.548  -2.686  -0.175  0.00  0.00    +0.173 C 
BRANCH  20  22
ATOM     21  N   UNL     1      -1.178  -5.075  -0.292  0.00  0.00    -0.308 N 
ATOM     22  C   UNL     1      -1.574  -3.788  -0.241  0.00  0.00    +0.224 C 
ATOM     23  O   UNL     1      -2.756  -3.517  -0.247  0.00  0.00    -0.275 OA
ATOM     24  H   UNL     1      -0.233  -5.293  -0.286  0.00  0.00    +0.149 HD
BRANCH  21  26
ATOM     25  C   UNL     1      -2.592  -6.370  -1.810  0.00  0.00    +0.033 C 
ATOM     26  C   UNL     1      -2.175  -6.147  -0.355  0.00  0.00    +0.100 C 
BRANCH  26  27
ATOM     27  C   UNL     1      -1.584  -7.417   0.199  0.00  0.00    -0.027 A 
ATOM     28  C   UNL     1      -0.262  -7.745  -0.098  0.00  0.00    +0.006 A 
ATOM     29  C   UNL     1       0.303  -8.884   0.387  0.00  0.00    +0.009 A 
ATOM     30  C   UNL     1      -0.455  -9.746   1.198  0.00  0.00    -0.018 A 
ATOM     31  C   UNL     1       0.094 -10.931   1.717  0.00  0.00    +0.008 A 
ATOM     32  C   UNL     1      -0.671 -11.741   2.500  0.00  0.00    +0.001 A 
ATOM     33  C   UNL     1      -1.993 -11.413   2.795  0.00  0.00    +0.001 A 
ATOM     34  C   UNL     1      -2.558 -10.274   2.310  0.00  0.00    +0.008 A 
ATOM     35  C   UNL     1      -1.800  -9.413   1.499  0.00  0.00    -0.018 A 
ATOM     36  C   UNL     1      -2.346  -8.225   0.985  0.00  0.00    +0.014 A 
ENDBRANCH  26  27
ENDBRANCH  21  26
ENDBRANCH  20  22
ENDBRANCH   1  20
TORSDOF 8
