REMARK  Name = ZINC06409825
REMARK  9 active torsions:
REMARK  status: ('A' for Active; 'I' for Inactive)
REMARK    1  A    between atoms: C_1  and  C_2
REMARK    2  A    between atoms: C_7  and  C_14
REMARK    3  A    between atoms: C_14  and  C_16
REMARK    4  A    between atoms: C_14  and  N_68
REMARK    5  A    between atoms: N_20  and  C_21
REMARK    6  A    between atoms: C_26  and  C_27
REMARK    7  A    between atoms: C_26  and  N_68
REMARK    8  A    between atoms: C_32  and  C_33
REMARK    9  A    between atoms: C_32  and  N_68
REMARK                            x       y       z     vdW  Elec       q    Type
REMARK                         _______ _______ _______ _____ _____    ______ ____
ROOT
ATOM      1  C   UNL     1      -2.092   3.538   7.051  0.00  0.00    +0.039 C 
ENDROOT
BRANCH   1   8
ATOM      2  C   UNL     1       0.439  -0.020   0.375  0.00  0.00    +0.044 C 
ATOM      3  C   UNL     1      -0.228   0.711   1.512  0.00  0.00    -0.048 A 
ATOM      4  C   UNL     1      -1.466   1.308   1.313  0.00  0.00    +0.004 A 
ATOM      5  C   UNL     1      -2.090   1.971   2.332  0.00  0.00    +0.010 A 
ATOM      6  C   UNL     1      -1.472   2.058   3.583  0.00  0.00    -0.001 A 
ATOM      7  C   UNL     1      -2.110   2.765   4.695  0.00  0.00    +0.017 A 
ATOM      8  C   UNL     1      -1.463   2.818   5.886  0.00  0.00    +0.011 A 
ATOM      9  C   UNL     1      -0.203   2.201   6.038  0.00  0.00    +0.251 A 
ATOM     10  O   UNL     1       0.362   2.260   7.117  0.00  0.00    -0.268 OA
ATOM     11  N   UNL     1       0.391   1.549   5.023  0.00  0.00    -0.322 N 
ATOM     12  H   UNL     1       1.258   1.136   5.162  0.00  0.00    +0.169 HD
ATOM     13  C   UNL     1      -0.214   1.459   3.787  0.00  0.00    +0.049 A 
ATOM     14  C   UNL     1       0.400   0.785   2.737  0.00  0.00    +0.029 A 
ENDBRANCH   1   8
BRANCH   1  15
ATOM     15  C   UNL     1      -2.341   2.561   8.170  0.00  0.00    +0.143 A 
ATOM     16  N   UNL     1      -1.511   2.248   9.135  0.00  0.00    -0.115 NA
ATOM     17  N   UNL     1      -2.090   1.381   9.893  0.00  0.00    -0.023 NA
ATOM     18  N   UNL     1      -3.265   1.128   9.432  0.00  0.00    -0.044 NA
ATOM     19  N   UNL     1      -3.457   1.835   8.370  0.00  0.00    -0.227 N 
BRANCH  19  20
ATOM     20  C   UNL     1      -4.663   1.847   7.539  0.00  0.00    +0.111 C 
ATOM     21  C   UNL     1      -5.892   2.213   8.396  0.00  0.00    +0.027 C 
ATOM     22  C   UNL     1      -7.031   1.333   7.823  0.00  0.00    +0.002 C 
ATOM     23  C   UNL     1      -6.306   0.002   7.503  0.00  0.00    +0.002 C 
ATOM     24  C   UNL     1      -4.926   0.441   6.971  0.00  0.00    +0.027 C 
ENDBRANCH  19  20
ENDBRANCH   1  15
BRANCH   1  25
ATOM     25  N   UNL     1      -1.166   4.585   7.532  0.00  0.00    +0.394 N 
ATOM     26  H   UNL     1      -0.407   4.141   8.062  0.00  0.00    -0.080 HD
BRANCH  25  27
ATOM     27  C   UNL     1      -1.884   5.525   8.418  0.00  0.00    -0.034 C 
BRANCH  27  28
ATOM     28  C   UNL     1      -1.996   4.906   9.788  0.00  0.00    -0.027 A 
ATOM     29  C   UNL     1      -1.077   4.862  10.783  0.00  0.00    +0.009 A 
ATOM     30  C   UNL     1      -1.405   4.236  11.971  0.00  0.00    +0.008 A 
ATOM     31  C   UNL     1      -2.632   3.676  12.102  0.00  0.00    +0.045 A 
ATOM     32  S   UNL     1      -3.373   4.035  10.518  0.00  0.00    -0.103 S 
ENDBRANCH  27  28
ENDBRANCH  25  27
BRANCH  25  33
ATOM     33  C   UNL     1      -0.587   5.315   6.385  0.00  0.00    -0.045 C 
BRANCH  33  34
ATOM     34  C   UNL     1       0.526   6.232   6.894  0.00  0.00    +0.102 C 
ATOM     35  C   UNL     1       1.088   7.089   5.738  0.00  0.00    +0.032 C 
ATOM     36  C   UNL     1       2.602   7.172   6.033  0.00  0.00    +0.030 C 
ATOM     37  C   UNL     1       2.776   6.356   7.333  0.00  0.00    +0.160 C 
ATOM     38  O   UNL     1       1.651   5.451   7.354  0.00  0.00    -0.378 OA
ENDBRANCH  33  34
ENDBRANCH  25  33
ENDBRANCH   1  25
TORSDOF 8
