REMARK  Name = ZINC56709222
REMARK  12 active torsions:
REMARK  status: ('A' for Active; 'I' for Inactive)
REMARK    1  A    between atoms: C_1  and  C_2
REMARK    2  A    between atoms: C_2  and  C_3
REMARK    3  A    between atoms: C_3  and  C_4
REMARK    4  A    between atoms: C_3  and  C_6
REMARK    5  A    between atoms: C_4  and  C_5
REMARK    6  A    between atoms: C_6  and  C_8
REMARK    7  A    between atoms: C_6  and  N_14
REMARK    8  A    between atoms: N_17  and  C_18
REMARK    9  A    between atoms: C_21  and  O_25
REMARK   10  A    between atoms: C_23  and  C_24
REMARK   11  A    between atoms: O_25  and  C_26
REMARK   12  A    between atoms: C_26  and  C_27
REMARK                            x       y       z     vdW  Elec       q    Type
REMARK                         _______ _______ _______ _____ _____    ______ ____
ROOT
ATOM      1  N   UNL     1       0.918  -0.493  -3.797  0.00  0.00    -0.292 N 
ATOM      2  C   UNL     1       0.891  -1.718  -4.361  0.00  0.00    +0.304 C 
ATOM      3  O   UNL     1       0.040  -2.520  -4.031  0.00  0.00    -0.252 OA
ATOM      4  N   UNL     1       1.809  -2.052  -5.289  0.00  0.00    -0.269 N 
ATOM      5  H   UNL     1       1.550   0.172  -4.112  0.00  0.00    +0.151 HD
ATOM      6  H   UNL     1       2.522  -1.433  -5.512  0.00  0.00    +0.156 HD
ENDROOT
BRANCH   4   7
ATOM      7  C   UNL     1       1.733  -3.295  -5.933  0.00  0.00    +0.038 A 
ATOM      8  C   UNL     1       1.165  -4.381  -5.282  0.00  0.00    +0.027 A 
ATOM      9  C   UNL     1       1.090  -5.605  -5.917  0.00  0.00    +0.047 A 
ATOM     10  C   UNL     1       1.584  -5.749  -7.205  0.00  0.00    +0.122 A 
ATOM     11  C   UNL     1       2.152  -4.664  -7.857  0.00  0.00    +0.050 A 
ATOM     12  C   UNL     1       2.222  -3.438  -7.225  0.00  0.00    -0.026 A 
ATOM     13  C   UNL     1       2.833  -2.258  -7.935  0.00  0.00    +0.046 C 
BRANCH  10  14
ATOM     14  O   UNL     1       1.511  -6.955  -7.830  0.00  0.00    -0.483 OA
BRANCH  14  15
ATOM     15  C   UNL     1       0.914  -8.028  -7.100  0.00  0.00    +0.324 C 
BRANCH  15  16
ATOM     16  C   UNL     1       0.921  -9.276  -7.946  0.00  0.00    +0.248 C 
ATOM     17  O   UNL     1       1.391  -9.248  -9.063  0.00  0.00    -0.272 OA
ATOM     18  N   UNL     1       0.405 -10.422  -7.460  0.00  0.00    -0.327 N 
ATOM     19  H   UNL     1       0.029 -10.444  -6.566  0.00  0.00    +0.145 HD
ATOM     20  H   UNL     1       0.410 -11.225  -8.004  0.00  0.00    +0.145 HD
ENDBRANCH  15  16
ENDBRANCH  14  15
ENDBRANCH  10  14
ENDBRANCH   4   7
BRANCH   1  21
ATOM     21  C   UNL     1      -0.008  -0.167  -2.710  0.00  0.00    +0.108 C 
BRANCH  21  22
ATOM     22  C   UNL     1      -0.066   1.328  -2.532  0.00  0.00    -0.027 A 
ATOM     23  C   UNL     1       1.060   2.096  -2.760  0.00  0.00    +0.005 A 
ATOM     24  C   UNL     1       1.007   3.467  -2.596  0.00  0.00    +0.000 A 
ATOM     25  C   UNL     1      -0.173   4.071  -2.204  0.00  0.00    +0.000 A 
ATOM     26  C   UNL     1      -1.300   3.304  -1.977  0.00  0.00    +0.000 A 
ATOM     27  C   UNL     1      -1.248   1.933  -2.145  0.00  0.00    +0.005 A 
ENDBRANCH  21  22
BRANCH  21  28
ATOM     28  C   UNL     1       0.478  -0.817  -1.413  0.00  0.00    +0.013 C 
BRANCH  28  30
ATOM     29  C   UNL     1       2.882  -0.499  -2.017  0.00  0.00    +0.004 C 
ATOM     30  C   UNL     1       1.800  -0.175  -0.986  0.00  0.00    +0.002 C 
ENDBRANCH  28  30
BRANCH  28  31
ATOM     31  C   UNL     1      -0.568  -0.611  -0.316  0.00  0.00    +0.002 C 
ATOM     32  C   UNL     1      -1.863  -1.326  -0.706  0.00  0.00    +0.004 C 
ENDBRANCH  28  31
ENDBRANCH  21  28
ENDBRANCH   1  21
TORSDOF 9
