REMARK  Name = ZINC61606639
REMARK  7 active torsions:
REMARK  status: ('A' for Active; 'I' for Inactive)
REMARK    1  A    between atoms: C_1  and  C_2
REMARK    2  A    between atoms: C_7  and  C_9
REMARK    3  A    between atoms: C_7  and  S_12
REMARK    4  A    between atoms: S_12  and  C_13
REMARK    5  A    between atoms: N_19  and  C_20
REMARK    6  A    between atoms: C_20  and  C_21
REMARK    7  A    between atoms: C_20  and  C_22
REMARK                            x       y       z     vdW  Elec       q    Type
REMARK                         _______ _______ _______ _____ _____    ______ ____
ROOT
ATOM      1  S   UNL     1       1.612  -2.626  -0.259  0.00  0.00    -0.068 S 
ENDROOT
BRANCH   1   7
ATOM      2  C   UNL     1      -0.019   1.526   0.010  0.00  0.00    +0.007 C 
ATOM      3  C   UNL     1       0.002  -0.004   0.002  0.00  0.00    -0.012 C 
ATOM      4  C   UNL     1      -1.433  -0.534   0.013  0.00  0.00    +0.003 C 
ATOM      5  C   UNL     1      -1.413  -2.063   0.004  0.00  0.00    +0.002 C 
ATOM      6  C   UNL     1      -0.673  -2.570   1.244  0.00  0.00    +0.029 C 
ATOM      7  C   UNL     1       0.763  -2.041   1.233  0.00  0.00    +0.125 C 
ATOM      8  C   UNL     1       0.742  -0.511   1.242  0.00  0.00    +0.032 C 
BRANCH   7   9
ATOM      9  C   UNL     1       1.492  -2.540   2.454  0.00  0.00    +0.372 C 
ATOM     10  O   UNL     1       2.491  -3.227   2.329  0.00  0.00    -0.245 OA
ATOM     11  O   UNL     1       1.082  -2.257   3.567  0.00  0.00    -0.245 OA
ENDBRANCH   7   9
ENDBRANCH   1   7
BRANCH   1  12
ATOM     12  C   UNL     1       1.553  -4.381  -0.123  0.00  0.00    +0.193 A 
ATOM     13  N   UNL     1       1.004  -5.049   0.851  0.00  0.00    -0.145 NA
ATOM     14  N   UNL     1       1.170  -6.416   0.587  0.00  0.00    -0.226 N 
ATOM     15  H   UNL     1       0.861  -7.149   1.141  0.00  0.00    +0.194 HD
ATOM     16  C   UNL     1       1.838  -6.524  -0.580  0.00  0.00    +0.345 A 
ATOM     17  O   UNL     1       2.164  -7.561  -1.130  0.00  0.00    -0.245 OA
ATOM     18  N   UNL     1       2.075  -5.275  -1.030  0.00  0.00    -0.268 N 
BRANCH  18  19
ATOM     19  C   UNL     1       2.772  -4.929  -2.271  0.00  0.00    +0.088 C 
ATOM     20  C   UNL     1       4.192  -5.498  -2.234  0.00  0.00    +0.031 C 
ATOM     21  C   UNL     1       2.017  -5.521  -3.463  0.00  0.00    +0.031 C 
ENDBRANCH  18  19
ENDBRANCH   1  12
TORSDOF 4
