REMARK  Name = ZINC64340166
REMARK  10 active torsions:
REMARK  status: ('A' for Active; 'I' for Inactive)
REMARK    1  A    between atoms: C_1  and  N_2
REMARK    2  A    between atoms: N_2  and  C_3
REMARK    3  A    between atoms: N_2  and  S_4
REMARK    4  A    between atoms: S_4  and  C_7
REMARK    5  A    between atoms: C_11  and  N_13
REMARK    6  A    between atoms: C_14  and  C_16
REMARK    7  A    between atoms: C_16  and  C_18
REMARK    8  A    between atoms: C_16  and  N_28
REMARK    9  A    between atoms: C_18  and  C_19
REMARK   10  A    between atoms: C_29  and  C_31
REMARK                            x       y       z     vdW  Elec       q    Type
REMARK                         _______ _______ _______ _____ _____    ______ ____
ROOT
ATOM      1  C   UNL     1       6.325  -5.041  -1.556  0.00  0.00    +0.163 C 
ENDROOT
BRANCH   1   3
ATOM      2  N   UNL     1       4.373  -3.525  -1.462  0.00  0.00    -0.284 N 
ATOM      3  C   UNL     1       5.626  -3.752  -1.904  0.00  0.00    +0.238 C 
ATOM      4  O   UNL     1       6.190  -2.920  -2.581  0.00  0.00    -0.273 OA
ATOM      5  H   UNL     1       3.950  -4.155  -0.858  0.00  0.00    +0.155 HD
BRANCH   2  10
ATOM      6  C   UNL     1       2.109  -0.629  -1.423  0.00  0.00    +0.107 A 
ATOM      7  C   UNL     1       2.317  -0.117  -2.690  0.00  0.00    +0.028 A 
ATOM      8  C   UNL     1       3.205  -0.734  -3.551  0.00  0.00    +0.004 A 
ATOM      9  C   UNL     1       3.889  -1.864  -3.147  0.00  0.00    +0.023 A 
ATOM     10  C   UNL     1       3.683  -2.380  -1.874  0.00  0.00    +0.035 A 
ATOM     11  C   UNL     1       2.793  -1.755  -1.010  0.00  0.00    +0.051 A 
BRANCH   6  12
ATOM     12  S   UNL     1       0.975   0.162  -0.329  0.00  0.00    +0.060 S 
ATOM     13  O   UNL     1       0.557  -0.824   0.605  0.00  0.00    -0.153 OA
ATOM     14  O   UNL     1       0.057   0.877  -1.144  0.00  0.00    -0.153 OA
BRANCH  12  16
ATOM     15  C   UNL     1       1.951   2.660   0.015  0.00  0.00    +0.131 C 
ATOM     16  N   UNL     1       1.829   1.293   0.527  0.00  0.00    -0.183 NA
ATOM     17  C   UNL     1       2.461   0.927   1.797  0.00  0.00    +0.131 C 
ENDBRANCH  12  16
ENDBRANCH   6  12
ENDBRANCH   2  10
ENDBRANCH   1   3
BRANCH   1  18
ATOM     18  N   UNL     1       7.423  -5.271  -2.499  0.00  0.00    -0.299 N 
ATOM     19  C   UNL     1       8.424  -4.374  -2.599  0.00  0.00    +0.251 C 
ATOM     20  O   UNL     1       8.416  -3.373  -1.906  0.00  0.00    -0.270 OA
ATOM     21  H   UNL     1       7.430  -6.068  -3.051  0.00  0.00    +0.150 HD
BRANCH  19  22
ATOM     22  C   UNL     1       9.523  -4.603  -3.542  0.00  0.00    +0.074 A 
ATOM     23  C   UNL     1      10.638  -3.818  -3.792  0.00  0.00    +0.021 A 
ATOM     24  C   UNL     1      11.504  -4.299  -4.744  0.00  0.00    +0.008 A 
ATOM     25  C   UNL     1      11.222  -5.474  -5.359  0.00  0.00    +0.046 A 
ATOM     26  S   UNL     1       9.777  -5.968  -4.660  0.00  0.00    -0.092 S 
ENDBRANCH  19  22
ENDBRANCH   1  18
BRANCH   1  27
ATOM     27  C   UNL     1       6.884  -4.951  -0.135  0.00  0.00    +0.065 C 
BRANCH  27  28
ATOM     28  C   UNL     1       7.475  -6.281   0.258  0.00  0.00    -0.039 C 
ATOM     29  C   UNL     1       8.772  -6.653   0.165  0.00  0.00    -0.001 A 
ATOM     30  C   UNL     1       9.974  -5.959  -0.313  0.00  0.00    +0.010 A 
ATOM     31  C   UNL     1      11.161  -6.607  -0.283  0.00  0.00    +0.001 A 
ATOM     32  C   UNL     1      11.271  -7.922   0.190  0.00  0.00    +0.002 A 
ATOM     33  C   UNL     1      10.213  -8.624   0.645  0.00  0.00    +0.026 A 
ATOM     34  C   UNL     1       8.916  -8.041   0.660  0.00  0.00    +0.043 A 
ATOM     35  N   UNL     1       7.753  -8.508   1.045  0.00  0.00    -0.380 N 
ATOM     36  C   UNL     1       6.740  -7.466   0.842  0.00  0.00    +0.144 C 
ATOM     37  H   UNL     1       7.590  -9.393   1.406  0.00  0.00    +0.160 HD
ENDBRANCH  27  28
ENDBRANCH   1  27
TORSDOF 8
