REMARK  Name = ZINC38189387
REMARK  5 active torsions:
REMARK  status: ('A' for Active; 'I' for Inactive)
REMARK    1  A    between atoms: C_2  and  C_3
REMARK    2  A    between atoms: C_3  and  N_4
REMARK    3  A    between atoms: C_8  and  C_9
REMARK    4  A    between atoms: C_18  and  C_19
REMARK    5  A    between atoms: N_27  and  C_28
REMARK                            x       y       z     vdW  Elec       q    Type
REMARK                         _______ _______ _______ _____ _____    ______ ____
ROOT
ATOM      1  N   UNL     1      -1.318  -1.700  -1.126  0.00  0.00    -0.242 N 
ATOM      2  C   UNL     1      -1.810  -1.305  -2.287  0.00  0.00    +0.259 C 
ATOM      3  O   UNL     1      -2.247  -0.176  -2.428  0.00  0.00    -0.269 OA
ATOM      4  C   UNL     1      -1.818  -2.232  -3.370  0.00  0.00    +0.078 C 
ATOM      5  C   UNL     1      -2.266  -2.064  -4.647  0.00  0.00    +0.031 C 
ATOM      6  S   UNL     1      -1.083  -3.672  -2.610  0.00  0.00    -0.049 S 
ATOM      7  C   UNL     1      -0.821  -2.980  -0.984  0.00  0.00    +0.169 C 
ATOM      8  N   UNL     1      -0.293  -3.546   0.078  0.00  0.00    -0.225 NA
ENDROOT
BRANCH   5   9
ATOM      9  C   UNL     1      -2.177  -3.130  -5.575  0.00  0.00    +0.009 A 
ATOM     10  C   UNL     1      -0.989  -3.952  -5.867  0.00  0.00    +0.007 A 
ATOM     11  C   UNL     1       0.318  -3.960  -5.382  0.00  0.00    +0.010 A 
ATOM     12  C   UNL     1       1.221  -4.879  -5.869  0.00  0.00    +0.001 A 
ATOM     13  C   UNL     1       0.835  -5.793  -6.838  0.00  0.00    +0.002 A 
ATOM     14  C   UNL     1      -0.453  -5.797  -7.327  0.00  0.00    +0.026 A 
ATOM     15  C   UNL     1      -1.381  -4.877  -6.848  0.00  0.00    +0.047 A 
ATOM     16  N   UNL     1      -2.710  -4.649  -7.143  0.00  0.00    -0.354 N 
ATOM     17  H   UNL     1      -3.228  -5.152  -7.791  0.00  0.00    +0.166 HD
ATOM     18  C   UNL     1      -3.196  -3.616  -6.389  0.00  0.00    +0.055 A 
BRANCH  18  19
ATOM     19  C   UNL     1      -4.576  -3.098  -6.433  0.00  0.00    -0.001 A 
ATOM     20  C   UNL     1      -5.259  -2.818  -5.247  0.00  0.00    +0.010 A 
ATOM     21  C   UNL     1      -6.550  -2.334  -5.296  0.00  0.00    +0.001 A 
ATOM     22  C   UNL     1      -7.168  -2.127  -6.517  0.00  0.00    +0.000 A 
ATOM     23  C   UNL     1      -6.498  -2.402  -7.696  0.00  0.00    +0.001 A 
ATOM     24  C   UNL     1      -5.205  -2.881  -7.662  0.00  0.00    +0.010 A 
ENDBRANCH  18  19
ENDBRANCH   5   9
BRANCH   8  25
ATOM     25  C   UNL     1       0.146  -4.842   0.017  0.00  0.00    +0.067 A 
ATOM     26  C   UNL     1      -0.639  -5.819  -0.600  0.00  0.00    +0.030 A 
ATOM     27  C   UNL     1      -0.192  -7.123  -0.659  0.00  0.00    +0.040 A 
ATOM     28  C   UNL     1       1.032  -7.464  -0.108  0.00  0.00    +0.124 A 
ATOM     29  C   UNL     1       1.816  -6.499   0.505  0.00  0.00    +0.040 A 
ATOM     30  C   UNL     1       1.382  -5.191   0.565  0.00  0.00    +0.030 A 
ATOM     31  F   UNL     1       1.465  -8.742  -0.168  0.00  0.00    -0.205 F 
ENDBRANCH   8  25
BRANCH   1  32
ATOM     32  C   UNL     1      -1.293  -0.775   0.010  0.00  0.00    +0.142 C 
BRANCH  32  34
ATOM     33  C   UNL     1      -0.016   1.306   0.009  0.00  0.00    +0.005 C 
ATOM     34  C   UNL     1       0.002  -0.004   0.002  0.00  0.00    -0.015 C 
ENDBRANCH  32  34
ENDBRANCH   1  32
TORSDOF 5
