REMARK  Name = ZINC10023656
REMARK  14 active torsions:
REMARK  status: ('A' for Active; 'I' for Inactive)
REMARK    1  A    between atoms: C_1  and  C_2
REMARK    2  A    between atoms: C_2  and  O_3
REMARK    3  A    between atoms: O_3  and  C_4
REMARK    4  A    between atoms: C_4  and  C_6
REMARK    5  A    between atoms: C_10  and  N_11
REMARK    6  A    between atoms: C_12  and  C_14
REMARK    7  A    between atoms: C_14  and  S_15
REMARK    8  A    between atoms: S_15  and  C_18
REMARK    9  A    between atoms: C_21  and  O_24
REMARK   10  A    between atoms: O_24  and  C_25
REMARK   11  A    between atoms: C_26  and  C_31
REMARK   12  A    between atoms: C_26  and  C_32
REMARK   13  A    between atoms: C_27  and  C_29
REMARK   14  A    between atoms: C_27  and  C_30
REMARK                            x       y       z     vdW  Elec       q    Type
REMARK                         _______ _______ _______ _____ _____    ______ ____
ROOT
ATOM      1  C   UNL     1       1.241  -7.121  -4.405  0.00  0.00    +0.091 A 
ATOM      2  C   UNL     1       1.264  -8.560  -4.249  0.00  0.00    -0.024 A 
ATOM      3  C   UNL     1       1.276  -9.010  -2.973  0.00  0.00    -0.016 A 
ATOM      4  S   UNL     1       1.267  -7.543  -1.983  0.00  0.00    -0.079 S 
ATOM      5  C   UNL     1       1.243  -6.354  -3.244  0.00  0.00    +0.086 A 
ATOM      6  C   UNL     1       1.284 -10.437  -2.533  0.00  0.00    -0.041 C 
ATOM      7  C   UNL     1       2.055 -10.807  -4.879  0.00  0.00    -0.069 C 
ATOM      8  C   UNL     1       1.285  -9.580  -5.380  0.00  0.00    +0.024 C 
ATOM      9  C   UNL     1       3.526 -10.434  -4.679  0.00  0.00    -0.010 C 
ATOM     10  C   UNL     1       1.985 -11.888  -5.974  0.00  0.00    -0.010 C 
ATOM     11  C   UNL     1       2.384 -10.640  -1.482  0.00  0.00    -0.005 C 
ATOM     12  C   UNL     1      -0.071 -10.748  -1.869  0.00  0.00    -0.005 C 
ATOM     13  N   UNL     1       1.466 -11.405  -3.652  0.00  0.00    +0.389 N 
ATOM     14  H   UNL     1       0.548 -11.797  -3.893  0.00  0.00    -0.084 HD
ATOM     15  H   UNL     1       2.086 -12.158  -3.331  0.00  0.00    -0.084 HD
ENDROOT
BRANCH   5  16
ATOM     16  N   UNL     1       1.228  -4.973  -3.126  0.00  0.00    -0.278 N 
ATOM     17  C   UNL     1       1.233  -4.401  -1.906  0.00  0.00    +0.239 C 
ATOM     18  O   UNL     1       1.251  -5.094  -0.911  0.00  0.00    -0.274 OA
ATOM     19  H   UNL     1       1.214  -4.419  -3.922  0.00  0.00    +0.155 HD
BRANCH  17  20
ATOM     20  C   UNL     1       1.217  -2.899  -1.778  0.00  0.00    +0.267 C 
BRANCH  20  21
ATOM     21  S   UNL     1       1.228  -2.442  -0.022  0.00  0.00    +0.005 S 
ATOM     22  O   UNL     1       2.473  -2.793   0.567  0.00  0.00    -0.169 OA
ATOM     23  O   UNL     1       0.004  -2.822   0.591  0.00  0.00    -0.169 OA
BRANCH  21  24
ATOM     24  C   UNL     1       1.208  -0.680  -0.013  0.00  0.00    +0.089 A 
ATOM     25  C   UNL     1       0.002  -0.004   0.002  0.00  0.00    +0.030 A 
ATOM     26  C   UNL     1      -0.017   1.377   0.010  0.00  0.00    +0.047 A 
ATOM     27  C   UNL     1       1.176   2.086   0.002  0.00  0.00    +0.120 A 
ATOM     28  C   UNL     1       2.385   1.405  -0.013  0.00  0.00    +0.047 A 
ATOM     29  C   UNL     1       2.398   0.024  -0.021  0.00  0.00    +0.030 A 
BRANCH  27  30
ATOM     30  O   UNL     1       1.160   3.445   0.009  0.00  0.00    -0.495 OA
ATOM     31  C   UNL     1       2.426   4.108   0.001  0.00  0.00    +0.277 C 
ENDBRANCH  27  30
ENDBRANCH  21  24
ENDBRANCH  20  21
ENDBRANCH  17  20
ENDBRANCH   5  16
BRANCH   1  32
ATOM     32  C   UNL     1       1.212  -6.486  -5.724  0.00  0.00    +0.342 C 
ATOM     33  O   UNL     1       2.252  -6.204  -6.286  0.00  0.00    -0.245 OA
BRANCH  32  34
ATOM     34  O   UNL     1       0.030  -6.213  -6.315  0.00  0.00    -0.461 OA
BRANCH  34  36
ATOM     35  C   UNL     1      -1.348  -5.354  -8.130  0.00  0.00    +0.048 C 
ATOM     36  C   UNL     1       0.077  -5.583  -7.622  0.00  0.00    +0.229 C 
ENDBRANCH  34  36
ENDBRANCH  32  34
ENDBRANCH   1  32
TORSDOF 8
