REMARK  Name = ZINC55311350
REMARK  5 active torsions:
REMARK  status: ('A' for Active; 'I' for Inactive)
REMARK    1  A    between atoms: C_1  and  C_2
REMARK    2  A    between atoms: C_3  and  S_10
REMARK    3  A    between atoms: C_5  and  C_7
REMARK    4  A    between atoms: S_10  and  N_13
REMARK    5  A    between atoms: N_13  and  C_14
REMARK                            x       y       z     vdW  Elec       q    Type
REMARK                         _______ _______ _______ _____ _____    ______ ____
ROOT
ATOM      1  S   UNL     1      -3.120  -0.333  -0.261  0.00  0.00    +0.062 S 
ATOM      2  O   UNL     1      -3.667   0.549  -1.231  0.00  0.00    -0.153 OA
ATOM      3  O   UNL     1      -3.657  -1.627  -0.020  0.00  0.00    -0.153 OA
ENDROOT
BRANCH   1   6
ATOM      4  C   UNL     1      -0.814  -2.134   1.217  0.00  0.00    +0.088 C 
ATOM      5  C   UNL     1      -0.528  -1.326  -0.022  0.00  0.00    +0.129 A 
ATOM      6  C   UNL     1      -1.426  -0.562  -0.685  0.00  0.00    +0.146 A 
ATOM      7  C   UNL     1      -0.756   0.015  -1.774  0.00  0.00    +0.085 A 
ATOM      8  C   UNL     1       0.545  -0.438  -1.718  0.00  0.00    +0.218 A 
ATOM      9  O   UNL     1       0.655  -1.245  -0.641  0.00  0.00    -0.451 OA
BRANCH   8  10
ATOM     10  C   UNL     1       1.615  -0.099  -2.653  0.00  0.00    +0.421 C 
ATOM     11  O   UNL     1       1.391   0.653  -3.594  0.00  0.00    -0.237 OA
ATOM     12  O   UNL     1       2.736  -0.567  -2.497  0.00  0.00    -0.237 OA
ENDBRANCH   8  10
ENDBRANCH   1   6
BRANCH   1  13
ATOM     13  N   UNL     1      -3.159   0.471   1.186  0.00  0.00    -0.187 NA
ATOM     14  H   UNL     1      -3.532   0.041   1.971  0.00  0.00    +0.148 HD
BRANCH  13  15
ATOM     15  C   UNL     1      -2.628   1.833   1.281  0.00  0.00    +0.077 C 
ATOM     16  C   UNL     1      -1.343   1.811   2.135  0.00  0.00    +0.020 C 
ATOM     17  C   UNL     1      -0.539   3.043   1.821  0.00  0.00    +0.002 C 
ATOM     18  C   UNL     1      -0.826   4.199   2.798  0.00  0.00    +0.000 C 
ATOM     19  C   UNL     1      -2.324   4.344   3.129  0.00  0.00    +0.000 C 
ATOM     20  C   UNL     1      -3.201   4.173   1.918  0.00  0.00    +0.002 C 
ATOM     21  C   UNL     1      -3.653   2.700   1.843  0.00  0.00    +0.020 C 
ENDBRANCH  13  15
ENDBRANCH   1  13
TORSDOF 4
