REMARK  Name = ZINC54467461
REMARK  6 active torsions:
REMARK  status: ('A' for Active; 'I' for Inactive)
REMARK    1  A    between atoms: C_1  and  C_2
REMARK    2  A    between atoms: C_2  and  C_3
REMARK    3  A    between atoms: C_3  and  C_5
REMARK    4  A    between atoms: C_3  and  C_6
REMARK    5  A    between atoms: C_6  and  N_7
REMARK    6  A    between atoms: N_7  and  C_8
REMARK                            x       y       z     vdW  Elec       q    Type
REMARK                         _______ _______ _______ _____ _____    ______ ____
ROOT
ATOM      1  C   UNL     1       1.128  -3.953  -2.664  0.00  0.00    +0.049 C 
ATOM      2  C   UNL     1       1.788  -4.463  -3.924  0.00  0.00    -0.031 A 
ATOM      3  C   UNL     1       3.078  -4.389  -4.401  0.00  0.00    +0.005 A 
ATOM      4  C   UNL     1       3.398  -4.963  -5.619  0.00  0.00    +0.015 A 
ATOM      5  C   UNL     1       2.419  -5.609  -6.353  0.00  0.00    +0.020 A 
ATOM      6  C   UNL     1       1.125  -5.685  -5.877  0.00  0.00    +0.038 A 
ATOM      7  C   UNL     1       0.797  -5.109  -4.651  0.00  0.00    +0.036 A 
ATOM      8  N   UNL     1      -0.418  -5.052  -3.967  0.00  0.00    -0.286 N 
ATOM      9  C   UNL     1      -0.314  -4.396  -2.795  0.00  0.00    +0.208 C 
ATOM     10  O   UNL     1      -1.205  -4.196  -1.997  0.00  0.00    -0.277 OA
ATOM     11 BR   UNL     1       2.855  -6.393  -8.018  0.00  0.00    -0.050 Br
ATOM     12  H   UNL     1      -1.243  -5.441  -4.297  0.00  0.00    +0.155 HD
ENDROOT
BRANCH   1  13
ATOM     13  N   UNL     1       1.212  -2.488  -2.595  0.00  0.00    +0.390 N 
ATOM     14  H   UNL     1       0.703  -2.085  -3.367  0.00  0.00    -0.084 HD
ATOM     15  H   UNL     1       2.179  -2.204  -2.645  0.00  0.00    -0.084 HD
BRANCH  13  16
ATOM     16  C   UNL     1       0.630  -2.023  -1.329  0.00  0.00    -0.078 C 
BRANCH  16  17
ATOM     17  C   UNL     1       0.718  -0.497  -1.257  0.00  0.00    -0.031 C 
ATOM     18  C   UNL     1       2.187  -0.073  -1.207  0.00  0.00    +0.005 C 
BRANCH  17  20
ATOM     19  C   UNL     1      -0.019   1.526   0.010  0.00  0.00    +0.004 C 
ATOM     20  C   UNL     1       0.002  -0.004   0.002  0.00  0.00    -0.002 C 
ENDBRANCH  17  20
ENDBRANCH  16  17
ENDBRANCH  13  16
ENDBRANCH   1  13
TORSDOF 4
