REMARK  Name = ZINC35446139
REMARK  6 active torsions:
REMARK  status: ('A' for Active; 'I' for Inactive)
REMARK    1  A    between atoms: C_6  and  C_7
REMARK    2  A    between atoms: N_15  and  C_25
REMARK    3  A    between atoms: C_25  and  C_26
REMARK    4  A    between atoms: N_28  and  C_29
REMARK    5  A    between atoms: C_29  and  C_30
REMARK    6  A    between atoms: C_30  and  C_31
REMARK                            x       y       z     vdW  Elec       q    Type
REMARK                         _______ _______ _______ _____ _____    ______ ____
ROOT
ATOM      1  C   UNL     1      -0.004   1.352   0.381  0.00  0.00    +0.015 A 
ATOM      2  C   UNL     1       1.175   2.067   0.390  0.00  0.00    +0.026 A 
ATOM      3  C   UNL     1       2.367   1.444   0.043  0.00  0.00    +0.052 A 
ATOM      4  C   UNL     1       2.377   0.093  -0.312  0.00  0.00    +0.059 A 
ATOM      5  C   UNL     1       1.198  -0.626  -0.329  0.00  0.00    +0.038 A 
ATOM      6  C   UNL     1      -0.002   0.003   0.019  0.00  0.00    +0.039 A 
ATOM      7  N   UNL     1       3.591  -0.527  -0.632  0.00  0.00    -0.259 N 
ATOM      8  C   UNL     1       4.689   0.210  -0.861  0.00  0.00    +0.241 C 
ATOM      9  O   UNL     1       5.723  -0.351  -1.155  0.00  0.00    -0.273 OA
ATOM     10  C   UNL     1       4.677   1.714  -0.764  0.00  0.00    +0.160 C 
ATOM     11  N   UNL     1       3.561   2.178   0.041  0.00  0.00    -0.317 N 
ATOM     12  C   UNL     1       3.588   3.407   0.833  0.00  0.00    +0.106 C 
ATOM     13  C   UNL     1       4.976   3.660   1.413  0.00  0.00    +0.019 C 
ATOM     14  C   UNL     1       5.991   3.606   0.265  0.00  0.00    +0.004 C 
ATOM     15  C   UNL     1       6.037   2.181  -0.272  0.00  0.00    +0.032 C 
ENDROOT
BRANCH   6  16
ATOM     16  C   UNL     1      -1.265  -0.759   0.004  0.00  0.00    +0.247 C 
ATOM     17  O   UNL     1      -1.293  -1.898   0.429  0.00  0.00    -0.270 OA
ATOM     18  N   UNL     1      -2.388  -0.193  -0.480  0.00  0.00    -0.298 N 
ATOM     19  C   UNL     1      -2.344   1.129  -1.118  0.00  0.00    +0.108 C 
ATOM     20  C   UNL     1      -2.987   1.029  -2.505  0.00  0.00    +0.019 C 
ATOM     21  C   UNL     1      -4.394   0.443  -2.370  0.00  0.00    +0.003 C 
ATOM     22  C   UNL     1      -4.307  -0.964  -1.775  0.00  0.00    +0.019 C 
ATOM     23  C   UNL     1      -3.679  -0.889  -0.385  0.00  0.00    +0.108 C 
ENDBRANCH   6  16
BRANCH   7  24
ATOM     24  C   UNL     1       3.663  -1.988  -0.717  0.00  0.00    +0.209 C 
BRANCH  24  25
ATOM     25  C   UNL     1       3.356  -2.424  -2.127  0.00  0.00    +0.231 C 
ATOM     26  O   UNL     1       3.102  -1.597  -2.976  0.00  0.00    -0.274 OA
ATOM     27  N   UNL     1       3.364  -3.734  -2.443  0.00  0.00    -0.314 N 
ATOM     28  H   UNL     1       3.567  -4.396  -1.763  0.00  0.00    +0.149 HD
BRANCH  27  29
ATOM     29  C   UNL     1       3.065  -4.159  -3.813  0.00  0.00    +0.108 C 
BRANCH  29  30
ATOM     30  C   UNL     1       3.141  -5.684  -3.902  0.00  0.00    +0.049 C 
BRANCH  30  31
ATOM     31  C   UNL     1       2.834  -6.121  -5.311  0.00  0.00    -0.072 C 
ATOM     32  C   UNL     1       3.829  -6.327  -6.113  0.00  0.00    -0.028 C 
ATOM     33  C   UNL     1       3.681  -6.754  -7.544  0.00  0.00    +0.027 C 
ATOM     34  C   UNL     1       2.276  -7.309  -7.786  0.00  0.00    +0.004 C 
ATOM     35  C   UNL     1       1.256  -6.312  -7.222  0.00  0.00    +0.005 C 
ATOM     36  C   UNL     1       1.394  -6.295  -5.696  0.00  0.00    +0.030 C 
ENDBRANCH  30  31
ENDBRANCH  29  30
ENDBRANCH  27  29
ENDBRANCH  24  25
ENDBRANCH   7  24
TORSDOF 6
