REMARK  Name = ZINC15672556
REMARK  8 active torsions:
REMARK  status: ('A' for Active; 'I' for Inactive)
REMARK    1  A    between atoms: C_1  and  C_2
REMARK    2  A    between atoms: C_4  and  C_32
REMARK    3  A    between atoms: C_6  and  C_8
REMARK    4  A    between atoms: C_16  and  C_18
REMARK    5  A    between atoms: C_18  and  N_19
REMARK    6  A    between atoms: N_22  and  C_23
REMARK    7  A    between atoms: C_26  and  C_29
REMARK    8  A    between atoms: C_29  and  C_31
REMARK                            x       y       z     vdW  Elec       q    Type
REMARK                         _______ _______ _______ _____ _____    ______ ____
ROOT
ATOM      1  C   UNL     1      -0.971   1.520   1.178  0.00  0.00    +0.024 C 
ATOM      2  C   UNL     1      -0.123   1.070  -0.015  0.00  0.00    -0.068 C 
ATOM      3  C   UNL     1      -0.797   3.011  -1.298  0.00  0.00    -0.078 C 
ATOM      4  C   UNL     1      -1.664   3.517  -0.141  0.00  0.00    -0.015 C 
ATOM      5  C   UNL     1      -2.177   2.311   0.657  0.00  0.00    -0.007 C 
ATOM      6  C   UNL     1      -2.985   1.409  -0.284  0.00  0.00    -0.010 C 
ATOM      7  C   UNL     1      -2.081   0.962  -1.437  0.00  0.00    -0.051 C 
ATOM      8  N   UNL     1      -0.727   1.534  -1.282  0.00  0.00    +0.383 N 
ATOM      9  H   UNL     1      -0.141   1.221  -2.065  0.00  0.00    -0.081 HD
ENDROOT
BRANCH   1  15
ATOM     10  C   UNL     1      -0.387  -3.169   2.438  0.00  0.00    +0.088 C 
ATOM     11  C   UNL     1      -1.185  -1.895   2.542  0.00  0.00    +0.127 A 
ATOM     12  N   UNL     1      -2.268  -1.878   3.291  0.00  0.00    -0.232 NA
ATOM     13  C   UNL     1      -2.998  -0.767   3.405  0.00  0.00    +0.081 A 
ATOM     14  C   UNL     1      -2.590   0.384   2.718  0.00  0.00    +0.052 A 
ATOM     15  C   UNL     1      -1.450   0.312   1.942  0.00  0.00    +0.047 A 
ATOM     16  N   UNL     1      -0.779  -0.830   1.880  0.00  0.00    -0.237 NA
BRANCH  13  17
ATOM     17  C   UNL     1      -4.212  -0.750   4.244  0.00  0.00    +0.038 A 
ATOM     18  C   UNL     1      -4.712  -1.731   5.061  0.00  0.00    +0.017 A 
ATOM     19  C   UNL     1      -5.873  -1.485   5.755  0.00  0.00    +0.008 A 
ATOM     20  C   UNL     1      -6.489  -0.282   5.612  0.00  0.00    +0.046 A 
ATOM     21  S   UNL     1      -5.407   0.558   4.467  0.00  0.00    -0.095 S 
ENDBRANCH  13  17
ENDBRANCH   1  15
BRANCH   7  22
ATOM     22  C   UNL     1      -1.979  -0.564  -1.443  0.00  0.00    +0.090 C 
BRANCH  22  23
ATOM     23  N   UNL     1      -1.005  -0.984  -2.454  0.00  0.00    -0.301 N 
ATOM     24  C   UNL     1      -0.820  -2.295  -2.708  0.00  0.00    +0.304 C 
ATOM     25  O   UNL     1      -1.524  -3.124  -2.166  0.00  0.00    -0.253 OA
ATOM     26  N   UNL     1       0.146  -2.685  -3.563  0.00  0.00    -0.269 N 
ATOM     27  H   UNL     1      -0.493  -0.319  -2.940  0.00  0.00    +0.150 HD
ATOM     28  H   UNL     1       0.657  -2.023  -4.054  0.00  0.00    +0.156 HD
BRANCH  26  29
ATOM     29  C   UNL     1       0.411  -4.041  -3.742  0.00  0.00    +0.035 A 
ATOM     30  C   UNL     1       0.828  -4.509  -4.985  0.00  0.00    +0.024 A 
ATOM     31  C   UNL     1       1.094  -5.837  -5.163  0.00  0.00    +0.013 A 
ATOM     32  C   UNL     1       0.936  -6.730  -4.096  0.00  0.00    +0.017 A 
ATOM     33  C   UNL     1       0.511  -6.256  -2.849  0.00  0.00    +0.013 A 
ATOM     34  C   UNL     1       0.253  -4.926  -2.678  0.00  0.00    +0.024 A 
BRANCH  32  35
ATOM     35  C   UNL     1       1.215  -8.159  -4.285  0.00  0.00    +0.160 C 
ATOM     36  O   UNL     1       0.974  -8.947  -3.394  0.00  0.00    -0.292 OA
ATOM     37  C   UNL     1       1.802  -8.647  -5.584  0.00  0.00    +0.091 C 
ENDBRANCH  32  35
ENDBRANCH  26  29
ENDBRANCH  22  23
ENDBRANCH   7  22
TORSDOF 6
