REMARK  Name = ZINC05804758
REMARK  9 active torsions:
REMARK  status: ('A' for Active; 'I' for Inactive)
REMARK    1  A    between atoms: C_1  and  C_2
REMARK    2  A    between atoms: C_2  and  C_3
REMARK    3  A    between atoms: C_6  and  C_15
REMARK    4  A    between atoms: C_13  and  O_14
REMARK    5  A    between atoms: C_15  and  S_16
REMARK    6  A    between atoms: S_16  and  C_17
REMARK    7  A    between atoms: C_20  and  C_22
REMARK    8  A    between atoms: C_25  and  C_29
REMARK    9  A    between atoms: C_26  and  C_28
REMARK                            x       y       z     vdW  Elec       q    Type
REMARK                         _______ _______ _______ _____ _____    ______ ____
ROOT
ATOM      1  C   UNL     1      -1.217   3.529   0.033  0.00  0.00    -0.005 A 
ATOM      2  C   UNL     1      -1.227   2.164   0.031  0.00  0.00    +0.019 A 
ATOM      3  C   UNL     1      -0.018   1.460   0.010  0.00  0.00    +0.022 A 
ATOM      4  C   UNL     1       0.002  -0.004   0.002  0.00  0.00    -0.020 A 
ATOM      5  C   UNL     1       1.208  -0.629  -0.013  0.00  0.00    +0.097 A 
ATOM      6  C   UNL     1       2.394   0.134  -0.020  0.00  0.00    +0.338 A 
ATOM      7  O   UNL     1       3.468  -0.440  -0.033  0.00  0.00    -0.245 OA
ATOM      8  O   UNL     1       2.369   1.476  -0.013  0.00  0.00    -0.422 OA
ATOM      9  C   UNL     1       1.204   2.159   0.002  0.00  0.00    +0.143 A 
ATOM     10  C   UNL     1       1.196   3.545   0.010  0.00  0.00    +0.092 A 
ATOM     11  C   UNL     1      -0.011   4.226   0.025  0.00  0.00    +0.124 A 
ENDROOT
BRANCH   1  13
ATOM     12  C   UNL     1      -2.821   4.753   1.474  0.00  0.00    +0.009 C 
ATOM     13  C   UNL     1      -2.520   4.287   0.049  0.00  0.00    +0.035 C 
ENDBRANCH   1  13
BRANCH  11  14
ATOM     14  O   UNL     1      -0.018   5.583   0.033  0.00  0.00    -0.506 OA
ATOM     15  H   UNL     1      -0.028   5.982  -0.848  0.00  0.00    +0.292 HD
ENDBRANCH  11  14
BRANCH   4  16
ATOM     16  C   UNL     1      -1.280  -0.796   0.009  0.00  0.00    +0.115 C 
BRANCH  16  17
ATOM     17  S   UNL     1      -1.809  -1.103  -1.694  0.00  0.00    -0.061 S 
BRANCH  17  18
ATOM     18  C   UNL     1      -3.286  -2.018  -1.395  0.00  0.00    +0.278 A 
ATOM     19  N   UNL     1      -3.776  -2.340  -0.221  0.00  0.00    -0.101 NA
ATOM     20  N   UNL     1      -4.866  -3.005  -0.379  0.00  0.00    -0.106 NA
ATOM     21  C   UNL     1      -5.110  -3.142  -1.660  0.00  0.00    +0.249 A 
ATOM     22  O   UNL     1      -4.115  -2.519  -2.330  0.00  0.00    -0.411 OA
BRANCH  21  23
ATOM     23  C   UNL     1      -6.262  -3.846  -2.260  0.00  0.00    +0.039 A 
ATOM     24  C   UNL     1      -6.399  -3.909  -3.648  0.00  0.00    +0.013 A 
ATOM     25  C   UNL     1      -7.474  -4.574  -4.202  0.00  0.00    +0.004 A 
ATOM     26  C   UNL     1      -8.420  -5.168  -3.385  0.00  0.00    -0.047 A 
ATOM     27  C   UNL     1      -8.293  -5.104  -2.009  0.00  0.00    -0.047 A 
ATOM     28  C   UNL     1      -7.220  -4.447  -1.442  0.00  0.00    +0.016 A 
ATOM     29  C   UNL     1      -9.328  -5.753  -1.128  0.00  0.00    +0.044 C 
ATOM     30  C   UNL     1      -9.594  -5.887  -3.998  0.00  0.00    +0.044 C 
ENDBRANCH  21  23
ENDBRANCH  17  18
ENDBRANCH  16  17
ENDBRANCH   4  16
TORSDOF 6
