REMARK  Name = ZINC04346927
REMARK  8 active torsions:
REMARK  status: ('A' for Active; 'I' for Inactive)
REMARK    1  A    between atoms: C_1  and  C_2
REMARK    2  A    between atoms: C_2  and  C_3
REMARK    3  A    between atoms: C_3  and  C_5
REMARK    4  A    between atoms: C_3  and  N_6
REMARK    5  A    between atoms: C_12  and  C_19
REMARK    6  A    between atoms: N_17  and  C_18
REMARK    7  A    between atoms: C_22  and  C_26
REMARK    8  A    between atoms: C_24  and  C_25
REMARK                            x       y       z     vdW  Elec       q    Type
REMARK                         _______ _______ _______ _____ _____    ______ ____
ROOT
ATOM      1  N   UNL     1      -3.698   0.833   3.385  0.00  0.00    -0.289 N 
ATOM      2  C   UNL     1      -3.424  -0.606   3.249  0.00  0.00    +0.159 C 
ATOM      3  C   UNL     1      -2.837  -0.760   1.863  0.00  0.00    +0.042 C 
ATOM      4  C   UNL     1      -2.807   0.475   1.324  0.00  0.00    +0.058 C 
ATOM      5  C   UNL     1      -3.321   1.421   2.235  0.00  0.00    +0.247 C 
ATOM      6  O   UNL     1      -3.411   2.614   2.011  0.00  0.00    -0.270 OA
ATOM      7  C   UNL     1      -2.256   0.617  -0.081  0.00  0.00    +0.142 C 
ATOM      8  N   UNL     1      -1.798  -0.615  -0.745  0.00  0.00    -0.288 N 
ATOM      9  C   UNL     1      -1.894  -1.780  -0.074  0.00  0.00    +0.307 C 
ATOM     10  O   UNL     1      -1.519  -2.802  -0.614  0.00  0.00    -0.252 OA
ATOM     11  N   UNL     1      -2.389  -1.847   1.168  0.00  0.00    -0.260 N 
ATOM     12  C   UNL     1      -2.454  -3.159   1.818  0.00  0.00    +0.139 C 
ATOM     13  H   UNL     1      -1.436  -0.588  -1.645  0.00  0.00    +0.151 HD
ENDROOT
BRANCH   7  14
ATOM     14  C   UNL     1      -1.096   1.577  -0.030  0.00  0.00    -0.020 A 
ATOM     15  C   UNL     1      -0.485   1.861   1.177  0.00  0.00    +0.006 A 
ATOM     16  C   UNL     1       0.583   2.737   1.222  0.00  0.00    +0.004 A 
ATOM     17  C   UNL     1       1.036   3.334   0.061  0.00  0.00    -0.050 A 
ATOM     18  C   UNL     1       0.423   3.055  -1.145  0.00  0.00    +0.007 A 
ATOM     19  C   UNL     1      -0.645   2.178  -1.191  0.00  0.00    -0.045 A 
ATOM     20  C   UNL     1      -1.314   1.872  -2.506  0.00  0.00    +0.044 C 
ATOM     21  C   UNL     1       2.201   4.290   0.110  0.00  0.00    +0.044 C 
ENDBRANCH   7  14
BRANCH   1  22
ATOM     22  C   UNL     1      -4.275   1.501   4.554  0.00  0.00    +0.073 C 
ATOM     23  C   UNL     1      -3.287   2.542   5.085  0.00  0.00    +0.028 C 
BRANCH  22  25
ATOM     24  C   UNL     1      -6.609   1.139   3.741  0.00  0.00    +0.005 C 
ATOM     25  C   UNL     1      -5.580   2.192   4.154  0.00  0.00    +0.019 C 
ENDBRANCH  22  25
ENDBRANCH   1  22
TORSDOF 3
