REMARK  Name = ZINC21557473
REMARK  15 active torsions:
REMARK  status: ('A' for Active; 'I' for Inactive)
REMARK    1  A    between atoms: C_1  and  C_2
REMARK    2  A    between atoms: C_2  and  N_3
REMARK    3  A    between atoms: N_3  and  C_4
REMARK    4  A    between atoms: N_3  and  S_6
REMARK    5  A    between atoms: C_4  and  C_5
REMARK    6  A    between atoms: S_6  and  C_9
REMARK    7  A    between atoms: C_13  and  C_15
REMARK    8  A    between atoms: N_17  and  C_18
REMARK    9  A    between atoms: C_18  and  C_20
REMARK   10  A    between atoms: C_18  and  C_23
REMARK   11  A    between atoms: C_20  and  C_21
REMARK   12  A    between atoms: C_20  and  C_22
REMARK   13  A    between atoms: N_25  and  C_26
REMARK   14  A    between atoms: C_26  and  C_28
REMARK   15  A    between atoms: C_26  and  C_29
REMARK                            x       y       z     vdW  Elec       q    Type
REMARK                         _______ _______ _______ _____ _____    ______ ____
ROOT
ATOM      1  C   UNL     1       0.041   5.945   2.324  0.00  0.00    +0.162 C 
ENDROOT
BRANCH   1   4
ATOM      2  C   UNL     1       0.224   7.902   3.764  0.00  0.00    +0.245 C 
ATOM      3  O   UNL     1      -0.681   7.453   4.439  0.00  0.00    -0.270 OA
ATOM      4  N   UNL     1       0.659   7.224   2.683  0.00  0.00    -0.300 N 
ATOM      5  H   UNL     1       1.478   7.630   2.071  0.00  0.00    +0.150 HD
BRANCH   2  10
ATOM      6  C   UNL     1       0.985  11.102   5.577  0.00  0.00    +0.106 A 
ATOM      7  C   UNL     1       2.015  11.610   4.806  0.00  0.00    +0.028 A 
ATOM      8  C   UNL     1       2.464  10.916   3.696  0.00  0.00    +0.003 A 
ATOM      9  C   UNL     1       1.887   9.711   3.353  0.00  0.00    +0.013 A 
ATOM     10  C   UNL     1       0.848   9.193   4.127  0.00  0.00    +0.039 A 
ATOM     11  C   UNL     1       0.396   9.901   5.242  0.00  0.00    +0.041 A 
BRANCH   6  12
ATOM     12  S   UNL     1       0.420  11.994   6.987  0.00  0.00    +0.061 S 
ATOM     13  O   UNL     1      -0.184  11.044   7.854  0.00  0.00    -0.153 OA
ATOM     14  O   UNL     1       1.496  12.826   7.399  0.00  0.00    -0.153 OA
BRANCH  12  15
ATOM     15  N   UNL     1      -0.789  13.003   6.476  0.00  0.00    -0.177 NA
BRANCH  15  17
ATOM     16  C   UNL     1      -2.859  12.984   7.779  0.00  0.00    +0.022 C 
ATOM     17  C   UNL     1      -2.180  12.542   6.481  0.00  0.00    +0.106 C 
ENDBRANCH  15  17
BRANCH  15  18
ATOM     18  C   UNL     1      -0.469  14.358   6.018  0.00  0.00    +0.106 C 
ATOM     19  C   UNL     1      -0.322  14.359   4.495  0.00  0.00    +0.022 C 
ENDBRANCH  15  18
ENDBRANCH  12  15
ENDBRANCH   6  12
ENDBRANCH   2  10
ENDBRANCH   1   4
BRANCH   1  20
ATOM     20  C   UNL     1       1.022   5.118   1.533  0.00  0.00    +0.234 C 
ATOM     21  O   UNL     1       1.879   5.663   0.871  0.00  0.00    -0.274 OA
ATOM     22  N   UNL     1       0.946   3.772   1.563  0.00  0.00    -0.304 N 
ATOM     23  H   UNL     1       0.219   3.277   2.223  0.00  0.00    +0.149 HD
BRANCH  22  24
ATOM     24  C   UNL     1       1.833   2.970   0.717  0.00  0.00    +0.136 C 
ATOM     25  C   UNL     1       1.216   2.827  -0.676  0.00  0.00    +0.036 C 
BRANCH  24  26
ATOM     26  C   UNL     1       2.012   1.605   1.329  0.00  0.00    +0.126 A 
ATOM     27  C   UNL     1       3.167   0.926   1.366  0.00  0.00    +0.055 A 
ATOM     28  C   UNL     1       2.875  -0.340   2.048  0.00  0.00    +0.020 A 
ATOM     29  C   UNL     1       3.634  -1.457   2.396  0.00  0.00    +0.011 A 
ATOM     30  C   UNL     1       3.041  -2.503   3.048  0.00  0.00    +0.001 A 
ATOM     31  C   UNL     1       1.691  -2.458   3.365  0.00  0.00    +0.004 A 
ATOM     32  C   UNL     1       0.925  -1.362   3.029  0.00  0.00    +0.047 A 
ATOM     33  C   UNL     1       1.508  -0.289   2.366  0.00  0.00    +0.135 A 
ATOM     34  O   UNL     1       1.036   0.891   1.917  0.00  0.00    -0.458 OA
ENDBRANCH  24  26
ENDBRANCH  22  24
ENDBRANCH   1  20
BRANCH   1  35
ATOM     35  C   UNL     1      -1.208   6.202   1.477  0.00  0.00    +0.012 C 
ATOM     36  C   UNL     1      -1.885   4.870   1.149  0.00  0.00    +0.009 C 
ATOM     37  C   UNL     1      -2.179   7.090   2.258  0.00  0.00    +0.009 C 
ENDBRANCH   1  35
TORSDOF 10
