REMARK  Name = ZINC43209264
REMARK  10 active torsions:
REMARK  status: ('A' for Active; 'I' for Inactive)
REMARK    1  A    between atoms: C_1  and  O_2
REMARK    2  A    between atoms: O_2  and  C_3
REMARK    3  A    between atoms: C_8  and  C_9
REMARK    4  A    between atoms: N_17  and  C_20
REMARK    5  A    between atoms: N_27  and  C_28
REMARK    6  A    between atoms: C_28  and  C_29
REMARK    7  A    between atoms: C_29  and  C_30
REMARK    8  A    between atoms: C_30  and  C_31
REMARK    9  A    between atoms: C_31  and  C_32
REMARK   10  A    between atoms: C_32  and  C_33
REMARK                            x       y       z     vdW  Elec       q    Type
REMARK                         _______ _______ _______ _____ _____    ______ ____
ROOT
ATOM      1  C   UNL     1       0.051  -2.828   0.006  0.00  0.00    +0.133 C 
ATOM      2  C   UNL     1      -1.445  -2.978   0.244  0.00  0.00    +0.139 C 
ATOM      3  C   UNL     1      -1.396  -4.255   1.165  0.00  0.00    +0.242 C 
ATOM      4  C   UNL     1      -2.705  -4.211   1.790  0.00  0.00    +0.258 C 
ATOM      5  O   UNL     1      -3.392  -5.153   2.124  0.00  0.00    -0.272 OA
ATOM      6  N   UNL     1      -3.000  -2.880   1.921  0.00  0.00    -0.208 N 
ATOM      7  C   UNL     1      -2.161  -2.067   1.192  0.00  0.00    +0.234 C 
ATOM      8  O   UNL     1      -2.022  -0.867   1.295  0.00  0.00    -0.274 OA
ATOM      9  O   UNL     1      -0.597  -5.112   0.457  0.00  0.00    -0.283 OA
ATOM     10  N   UNL     1       0.561  -4.234   0.047  0.00  0.00    -0.179 NA
ENDROOT
BRANCH   1  16
ATOM     11  C   UNL     1       0.626  -0.618   1.042  0.00  0.00    +0.125 A 
ATOM     12  C   UNL     1       1.202   0.139   2.051  0.00  0.00    +0.047 A 
ATOM     13  C   UNL     1       1.836  -0.488   3.107  0.00  0.00    +0.019 A 
ATOM     14  C   UNL     1       1.896  -1.869   3.158  0.00  0.00    +0.018 A 
ATOM     15  C   UNL     1       1.322  -2.626   2.152  0.00  0.00    +0.024 A 
ATOM     16  C   UNL     1       0.682  -2.003   1.097  0.00  0.00    +0.015 A 
ATOM     17 BR   UNL     1       2.764  -2.724   4.604  0.00  0.00    -0.050 Br
BRANCH  11  19
ATOM     18  C   UNL     1      -0.017   1.425   0.010  0.00  0.00    +0.277 C 
ATOM     19  O   UNL     1       0.002  -0.004   0.002  0.00  0.00    -0.495 OA
ENDBRANCH  11  19
ENDBRANCH   1  16
BRANCH   6  20
ATOM     20  C   UNL     1      -4.055  -2.392   2.705  0.00  0.00    +0.044 A 
ATOM     21  C   UNL     1      -4.292  -1.027   2.781  0.00  0.00    +0.024 A 
ATOM     22  C   UNL     1      -5.332  -0.550   3.555  0.00  0.00    +0.002 A 
ATOM     23  C   UNL     1      -6.136  -1.431   4.254  0.00  0.00    +0.000 A 
ATOM     24  C   UNL     1      -5.902  -2.792   4.181  0.00  0.00    +0.002 A 
ATOM     25  C   UNL     1      -4.868  -3.275   3.404  0.00  0.00    +0.024 A 
ENDBRANCH   6  20
BRANCH  10  26
ATOM     26  C   UNL     1       1.087  -4.642  -1.263  0.00  0.00    +0.115 C 
BRANCH  26  27
ATOM     27  C   UNL     1       1.711  -6.035  -1.151  0.00  0.00    +0.018 C 
BRANCH  27  28
ATOM     28  C   UNL     1       2.258  -6.460  -2.514  0.00  0.00    +0.002 C 
BRANCH  28  29
ATOM     29  C   UNL     1       2.882  -7.852  -2.402  0.00  0.00    +0.009 C 
BRANCH  29  30
ATOM     30  C   UNL     1       3.430  -8.277  -3.766  0.00  0.00    +0.095 C 
BRANCH  30  31
ATOM     31  C   UNL     1       4.044  -9.649  -3.656  0.00  0.00    +0.210 C 
ATOM     32  O   UNL     1       4.044 -10.229  -2.591  0.00  0.00    -0.276 OA
ATOM     33  N   UNL     1       4.594 -10.230  -4.740  0.00  0.00    -0.329 N 
ATOM     34  H   UNL     1       4.594  -9.766  -5.592  0.00  0.00    +0.145 HD
ATOM     35  H   UNL     1       4.989 -11.113  -4.669  0.00  0.00    +0.145 HD
ENDBRANCH  30  31
ENDBRANCH  29  30
ENDBRANCH  28  29
ENDBRANCH  27  28
ENDBRANCH  26  27
ENDBRANCH  10  26
TORSDOF 9
