REMARK  Name = ZINC12790431
REMARK  6 active torsions:
REMARK  status: ('A' for Active; 'I' for Inactive)
REMARK    1  A    between atoms: N_10  and  C_13
REMARK    2  A    between atoms: C_13  and  C_14
REMARK    3  A    between atoms: C_14  and  C_15
REMARK    4  A    between atoms: N_17  and  C_18
REMARK    5  A    between atoms: C_18  and  C_19
REMARK    6  A    between atoms: C_19  and  N_25
REMARK                            x       y       z     vdW  Elec       q    Type
REMARK                         _______ _______ _______ _____ _____    ______ ____
ROOT
ATOM      1  C   UNL     1      -4.885   5.615   0.714  0.00  0.00    +0.215 C 
ATOM      2  O   UNL     1      -4.811   4.643  -0.006  0.00  0.00    -0.276 OA
ATOM      3  N   UNL     1      -5.005   5.459   2.048  0.00  0.00    -0.317 N 
ATOM      4  H   UNL     1      -5.071   6.341   2.701  0.00  0.00    +0.149 HD
ENDROOT
BRANCH   1   5
ATOM      5  C   UNL     1      -4.843   6.999   0.119  0.00  0.00    +0.119 C 
BRANCH   5   6
ATOM      6  C   UNL     1      -4.705   6.896  -1.401  0.00  0.00    +0.157 C 
BRANCH   6  16
ATOM      7  C   UNL     1      -3.399  12.747  -3.834  0.00  0.00    +0.001 A 
ATOM      8  C   UNL     1      -2.213  12.143  -3.454  0.00  0.00    +0.001 A 
ATOM      9  C   UNL     1      -2.215  10.876  -2.898  0.00  0.00    +0.014 A 
ATOM     10  C   UNL     1      -3.418  10.207  -2.721  0.00  0.00    +0.053 A 
ATOM     11  C   UNL     1      -4.626  10.822  -3.108  0.00  0.00    +0.055 A 
ATOM     12  C   UNL     1      -4.606  12.093  -3.664  0.00  0.00    +0.014 A 
ATOM     13  C   UNL     1      -5.891  10.082  -2.906  0.00  0.00    +0.295 A 
ATOM     14  O   UNL     1      -6.951  10.583  -3.228  0.00  0.00    -0.264 OA
ATOM     15  N   UNL     1      -5.860   8.850  -2.363  0.00  0.00    -0.125 NA
ATOM     16  N   UNL     1      -4.664   8.241  -1.980  0.00  0.00    -0.225 N 
ATOM     17  C   UNL     1      -3.472   8.851  -2.132  0.00  0.00    +0.275 A 
ATOM     18  O   UNL     1      -2.449   8.292  -1.788  0.00  0.00    -0.266 OA
ENDBRANCH   6  16
ENDBRANCH   5   6
ENDBRANCH   1   5
BRANCH   3  19
ATOM     19  C   UNL     1      -5.045   4.114   2.626  0.00  0.00    +0.092 C 
BRANCH  19  20
ATOM     20  C   UNL     1      -5.277   4.214   4.135  0.00  0.00    -0.050 C 
ATOM     21  C   UNL     1      -5.186   2.821   4.760  0.00  0.00    -0.010 C 
ATOM     22  C   UNL     1      -6.250   1.913   4.140  0.00  0.00    -0.001 C 
ATOM     23  C   UNL     1      -7.638   2.500   4.404  0.00  0.00    -0.000 C 
ATOM     24  C   UNL     1      -7.729   3.894   3.780  0.00  0.00    -0.001 C 
ATOM     25  C   UNL     1      -6.665   4.802   4.400  0.00  0.00    -0.010 C 
BRANCH  20  26
ATOM     26  N   UNL     1      -4.255   5.086   4.731  0.00  0.00    +0.384 N 
ATOM     27  C   UNL     1      -2.905   4.590   4.436  0.00  0.00    -0.078 C 
ATOM     28  C   UNL     1      -1.869   5.595   4.944  0.00  0.00    -0.019 C 
ATOM     29  C   UNL     1      -2.045   5.784   6.453  0.00  0.00    -0.004 C 
ATOM     30  C   UNL     1      -3.475   6.255   6.737  0.00  0.00    -0.019 C 
ATOM     31  C   UNL     1      -4.464   5.230   6.177  0.00  0.00    -0.078 C 
ATOM     32  H   UNL     1      -4.353   6.083   4.277  0.00  0.00    -0.081 HD
ENDBRANCH  20  26
ENDBRANCH  19  20
ENDBRANCH   3  19
TORSDOF 6
