REMARK  Name = ZINC35313778
REMARK  11 active torsions:
REMARK  status: ('A' for Active; 'I' for Inactive)
REMARK    1  A    between atoms: C_1  and  C_2
REMARK    2  A    between atoms: C_2  and  C_3
REMARK    3  A    between atoms: C_2  and  C_4
REMARK    4  A    between atoms: C_2  and  N_5
REMARK    5  A    between atoms: C_6  and  C_8
REMARK    6  A    between atoms: C_8  and  C_10
REMARK    7  A    between atoms: C_8  and  N_16
REMARK    8  A    between atoms: N_16  and  C_17
REMARK    9  A    between atoms: C_22  and  O_23
REMARK   10  A    between atoms: O_23  and  C_24
REMARK   11  A    between atoms: C_25  and  C_27
REMARK                            x       y       z     vdW  Elec       q    Type
REMARK                         _______ _______ _______ _____ _____    ______ ____
ROOT
ATOM      1  N   UNL     1       4.106  -0.232  -2.681  0.00  0.00    -0.250 N 
ATOM      2  C   UNL     1       5.006  -1.156  -3.073  0.00  0.00    +0.225 C 
ATOM      3  O   UNL     1       4.668  -2.313  -3.208  0.00  0.00    -0.275 OA
ENDROOT
BRANCH   1   4
ATOM      4  C   UNL     1       4.497   1.105  -2.526  0.00  0.00    +0.079 A 
ATOM      5  C   UNL     1       4.835   1.589  -1.271  0.00  0.00    +0.027 A 
ATOM      6  C   UNL     1       5.220   2.908  -1.120  0.00  0.00    +0.002 A 
ATOM      7  C   UNL     1       5.270   3.747  -2.218  0.00  0.00    +0.004 A 
ATOM      8  C   UNL     1       4.935   3.271  -3.472  0.00  0.00    +0.047 A 
ATOM      9  C   UNL     1       4.553   1.949  -3.632  0.00  0.00    +0.141 A 
BRANCH   9  10
ATOM     10  O   UNL     1       4.229   1.478  -4.866  0.00  0.00    -0.493 OA
ATOM     11  C   UNL     1       4.191   2.427  -5.934  0.00  0.00    +0.277 C 
ENDBRANCH   9  10
ENDBRANCH   1   4
BRANCH   2  12
ATOM     12  C   UNL     1       6.432  -0.752  -3.344  0.00  0.00    +0.094 C 
ATOM     13  C   UNL     1       7.246  -1.976  -3.768  0.00  0.00    +0.100 C 
ATOM     14  C   UNL     1       8.721  -1.796  -3.498  0.00  0.00    +0.190 C 
ATOM     15  O   UNL     1       9.640  -2.362  -4.053  0.00  0.00    -0.285 OA
ATOM     16  S   UNL     1       8.831  -0.654  -2.273  0.00  0.00    -0.087 S 
ATOM     17  C   UNL     1       7.070  -0.184  -2.054  0.00  0.00    +0.090 C 
ENDBRANCH   2  12
BRANCH   1  18
ATOM     18  C   UNL     1       2.720  -0.625  -2.418  0.00  0.00    +0.215 C 
BRANCH  18  19
ATOM     19  C   UNL     1       2.680  -1.569  -1.244  0.00  0.00    +0.071 A 
ATOM     20  C   UNL     1       1.532  -1.661  -0.480  0.00  0.00    +0.026 A 
ATOM     21  C   UNL     1       1.505  -2.533   0.598  0.00  0.00    +0.003 A 
ATOM     22  C   UNL     1       2.640  -3.282   0.868  0.00  0.00    +0.020 A 
ATOM     23  C   UNL     1       3.752  -3.137   0.060  0.00  0.00    +0.111 A 
ATOM     24  N   UNL     1       3.739  -2.301  -0.960  0.00  0.00    -0.257 NA
ENDBRANCH  18  19
BRANCH  18  26
ATOM     25  N   UNL     1       0.882  -1.762  -3.622  0.00  0.00    -0.309 N 
ATOM     26  C   UNL     1       2.152  -1.311  -3.634  0.00  0.00    +0.240 C 
ATOM     27  O   UNL     1       2.839  -1.457  -4.623  0.00  0.00    -0.273 OA
ATOM     28  H   UNL     1       0.334  -1.645  -2.830  0.00  0.00    +0.149 HD
BRANCH  25  30
ATOM     29  C   UNL     1       1.162  -3.674  -5.121  0.00  0.00    +0.031 C 
ATOM     30  C   UNL     1       0.331  -2.429  -4.803  0.00  0.00    +0.026 C 
ATOM     31  C   UNL     1       0.371  -1.471  -5.995  0.00  0.00    +0.031 C 
ATOM     32  C   UNL     1      -1.117  -2.840  -4.528  0.00  0.00    +0.031 C 
ENDBRANCH  25  30
ENDBRANCH  18  26
ENDBRANCH   1  18
TORSDOF 7
