REMARK  Name = ZINC66611981
REMARK  7 active torsions:
REMARK  status: ('A' for Active; 'I' for Inactive)
REMARK    1  A    between atoms: C_1  and  C_2
REMARK    2  A    between atoms: C_2  and  C_4
REMARK    3  A    between atoms: C_2  and  N_10
REMARK    4  A    between atoms: C_11  and  C_13
REMARK    5  A    between atoms: C_13  and  N_14
REMARK    6  A    between atoms: N_17  and  C_18
REMARK    7  A    between atoms: C_18  and  C_19
REMARK                            x       y       z     vdW  Elec       q    Type
REMARK                         _______ _______ _______ _____ _____    ______ ____
ROOT
ATOM      1  N   UNL     1      -3.929  -1.240   2.572  0.00  0.00    -0.291 N 
ATOM      2  C   UNL     1      -5.177  -1.680   2.827  0.00  0.00    +0.300 C 
ATOM      3  O   UNL     1      -5.899  -2.024   1.911  0.00  0.00    -0.253 OA
ATOM      4  N   UNL     1      -5.625  -1.738   4.097  0.00  0.00    -0.295 N 
ATOM      5  H   UNL     1      -3.353  -0.966   3.302  0.00  0.00    +0.151 HD
ATOM      6  H   UNL     1      -5.049  -1.464   4.827  0.00  0.00    +0.151 HD
ENDROOT
BRANCH   1   7
ATOM      7  C   UNL     1      -3.442  -1.177   1.191  0.00  0.00    +0.201 C 
BRANCH   7   9
ATOM      8  N   UNL     1      -1.372  -0.511   0.012  0.00  0.00    -0.307 N 
ATOM      9  C   UNL     1      -2.029  -0.655   1.181  0.00  0.00    +0.231 C 
ATOM     10  O   UNL     1      -1.481  -0.365   2.224  0.00  0.00    -0.274 OA
ATOM     11  H   UNL     1      -1.810  -0.743  -0.822  0.00  0.00    +0.149 HD
BRANCH   8  13
ATOM     12  C   UNL     1      -0.019   1.526   0.010  0.00  0.00    +0.033 C 
ATOM     13  C   UNL     1       0.002  -0.004   0.002  0.00  0.00    +0.107 C 
BRANCH  13  14
ATOM     14  C   UNL     1       0.707  -0.490  -1.238  0.00  0.00    +0.011 A 
ATOM     15  C   UNL     1       1.980  -0.934  -1.377  0.00  0.00    +0.014 A 
ATOM     16  C   UNL     1       2.418  -1.335  -2.626  0.00  0.00    +0.028 A 
ATOM     17  C   UNL     1       1.560  -1.271  -3.674  0.00  0.00    +0.078 A 
ATOM     18  S   UNL     1       0.081  -0.638  -2.903  0.00  0.00    -0.080 S 
ATOM     19 CL   UNL     1       1.830  -1.701  -5.335  0.00  0.00    -0.076 Cl
ENDBRANCH  13  14
ENDBRANCH   8  13
ENDBRANCH   7   9
ENDBRANCH   1   7
BRANCH   4  20
ATOM     20  C   UNL     1      -6.982  -2.217   4.374  0.00  0.00    +0.141 C 
BRANCH  20  21
ATOM     21  C   UNL     1      -7.232  -2.184   5.859  0.00  0.00    -0.030 A 
ATOM     22  C   UNL     1      -6.928  -3.287   6.636  0.00  0.00    +0.006 A 
ATOM     23  C   UNL     1      -7.158  -3.257   7.998  0.00  0.00    +0.020 A 
ATOM     24  C   UNL     1      -7.692  -2.124   8.585  0.00  0.00    +0.041 A 
ATOM     25  C   UNL     1      -7.996  -1.021   7.808  0.00  0.00    +0.020 A 
ATOM     26  C   UNL     1      -7.761  -1.049   6.446  0.00  0.00    +0.006 A 
ATOM     27 CL   UNL     1      -7.981  -2.087  10.297  0.00  0.00    -0.084 Cl
ENDBRANCH  20  21
ENDBRANCH   4  20
TORSDOF 6
