REMARK  Name = ZINC27751321
REMARK  10 active torsions:
REMARK  status: ('A' for Active; 'I' for Inactive)
REMARK    1  A    between atoms: C_1  and  C_2
REMARK    2  A    between atoms: C_5  and  N_9
REMARK    3  A    between atoms: C_6  and  C_8
REMARK    4  A    between atoms: C_10  and  C_12
REMARK    5  A    between atoms: C_13  and  C_31
REMARK    6  A    between atoms: C_18  and  C_20
REMARK    7  A    between atoms: C_22  and  O_29
REMARK    8  A    between atoms: C_23  and  O_27
REMARK    9  A    between atoms: O_27  and  C_28
REMARK   10  A    between atoms: O_29  and  C_30
REMARK                            x       y       z     vdW  Elec       q    Type
REMARK                         _______ _______ _______ _____ _____    ______ ____
ROOT
ATOM      1  C   UNL     1      -2.633   4.126   7.070  0.00  0.00    +0.056 C 
ATOM      2  C   UNL     1      -2.051   4.515   8.224  0.00  0.00    +0.019 C 
ATOM      3  N   UNL     1      -2.779   5.113   9.214  0.00  0.00    -0.273 N 
ATOM      4  C   UNL     1      -4.094   5.346   9.131  0.00  0.00    +0.304 C 
ATOM      5  O   UNL     1      -4.657   5.880  10.067  0.00  0.00    -0.252 OA
ATOM      6  N   UNL     1      -4.815   5.009   8.043  0.00  0.00    -0.288 N 
ATOM      7  C   UNL     1      -4.122   4.363   6.916  0.00  0.00    +0.143 C 
ATOM      8  C   UNL     1      -0.574   4.292   8.421  0.00  0.00    +0.061 C 
ATOM      9  H   UNL     1      -2.284   5.431  10.144  0.00  0.00    +0.156 HD
ATOM     10  H   UNL     1      -5.896   5.205   7.984  0.00  0.00    +0.151 HD
ENDROOT
BRANCH   7  11
ATOM     11  C   UNL     1      -4.781   3.031   6.667  0.00  0.00    -0.005 A 
ATOM     12  C   UNL     1      -5.225   2.271   7.733  0.00  0.00    +0.056 A 
ATOM     13  C   UNL     1      -5.836   1.049   7.505  0.00  0.00    +0.162 A 
ATOM     14  C   UNL     1      -5.991   0.583   6.203  0.00  0.00    +0.163 A 
ATOM     15  C   UNL     1      -5.539   1.347   5.139  0.00  0.00    +0.065 A 
ATOM     16  C   UNL     1      -4.935   2.569   5.372  0.00  0.00    +0.027 A 
ATOM     17 BR   UNL     1      -4.319   3.610   3.919  0.00  0.00    -0.050 Br
BRANCH  14  18
ATOM     18  O   UNL     1      -6.586  -0.619   5.975  0.00  0.00    -0.491 OA
ATOM     19  C   UNL     1      -6.712  -1.032   4.613  0.00  0.00    +0.277 C 
ENDBRANCH  14  18
BRANCH  13  20
ATOM     20  O   UNL     1      -6.278   0.302   8.553  0.00  0.00    -0.491 OA
ATOM     21  C   UNL     1      -6.085   0.843   9.861  0.00  0.00    +0.277 C 
ENDBRANCH  13  20
ENDBRANCH   7  11
BRANCH   1  23
ATOM     22  N   UNL     1      -1.199   4.269   5.158  0.00  0.00    -0.281 N 
ATOM     23  C   UNL     1      -1.879   3.511   6.041  0.00  0.00    +0.248 C 
ATOM     24  O   UNL     1      -1.845   2.297   5.954  0.00  0.00    -0.270 OA
ATOM     25  H   UNL     1      -1.220   5.365   5.244  0.00  0.00    +0.155 HD
BRANCH  22  30
ATOM     26  C   UNL     1       1.769   1.808   0.998  0.00  0.00    +0.044 C 
ATOM     27  C   UNL     1       0.980   2.462   2.103  0.00  0.00    -0.050 A 
ATOM     28  C   UNL     1       0.625   1.731   3.223  0.00  0.00    +0.005 A 
ATOM     29  C   UNL     1      -0.098   2.327   4.237  0.00  0.00    +0.024 A 
ATOM     30  C   UNL     1      -0.468   3.662   4.132  0.00  0.00    +0.037 A 
ATOM     31  C   UNL     1      -0.109   4.393   3.007  0.00  0.00    -0.029 A 
ATOM     32  C   UNL     1       0.618   3.792   1.998  0.00  0.00    +0.008 A 
ATOM     33  C   UNL     1      -0.508   5.841   2.889  0.00  0.00    +0.045 C 
ENDBRANCH  22  30
ENDBRANCH   1  23
TORSDOF 5
