REMARK  Name = ZINC21083279
REMARK  10 active torsions:
REMARK  status: ('A' for Active; 'I' for Inactive)
REMARK    1  A    between atoms: C_1  and  C_2
REMARK    2  A    between atoms: C_4  and  O_12
REMARK    3  A    between atoms: C_5  and  C_9
REMARK    4  A    between atoms: C_9  and  C_10
REMARK    5  A    between atoms: C_9  and  C_11
REMARK    6  A    between atoms: O_12  and  C_13
REMARK    7  A    between atoms: C_13  and  C_14
REMARK    8  A    between atoms: N_16  and  C_17
REMARK    9  A    between atoms: C_22  and  C_23
REMARK   10  A    between atoms: C_23  and  C_25
REMARK                            x       y       z     vdW  Elec       q    Type
REMARK                         _______ _______ _______ _____ _____    ______ ____
ROOT
ATOM      1  C   UNL     1      -3.991  -1.194   3.791  0.00  0.00    +0.255 C 
ATOM      2  O   UNL     1      -4.439  -0.731   2.763  0.00  0.00    -0.272 OA
ATOM      3  N   UNL     1      -4.769  -1.963   4.578  0.00  0.00    -0.282 N 
ATOM      4  H   UNL     1      -4.338  -2.457   5.462  0.00  0.00    +0.155 HD
ENDROOT
BRANCH   3   5
ATOM      5  C   UNL     1      -6.117  -2.133   4.273  0.00  0.00    +0.048 A 
ATOM      6  C   UNL     1      -6.790  -1.170   3.538  0.00  0.00    +0.073 A 
ATOM      7  C   UNL     1      -8.132  -1.337   3.234  0.00  0.00    +0.168 A 
ATOM      8  C   UNL     1      -8.815  -2.478   3.667  0.00  0.00    +0.167 A 
ATOM      9  C   UNL     1      -8.158  -3.442   4.400  0.00  0.00    +0.062 A 
ATOM     10  C   UNL     1      -6.799  -3.284   4.706  0.00  0.00    +0.042 A 
ATOM     11  O   UNL     1     -10.110  -2.396   3.238  0.00  0.00    -0.453 OA
ATOM     12  C   UNL     1     -10.315  -1.013   2.896  0.00  0.00    +0.466 C 
ATOM     13  O   UNL     1      -9.000  -0.549   2.538  0.00  0.00    -0.453 OA
BRANCH  10  14
ATOM     14  C   UNL     1      -6.095  -4.311   5.478  0.00  0.00    +0.162 C 
ATOM     15  O   UNL     1      -4.944  -4.130   5.819  0.00  0.00    -0.292 OA
ATOM     16  C   UNL     1      -6.799  -5.590   5.849  0.00  0.00    +0.091 C 
ENDBRANCH  10  14
ENDBRANCH   3   5
BRANCH   1  17
ATOM     17  C   UNL     1      -2.566  -0.908   4.188  0.00  0.00    +0.324 C 
BRANCH  17  18
ATOM     18  O   UNL     1      -1.953  -0.077   3.199  0.00  0.00    -0.482 OA
BRANCH  18  22
ATOM     19  C   UNL     1       2.054  -0.290   5.977  0.00  0.00    +0.045 C 
ATOM     20  C   UNL     1       1.328   0.192   4.748  0.00  0.00    -0.029 A 
ATOM     21  C   UNL     1       0.011  -0.168   4.538  0.00  0.00    +0.050 A 
ATOM     22  C   UNL     1      -0.657   0.276   3.407  0.00  0.00    +0.125 A 
ATOM     23  C   UNL     1      -0.001   1.081   2.487  0.00  0.00    -0.002 A 
ATOM     24  C   UNL     1       1.317   1.435   2.697  0.00  0.00    +0.027 A 
ATOM     25  C   UNL     1       1.981   0.995   3.829  0.00  0.00    +0.044 A 
ATOM     26 CL   UNL     1       3.636   1.446   4.094  0.00  0.00    -0.083 Cl
BRANCH  23  27
ATOM     27  C   UNL     1      -0.725   1.565   1.257  0.00  0.00    +0.016 C 
ATOM     28  C   UNL     1       0.002   1.062   0.008  0.00  0.00    +0.012 C 
ATOM     29  C   UNL     1      -0.753   3.095   1.250  0.00  0.00    +0.012 C 
ENDBRANCH  23  27
ENDBRANCH  18  22
ENDBRANCH  17  18
ENDBRANCH   1  17
TORSDOF 6
