REMARK  Name = ZINC00529574
REMARK  7 active torsions:
REMARK  status: ('A' for Active; 'I' for Inactive)
REMARK    1  A    between atoms: C_1  and  C_2
REMARK    2  A    between atoms: C_5  and  C_8
REMARK    3  A    between atoms: C_8  and  S_9
REMARK    4  A    between atoms: S_9  and  C_10
REMARK    5  A    between atoms: C_13  and  C_18
REMARK    6  A    between atoms: N_14  and  C_15
REMARK    7  A    between atoms: C_15  and  C_16
REMARK                            x       y       z     vdW  Elec       q    Type
REMARK                         _______ _______ _______ _____ _____    ______ ____
ROOT
ATOM      1  C   UNL     1      -1.701   0.927   1.894  0.00  0.00    +0.193 A 
ATOM      2  N   UNL     1      -2.026   1.694   2.910  0.00  0.00    -0.122 NA
ATOM      3  N   UNL     1      -1.302   2.756   2.913  0.00  0.00    -0.125 NA
ATOM      4  C   UNL     1      -0.463   2.729   1.901  0.00  0.00    +0.201 A 
ATOM      5  N   UNL     1      -0.698   1.558   1.213  0.00  0.00    -0.296 N 
ENDROOT
BRANCH   4   6
ATOM      6  C   UNL     1       0.535   3.756   1.563  0.00  0.00    +0.172 A 
ATOM      7  C   UNL     1       0.574   5.026   2.055  0.00  0.00    +0.053 A 
ATOM      8  C   UNL     1       1.689   5.654   1.468  0.00  0.00    +0.042 A 
ATOM      9  C   UNL     1       2.266   4.752   0.650  0.00  0.00    +0.196 A 
ATOM     10  O   UNL     1       1.567   3.606   0.710  0.00  0.00    -0.460 OA
ENDBRANCH   4   6
BRANCH   1  11
ATOM     11  S   UNL     1      -2.424  -0.627   1.486  0.00  0.00    -0.081 S 
BRANCH  11  12
ATOM     12  C   UNL     1      -3.639  -0.769   2.820  0.00  0.00    +0.112 C 
BRANCH  12  17
ATOM     13  C   UNL     1      -6.556  -5.725   2.250  0.00  0.00    +0.044 C 
ATOM     14  C   UNL     1      -5.796  -4.432   2.399  0.00  0.00    -0.050 A 
ATOM     15  C   UNL     1      -4.634  -4.396   3.147  0.00  0.00    +0.003 A 
ATOM     16  C   UNL     1      -3.936  -3.211   3.284  0.00  0.00    +0.005 A 
ATOM     17  C   UNL     1      -4.400  -2.062   2.671  0.00  0.00    -0.037 A 
ATOM     18  C   UNL     1      -5.564  -2.096   1.927  0.00  0.00    +0.005 A 
ATOM     19  C   UNL     1      -6.260  -3.283   1.787  0.00  0.00    +0.003 A 
ENDBRANCH  12  17
ENDBRANCH  11  12
ENDBRANCH   1  11
BRANCH   5  20
ATOM     20  C   UNL     1      -0.013   1.086   0.008  0.00  0.00    +0.152 C 
BRANCH  20  21
ATOM     21  C   UNL     1      -0.742   1.585  -1.213  0.00  0.00    -0.013 C 
ATOM     22  C   UNL     1      -1.236   0.732  -2.075  0.00  0.00    +0.005 C 
ENDBRANCH  20  21
ENDBRANCH   5  20
TORSDOF 6
