REMARK  Name = ZINC11592189
REMARK  7 active torsions:
REMARK  status: ('A' for Active; 'I' for Inactive)
REMARK    1  A    between atoms: C_3  and  C_6
REMARK    2  A    between atoms: C_9  and  S_12
REMARK    3  A    between atoms: N_10  and  N_11
REMARK    4  A    between atoms: S_12  and  C_13
REMARK    5  A    between atoms: C_13  and  C_14
REMARK    6  A    between atoms: N_16  and  C_17
REMARK    7  A    between atoms: C_20  and  N_24
REMARK                            x       y       z     vdW  Elec       q    Type
REMARK                         _______ _______ _______ _____ _____    ______ ____
ROOT
ATOM      1  C   UNL     1       2.736   9.581   0.068  0.00  0.00    +0.173 C 
ENDROOT
BRANCH   1   2
ATOM      2  C   UNL     1       3.736  10.697   0.229  0.00  0.00    +0.228 C 
ATOM      3  O   UNL     1       4.883  10.444   0.533  0.00  0.00    -0.275 OA
ATOM      4  N   UNL     1       3.356  11.976   0.035  0.00  0.00    -0.284 N 
ATOM      5  H   UNL     1       2.457  12.173  -0.271  0.00  0.00    +0.155 HD
BRANCH   4   6
ATOM      6  C   UNL     1       4.259  13.018   0.275  0.00  0.00    +0.048 A 
ATOM      7  C   UNL     1       5.610  12.844   0.008  0.00  0.00    +0.026 A 
ATOM      8  C   UNL     1       6.499  13.874   0.246  0.00  0.00    +0.034 A 
ATOM      9  C   UNL     1       6.044  15.079   0.750  0.00  0.00    +0.127 A 
ATOM     10  C   UNL     1       4.699  15.256   1.017  0.00  0.00    +0.049 A 
ATOM     11  C   UNL     1       3.804  14.231   0.776  0.00  0.00    +0.041 A 
ATOM     12 BR   UNL     1       1.964  14.477   1.135  0.00  0.00    -0.048 Br
BRANCH   9  13
ATOM     13  N   UNL     1       6.999  16.181   1.003  0.00  0.00    +0.056 N 
ATOM     14  O   UNL     1       8.184  16.026   0.767  0.00  0.00    -0.126 OA
ATOM     15  O   UNL     1       6.600  17.243   1.447  0.00  0.00    -0.126 OA
ENDBRANCH   9  13
ENDBRANCH   4   6
ENDBRANCH   1   2
BRANCH   1  16
ATOM     16  S   UNL     1       3.545   7.995   0.393  0.00  0.00    -0.075 S 
BRANCH  16  20
ATOM     17  C   UNL     1       0.929   5.121  -0.032  0.00  0.00    +0.188 A 
ATOM     18  N   UNL     1       0.223   6.198  -0.297  0.00  0.00    -0.126 NA
ATOM     19  N   UNL     1       0.962   7.244  -0.190  0.00  0.00    -0.121 NA
ATOM     20  C   UNL     1       2.186   6.902   0.141  0.00  0.00    +0.209 A 
ATOM     21  N   UNL     1       2.210   5.539   0.254  0.00  0.00    -0.223 N 
BRANCH  17  24
ATOM     22  C   UNL     1      -1.058   1.905  -0.062  0.00  0.00    +0.008 A 
ATOM     23  C   UNL     1      -0.847   3.266  -0.043  0.00  0.00    +0.019 A 
ATOM     24  C   UNL     1       0.444   3.731  -0.044  0.00  0.00    +0.058 A 
ATOM     25  S   UNL     1       1.382   2.212  -0.065  0.00  0.00    -0.093 S 
ATOM     26  C   UNL     1       0.012   1.069  -0.071  0.00  0.00    +0.046 A 
ENDBRANCH  17  24
BRANCH  21  27
ATOM     27  N   UNL     1       3.280   4.756   0.580  0.00  0.00    -0.295 N 
ATOM     28  H   UNL     1       3.790   4.478  -0.245  0.00  0.00    +0.163 HD
ATOM     29  H   UNL     1       3.885   5.226   1.238  0.00  0.00    +0.163 HD
ENDBRANCH  21  27
ENDBRANCH  16  20
ENDBRANCH   1  16
TORSDOF 7
