REMARK  Name = ZINC36810818
REMARK  16 active torsions:
REMARK  status: ('A' for Active; 'I' for Inactive)
REMARK    1  A    between atoms: C_1  and  C_2
REMARK    2  A    between atoms: C_2  and  C_3
REMARK    3  A    between atoms: C_2  and  C_4
REMARK    4  A    between atoms: C_4  and  N_5
REMARK    5  A    between atoms: C_9  and  C_11
REMARK    6  A    between atoms: C_11  and  S_12
REMARK    7  A    between atoms: S_12  and  C_13
REMARK    8  A    between atoms: N_23  and  C_24
REMARK    9  A    between atoms: C_24  and  C_25
REMARK   10  A    between atoms: C_25  and  N_26
REMARK   11  A    between atoms: N_26  and  C_27
REMARK   12  A    between atoms: N_26  and  C_30
REMARK   13  A    between atoms: C_27  and  C_28
REMARK   14  A    between atoms: C_27  and  C_29
REMARK   15  A    between atoms: C_30  and  C_31
REMARK   16  A    between atoms: C_30  and  C_32
REMARK                            x       y       z     vdW  Elec       q    Type
REMARK                         _______ _______ _______ _____ _____    ______ ____
ROOT
ATOM      1  C   UNL     1      -5.527  -9.434   0.059  0.00  0.00    +0.173 A 
ATOM      2  N   UNL     1      -4.366 -10.035   0.142  0.00  0.00    -0.223 NA
ATOM      3  C   UNL     1      -4.238 -11.359  -0.078  0.00  0.00    +0.079 A 
ATOM      4  C   UNL     1      -2.999 -12.001   0.011  0.00  0.00    +0.028 A 
ATOM      5  C   UNL     1      -2.915 -13.345  -0.219  0.00  0.00    +0.002 A 
ATOM      6  C   UNL     1      -4.044 -14.086  -0.543  0.00  0.00    +0.001 A 
ATOM      7  C   UNL     1      -5.270 -13.487  -0.638  0.00  0.00    +0.015 A 
ATOM      8  C   UNL     1      -5.385 -12.117  -0.407  0.00  0.00    +0.065 A 
ATOM      9  C   UNL     1      -6.675 -11.421  -0.495  0.00  0.00    +0.262 A 
ATOM     10  O   UNL     1      -7.698 -12.019  -0.774  0.00  0.00    -0.267 OA
ATOM     11  N   UNL     1      -6.685 -10.090  -0.248  0.00  0.00    -0.289 N 
ENDROOT
BRANCH   1  12
ATOM     12  S   UNL     1      -5.599  -7.700   0.363  0.00  0.00    -0.078 S 
BRANCH  12  13
ATOM     13  C   UNL     1      -3.880  -7.246   0.723  0.00  0.00    +0.173 C 
BRANCH  13  18
ATOM     14  N   UNL     1      -1.354  -3.314   1.848  0.00  0.00    -0.299 N 
ATOM     15  C   UNL     1      -2.541  -3.880   1.553  0.00  0.00    +0.306 C 
ATOM     16  O   UNL     1      -3.547  -3.198   1.515  0.00  0.00    -0.252 OA
ATOM     17  N   UNL     1      -2.613  -5.202   1.300  0.00  0.00    -0.240 N 
ATOM     18  C   UNL     1      -3.800  -5.768   1.006  0.00  0.00    +0.231 C 
ATOM     19  O   UNL     1      -4.803  -5.088   0.968  0.00  0.00    -0.274 OA
ATOM     20  H   UNL     1      -0.551  -3.858   1.878  0.00  0.00    +0.150 HD
ATOM     21  H   UNL     1      -1.810  -5.746   1.331  0.00  0.00    +0.159 HD
BRANCH  14  22
ATOM     22  C   UNL     1      -1.276  -1.877   2.122  0.00  0.00    +0.108 C 
BRANCH  22  24
ATOM     23  C   UNL     1       0.277   0.024   2.590  0.00  0.00    +0.009 C 
ATOM     24  C   UNL     1       0.174  -1.494   2.426  0.00  0.00    -0.000 C 
ATOM     25  C   UNL     1       0.622  -2.178   3.720  0.00  0.00    +0.009 C 
ENDBRANCH  22  24
ENDBRANCH  14  22
ENDBRANCH  13  18
ENDBRANCH  12  13
ENDBRANCH   1  12
BRANCH  11  26
ATOM     26  C   UNL     1      -7.946  -9.347  -0.316  0.00  0.00    +0.109 C 
BRANCH  26  27
ATOM     27  C   UNL     1      -8.159  -8.832  -1.741  0.00  0.00    -0.056 C 
BRANCH  27  28
ATOM     28  N   UNL     1      -9.486  -8.212  -1.844  0.00  0.00    +0.384 N 
ATOM     29  H   UNL     1     -10.189  -8.867  -1.537  0.00  0.00    -0.081 HD
BRANCH  28  30
ATOM     30  C   UNL     1      -9.533  -7.012  -0.998  0.00  0.00    -0.074 C 
ATOM     31  C   UNL     1      -8.953  -5.823  -1.767  0.00  0.00    -0.014 C 
ATOM     32  C   UNL     1     -10.984  -6.713  -0.616  0.00  0.00    -0.014 C 
ENDBRANCH  28  30
BRANCH  28  33
ATOM     33  C   UNL     1      -9.744  -7.837  -3.241  0.00  0.00    -0.074 C 
ATOM     34  C   UNL     1      -9.554  -9.059  -4.141  0.00  0.00    -0.014 C 
ATOM     35  C   UNL     1     -11.179  -7.324  -3.375  0.00  0.00    -0.014 C 
ENDBRANCH  28  33
ENDBRANCH  27  28
ENDBRANCH  26  27
ENDBRANCH  11  26
TORSDOF 10
