REMARK  Name = ZINC40231287
REMARK  11 active torsions:
REMARK  status: ('A' for Active; 'I' for Inactive)
REMARK    1  A    between atoms: C_1  and  C_2
REMARK    2  A    between atoms: C_2  and  C_3
REMARK    3  A    between atoms: C_2  and  C_4
REMARK    4  A    between atoms: C_9  and  O_10
REMARK    5  A    between atoms: O_10  and  C_11
REMARK    6  A    between atoms: C_11  and  C_12
REMARK    7  A    between atoms: C_12  and  C_13
REMARK    8  A    between atoms: C_13  and  N_14
REMARK    9  A    between atoms: C_22  and  C_23
REMARK   10  A    between atoms: C_23  and  C_24
REMARK   11  A    between atoms: C_23  and  C_25
REMARK                            x       y       z     vdW  Elec       q    Type
REMARK                         _______ _______ _______ _____ _____    ______ ____
ROOT
ATOM      1  C   UNL     1      -3.935  -3.675   3.577  0.00  0.00    +0.127 C 
ENDROOT
BRANCH   1   2
ATOM      2  N   UNL     1      -5.324  -3.943   3.197  0.00  0.00    -0.327 N 
ATOM      3  C   UNL     1      -6.427  -3.189   3.545  0.00  0.00    +0.069 A 
ATOM      4  C   UNL     1      -6.612  -2.034   4.293  0.00  0.00    +0.028 A 
ATOM      5  C   UNL     1      -7.881  -1.521   4.454  0.00  0.00    +0.002 A 
ATOM      6  C   UNL     1      -8.973  -2.151   3.875  0.00  0.00    +0.002 A 
ATOM      7  C   UNL     1      -8.811  -3.289   3.136  0.00  0.00    +0.030 A 
ATOM      8  C   UNL     1      -7.533  -3.826   2.958  0.00  0.00    +0.089 A 
ATOM      9  N   UNL     1      -7.058  -4.913   2.297  0.00  0.00    -0.232 NA
ATOM     10  C   UNL     1      -5.766  -4.978   2.433  0.00  0.00    +0.113 A 
BRANCH  10  11
ATOM     11  C   UNL     1      -4.887  -6.045   1.833  0.00  0.00    +0.049 C 
ATOM     12  C   UNL     1      -5.315  -7.415   2.362  0.00  0.00    +0.015 C 
ATOM     13  C   UNL     1      -5.024  -6.022   0.309  0.00  0.00    +0.015 C 
ENDBRANCH  10  11
ENDBRANCH   1   2
BRANCH   1  14
ATOM     14  C   UNL     1      -3.282  -2.778   2.523  0.00  0.00    +0.062 C 
BRANCH  14  15
ATOM     15  C   UNL     1      -1.831  -2.498   2.920  0.00  0.00    +0.231 C 
BRANCH  15  16
ATOM     16  O   UNL     1      -1.222  -1.660   1.936  0.00  0.00    -0.492 OA
BRANCH  16  22
ATOM     17  C   UNL     1       0.731  -0.503   1.223  0.00  0.00    -0.003 A 
ATOM     18  C   UNL     1       2.049  -0.148   1.434  0.00  0.00    +0.007 A 
ATOM     19  C   UNL     1       2.719  -0.607   2.554  0.00  0.00    +0.001 A 
ATOM     20  C   UNL     1       2.071  -1.420   3.465  0.00  0.00    +0.004 A 
ATOM     21  C   UNL     1       0.753  -1.778   3.259  0.00  0.00    +0.046 A 
ATOM     22  C   UNL     1       0.077  -1.315   2.138  0.00  0.00    +0.124 A 
BRANCH  17  24
ATOM     23  C   UNL     1      -0.019   1.526   0.010  0.00  0.00    +0.012 C 
ATOM     24  C   UNL     1       0.002  -0.004   0.002  0.00  0.00    +0.016 C 
ATOM     25  C   UNL     1       0.718  -0.497  -1.257  0.00  0.00    +0.012 C 
ENDBRANCH  17  24
ENDBRANCH  16  22
ENDBRANCH  15  16
ENDBRANCH  14  15
ENDBRANCH   1  14
TORSDOF 7
