REMARK  Name = ZINC39709372
REMARK  11 active torsions:
REMARK  status: ('A' for Active; 'I' for Inactive)
REMARK    1  A    between atoms: C_1  and  C_2
REMARK    2  A    between atoms: C_2  and  O_3
REMARK    3  A    between atoms: O_3  and  C_4
REMARK    4  A    between atoms: C_11  and  C_18
REMARK    5  A    between atoms: C_13  and  O_14
REMARK    6  A    between atoms: C_18  and  S_19
REMARK    7  A    between atoms: S_19  and  C_20
REMARK    8  A    between atoms: C_23  and  C_29
REMARK    9  A    between atoms: N_24  and  C_25
REMARK   10  A    between atoms: C_25  and  C_26
REMARK   11  A    between atoms: C_32  and  C_35
REMARK                            x       y       z     vdW  Elec       q    Type
REMARK                         _______ _______ _______ _____ _____    ______ ____
ROOT
ATOM      1  C   UNL     1      -1.660  -1.585  -1.239  0.00  0.00    +0.405 C 
ATOM      2  O   UNL     1      -0.788  -2.311  -1.687  0.00  0.00    -0.226 OA
ATOM      3  N   UNL     1      -2.825  -2.099  -0.871  0.00  0.00    -0.251 N 
ATOM      4  C   UNL     1      -3.001  -3.447  -0.862  0.00  0.00    +0.040 A 
ATOM      5  C   UNL     1      -4.302  -3.982  -0.826  0.00  0.00    +0.024 A 
ATOM      6  C   UNL     1      -4.491  -5.327  -0.816  0.00  0.00    +0.013 A 
ATOM      7  C   UNL     1      -3.382  -6.192  -0.842  0.00  0.00    +0.022 A 
ATOM      8  C   UNL     1      -3.557  -7.591  -0.832  0.00  0.00    -0.020 A 
ATOM      9  C   UNL     1      -2.435  -8.397  -0.859  0.00  0.00    +0.092 A 
ATOM     10  C   UNL     1      -1.173  -7.824  -0.893  0.00  0.00    +0.285 A 
ATOM     11  O   UNL     1      -1.011  -6.496  -0.902  0.00  0.00    -0.425 OA
ATOM     12  C   UNL     1      -2.072  -5.663  -0.877  0.00  0.00    +0.141 A 
ATOM     13  C   UNL     1      -1.891  -4.293  -0.893  0.00  0.00    +0.070 A 
ATOM     14  H   UNL     1      -3.553  -1.513  -0.609  0.00  0.00    +0.158 HD
ENDROOT
BRANCH  10  15
ATOM     15  O   UNL     1      -0.087  -8.621  -0.920  0.00  0.00    -0.480 OA
ATOM     16  H   UNL     1       0.752  -8.142  -0.943  0.00  0.00    +0.295 HD
ENDBRANCH  10  15
BRANCH   1  17
ATOM     17  O   UNL     1      -1.438  -0.257  -1.118  0.00  0.00    -0.450 OA
BRANCH  17  19
ATOM     18  C   UNL     1      -0.096   1.742  -1.324  0.00  0.00    +0.048 C 
ATOM     19  C   UNL     1      -0.160   0.228  -1.534  0.00  0.00    +0.230 C 
ENDBRANCH  17  19
ENDBRANCH   1  17
BRANCH   8  20
ATOM     20  C   UNL     1      -4.938  -8.194  -0.794  0.00  0.00    +0.113 C 
BRANCH  20  21
ATOM     21  S   UNL     1      -5.358  -8.847  -2.433  0.00  0.00    -0.081 S 
BRANCH  21  22
ATOM     22  C   UNL     1      -6.978  -9.509  -2.226  0.00  0.00    +0.193 A 
ATOM     23  N   UNL     1      -7.687  -9.503  -1.119  0.00  0.00    -0.122 NA
ATOM     24  N   UNL     1      -8.823 -10.068  -1.320  0.00  0.00    -0.128 NA
ATOM     25  C   UNL     1      -8.910 -10.469  -2.567  0.00  0.00    +0.165 A 
ATOM     26  N   UNL     1      -7.733 -10.118  -3.187  0.00  0.00    -0.291 N 
BRANCH  25  27
ATOM     27  C   UNL     1     -10.059 -11.161  -3.189  0.00  0.00    +0.019 A 
ATOM     28  C   UNL     1     -11.319 -11.105  -2.591  0.00  0.00    +0.012 A 
ATOM     29  C   UNL     1     -12.386 -11.754  -3.178  0.00  0.00    +0.004 A 
ATOM     30  C   UNL     1     -12.210 -12.458  -4.356  0.00  0.00    -0.050 A 
ATOM     31  C   UNL     1     -10.963 -12.517  -4.953  0.00  0.00    +0.004 A 
ATOM     32  C   UNL     1      -9.889 -11.869  -4.381  0.00  0.00    +0.012 A 
ATOM     33  C   UNL     1     -13.381 -13.163  -4.990  0.00  0.00    +0.044 C 
ENDBRANCH  25  27
BRANCH  26  34
ATOM     34  C   UNL     1      -7.366 -10.351  -4.586  0.00  0.00    +0.250 C 
BRANCH  34  35
ATOM     35  C   UNL     1      -6.647 -11.671  -4.703  0.00  0.00    +0.375 C 
ATOM     36  O   UNL     1      -6.459 -12.353  -3.710  0.00  0.00    -0.244 OA
ATOM     37  O   UNL     1      -6.253 -12.056  -5.790  0.00  0.00    -0.244 OA
ENDBRANCH  34  35
ENDBRANCH  26  34
ENDBRANCH  21  22
ENDBRANCH  20  21
ENDBRANCH   8  20
TORSDOF 9
