REMARK  Name = ZINC10187808
REMARK  6 active torsions:
REMARK  status: ('A' for Active; 'I' for Inactive)
REMARK    1  A    between atoms: C_3  and  C_10
REMARK    2  A    between atoms: C_5  and  N_7
REMARK    3  A    between atoms: C_10  and  N_11
REMARK    4  A    between atoms: C_15  and  C_18
REMARK    5  A    between atoms: N_20  and  C_21
REMARK    6  A    between atoms: C_24  and  C_27
REMARK                            x       y       z     vdW  Elec       q    Type
REMARK                         _______ _______ _______ _____ _____    ______ ____
ROOT
ATOM      1  N   UNL     1      -0.145   5.862  -1.440  0.00  0.00    -0.310 N 
ATOM      2  C   UNL     1      -1.234   5.535  -2.175  0.00  0.00    +0.089 A 
ATOM      3  C   UNL     1      -1.168   5.441  -3.528  0.00  0.00    +0.019 A 
ATOM      4  C   UNL     1       0.037   5.682  -4.188  0.00  0.00    +0.020 A 
ATOM      5  C   UNL     1       1.162   6.019  -3.438  0.00  0.00    +0.101 A 
ATOM      6  C   UNL     1       1.041   6.110  -2.027  0.00  0.00    +0.264 A 
ATOM      7  O   UNL     1       2.009   6.407  -1.349  0.00  0.00    -0.267 OA
ENDROOT
BRANCH   5   8
ATOM      8  C   UNL     1       2.450   6.280  -4.097  0.00  0.00    +0.253 C 
ATOM      9  O   UNL     1       2.568   6.100  -5.295  0.00  0.00    -0.270 OA
ATOM     10  N   UNL     1       3.500   6.719  -3.375  0.00  0.00    -0.281 N 
ATOM     11  H   UNL     1       3.430   6.788  -2.410  0.00  0.00    +0.155 HD
BRANCH  10  12
ATOM     12  C   UNL     1       4.691   7.074  -4.017  0.00  0.00    +0.034 A 
ATOM     13  C   UNL     1       4.656   7.635  -5.287  0.00  0.00    +0.024 A 
ATOM     14  C   UNL     1       5.833   7.991  -5.915  0.00  0.00    +0.014 A 
ATOM     15  C   UNL     1       7.046   7.777  -5.287  0.00  0.00    +0.055 A 
ATOM     16  C   UNL     1       7.085   7.214  -4.024  0.00  0.00    +0.014 A 
ATOM     17  C   UNL     1       5.911   6.862  -3.388  0.00  0.00    +0.024 A 
BRANCH  15  18
ATOM     18  C   UNL     1       8.329   8.161  -5.978  0.00  0.00    +0.417 C 
ATOM     19  F   UNL     1       8.795   7.077  -6.731  0.00  0.00    -0.166 F 
ATOM     20  F   UNL     1       8.096   9.250  -6.824  0.00  0.00    -0.166 F 
ATOM     21  F   UNL     1       9.289   8.510  -5.021  0.00  0.00    -0.166 F 
ENDBRANCH  15  18
ENDBRANCH  10  12
ENDBRANCH   5   8
BRANCH   1  22
ATOM     22  C   UNL     1      -0.260   5.952   0.018  0.00  0.00    +0.160 C 
BRANCH  22  25
ATOM     23  C   UNL     1       1.605   3.047   1.546  0.00  0.00    +0.003 A 
ATOM     24  C   UNL     1       1.332   4.281   0.984  0.00  0.00    +0.005 A 
ATOM     25  C   UNL     1       0.037   4.608   0.630  0.00  0.00    -0.026 A 
ATOM     26  C   UNL     1      -0.986   3.701   0.838  0.00  0.00    +0.038 A 
ATOM     27  C   UNL     1      -0.713   2.466   1.395  0.00  0.00    +0.127 A 
ATOM     28  C   UNL     1       0.582   2.141   1.754  0.00  0.00    +0.033 A 
BRANCH  27  29
ATOM     29  N   UNL     1      -1.808   1.494   1.612  0.00  0.00    +0.056 N 
ATOM     30  O   UNL     1      -1.568   0.407   2.107  0.00  0.00    -0.126 OA
ATOM     31  O   UNL     1      -2.949   1.780   1.296  0.00  0.00    -0.126 OA
ENDBRANCH  27  29
ENDBRANCH  22  25
ENDBRANCH   1  22
TORSDOF 6
