REMARK  Name = ZINC63165408
REMARK  6 active torsions:
REMARK  status: ('A' for Active; 'I' for Inactive)
REMARK    1  A    between atoms: C_1  and  C_2
REMARK    2  A    between atoms: C_4  and  C_30
REMARK    3  A    between atoms: C_8  and  C_10
REMARK    4  A    between atoms: C_10  and  N_11
REMARK    5  A    between atoms: C_12  and  C_14
REMARK    6  A    between atoms: N_17  and  C_19
REMARK                            x       y       z     vdW  Elec       q    Type
REMARK                         _______ _______ _______ _____ _____    ______ ____
ROOT
ATOM      1  C   UNL     1       2.204  -1.415   5.624  0.00  0.00    +0.151 A 
ATOM      2  C   UNL     1       3.247  -1.411   6.565  0.00  0.00    +0.006 A 
ATOM      3  C   UNL     1       2.854  -2.242   7.562  0.00  0.00    +0.049 A 
ATOM      4  N   UNL     1       1.634  -2.715   7.228  0.00  0.00    -0.236 N 
ATOM      5  N   UNL     1       1.266  -2.219   6.097  0.00  0.00    -0.161 NA
ATOM      6  C   UNL     1       3.682  -2.538   8.786  0.00  0.00    +0.056 C 
ATOM      7  C   UNL     1       5.128  -2.105   8.507  0.00  0.00    +0.006 C 
ATOM      8  C   UNL     1       5.140  -0.676   7.959  0.00  0.00    +0.005 C 
ATOM      9  C   UNL     1       4.553  -0.665   6.541  0.00  0.00    +0.039 C 
ENDROOT
BRANCH   4  10
ATOM     10  C   UNL     1       0.877  -3.607   8.000  0.00  0.00    +0.066 A 
ATOM     11  C   UNL     1       0.801  -3.444   9.377  0.00  0.00    +0.030 A 
ATOM     12  C   UNL     1       0.055  -4.324  10.135  0.00  0.00    +0.040 A 
ATOM     13  C   UNL     1      -0.617  -5.370   9.524  0.00  0.00    +0.124 A 
ATOM     14  C   UNL     1      -0.542  -5.534   8.151  0.00  0.00    +0.040 A 
ATOM     15  C   UNL     1       0.198  -4.652   7.388  0.00  0.00    +0.030 A 
ATOM     16  F   UNL     1      -1.345  -6.230  10.268  0.00  0.00    -0.205 F 
ENDBRANCH   4  10
BRANCH   1  18
ATOM     17  N   UNL     1       1.084  -0.761   3.550  0.00  0.00    -0.309 N 
ATOM     18  C   UNL     1       2.161  -0.662   4.355  0.00  0.00    +0.264 C 
ATOM     19  O   UNL     1       3.096   0.046   4.036  0.00  0.00    -0.268 OA
ATOM     20  H   UNL     1       0.338  -1.326   3.804  0.00  0.00    +0.149 HD
BRANCH  17  21
ATOM     21  C   UNL     1       1.041  -0.013   2.290  0.00  0.00    +0.121 C 
BRANCH  21  29
ATOM     22  C   UNL     1      -0.259   2.083   0.445  0.00  0.00    +0.040 C 
ATOM     23  C   UNL     1      -0.344   0.582   0.340  0.00  0.00    -0.058 C 
ATOM     24  C   UNL     1      -0.474  -0.028  -0.848  0.00  0.00    +0.020 C 
ATOM     25  C   UNL     1      -0.553  -1.431  -0.940  0.00  0.00    +0.031 C 
ATOM     26  N   UNL     1      -0.508  -2.236   0.086  0.00  0.00    -0.185 NA
ATOM     27  C   UNL     1      -0.381  -1.794   1.344  0.00  0.00    +0.245 C 
ATOM     28  O   UNL     1      -0.342  -2.571   2.277  0.00  0.00    -0.273 OA
ATOM     29  C   UNL     1      -0.280  -0.299   1.572  0.00  0.00    +0.120 C 
ATOM     30  C   UNL     1      -0.700  -2.041  -2.310  0.00  0.00    +0.063 C 
ENDBRANCH  21  29
ENDBRANCH  17  21
ENDBRANCH   1  18
TORSDOF 4
