REMARK  Name = ZINC09090678
REMARK  8 active torsions:
REMARK  status: ('A' for Active; 'I' for Inactive)
REMARK    1  A    between atoms: C_2  and  C_3
REMARK    2  A    between atoms: C_3  and  N_4
REMARK    3  A    between atoms: N_4  and  C_5
REMARK    4  A    between atoms: C_5  and  N_7
REMARK    5  A    between atoms: C_12  and  N_62
REMARK    6  A    between atoms: C_24  and  N_26
REMARK    7  A    between atoms: N_26  and  S_27
REMARK    8  A    between atoms: S_27  and  C_30
REMARK                            x       y       z     vdW  Elec       q    Type
REMARK                         _______ _______ _______ _____ _____    ______ ____
ROOT
ATOM      1  C   UNL     1       0.069   5.072  -0.339  0.00  0.00    -0.014 C 
ATOM      2  C   UNL     1       0.521   3.663  -0.636  0.00  0.00    -0.051 A 
ATOM      3  C   UNL     1       1.679   3.104  -1.082  0.00  0.00    +0.003 A 
ATOM      4  C   UNL     1       1.774   1.721  -1.256  0.00  0.00    +0.001 A 
ATOM      5  C   UNL     1       0.733   0.879  -0.993  0.00  0.00    +0.008 A 
ATOM      6  C   UNL     1      -0.479   1.423  -0.536  0.00  0.00    -0.017 A 
ATOM      7  C   UNL     1      -0.549   2.817  -0.363  0.00  0.00    -0.012 A 
ATOM      8  C   UNL     1      -1.697   3.462   0.087  0.00  0.00    -0.022 A 
ATOM      9  C   UNL     1      -2.787   2.699   0.374  0.00  0.00    +0.006 A 
ATOM     10  C   UNL     1      -2.739   1.312   0.216  0.00  0.00    +0.001 A 
ATOM     11  C   UNL     1      -1.620   0.666  -0.225  0.00  0.00    +0.008 A 
ATOM     12  C   UNL     1      -1.394   4.940   0.138  0.00  0.00    +0.098 C 
ENDROOT
BRANCH   1  18
ATOM     13  N   UNL     1       3.052   6.054   2.445  0.00  0.00    -0.316 N 
ATOM     14  C   UNL     1       1.843   5.398   2.965  0.00  0.00    +0.088 C 
ATOM     15  C   UNL     1       1.133   4.695   1.803  0.00  0.00    -0.059 C 
ATOM     16  C   UNL     1       2.166   6.168   0.177  0.00  0.00    -0.059 C 
ATOM     17  C   UNL     1       2.918   6.931   1.272  0.00  0.00    +0.088 C 
ATOM     18  N   UNL     1       0.883   5.684   0.732  0.00  0.00    +0.388 N 
ATOM     19  H   UNL     1       0.369   6.480   1.127  0.00  0.00    -0.081 HD
BRANCH  13  20
ATOM     20  C   UNL     1       4.252   5.856   3.027  0.00  0.00    +0.133 C 
ATOM     21  S   UNL     1       5.621   6.730   2.486  0.00  0.00    -0.019 S 
BRANCH  20  22
ATOM     22  N   UNL     1       4.373   4.970   4.036  0.00  0.00    -0.323 N 
ATOM     23  H   UNL     1       3.585   4.530   4.393  0.00  0.00    +0.148 HD
BRANCH  22  24
ATOM     24  C   UNL     1       5.694   4.671   4.593  0.00  0.00    +0.130 C 
BRANCH  24  26
ATOM     25  C   UNL     1       6.243   2.543   5.658  0.00  0.00    +0.005 C 
ATOM     26  C   UNL     1       5.555   3.657   5.700  0.00  0.00    -0.016 C 
ENDBRANCH  24  26
ENDBRANCH  22  24
ENDBRANCH  20  22
ENDBRANCH  13  20
ENDBRANCH   1  18
BRANCH  12  27
ATOM     27  N   UNL     1      -1.530   5.440   1.508  0.00  0.00    -0.184 NA
ATOM     28  H   UNL     1      -1.271   4.880   2.256  0.00  0.00    +0.149 HD
BRANCH  27  29
ATOM     29  S   UNL     1      -2.126   6.961   1.779  0.00  0.00    +0.059 S 
ATOM     30  O   UNL     1      -2.221   7.115   3.188  0.00  0.00    -0.153 OA
ATOM     31  O   UNL     1      -1.368   7.845   0.965  0.00  0.00    -0.153 OA
BRANCH  29  32
ATOM     32  C   UNL     1      -3.775   6.992   1.157  0.00  0.00    +0.105 A 
ATOM     33  C   UNL     1      -4.005   7.269  -0.177  0.00  0.00    +0.028 A 
ATOM     34  C   UNL     1      -5.298   7.290  -0.666  0.00  0.00    +0.002 A 
ATOM     35  C   UNL     1      -6.361   7.043   0.182  0.00  0.00    +0.000 A 
ATOM     36  C   UNL     1      -6.131   6.771   1.518  0.00  0.00    +0.002 A 
ATOM     37  C   UNL     1      -4.838   6.747   2.006  0.00  0.00    +0.028 A 
ENDBRANCH  29  32
ENDBRANCH  27  29
ENDBRANCH  12  27
TORSDOF 8
