REMARK  Name = ZINC46875806
REMARK  7 active torsions:
REMARK  status: ('A' for Active; 'I' for Inactive)
REMARK    1  A    between atoms: C_1  and  C_2
REMARK    2  A    between atoms: C_3  and  C_11
REMARK    3  A    between atoms: C_7  and  N_8
REMARK    4  A    between atoms: C_11  and  S_12
REMARK    5  A    between atoms: S_12  and  C_13
REMARK    6  A    between atoms: N_17  and  C_18
REMARK    7  A    between atoms: C_21  and  O_24
REMARK                            x       y       z     vdW  Elec       q    Type
REMARK                         _______ _______ _______ _____ _____    ______ ____
ROOT
ATOM      1  C   UNL     1       0.090   1.463  -4.675  0.00  0.00    +0.214 A 
ATOM      2  N   UNL     1      -1.176   1.572  -5.016  0.00  0.00    -0.101 NA
ATOM      3  N   UNL     1      -1.291   2.229  -6.113  0.00  0.00    -0.022 NA
ATOM      4  N   UNL     1      -0.131   2.584  -6.548  0.00  0.00    -0.038 NA
ATOM      5  N   UNL     1       0.815   2.103  -5.626  0.00  0.00    -0.187 N 
ENDROOT
BRANCH   5   6
ATOM      6  C   UNL     1       2.209   2.252  -5.679  0.00  0.00    +0.070 A 
ATOM      7  C   UNL     1       2.936   2.402  -4.506  0.00  0.00    +0.031 A 
ATOM      8  C   UNL     1       4.308   2.548  -4.559  0.00  0.00    +0.047 A 
ATOM      9  C   UNL     1       4.960   2.544  -5.783  0.00  0.00    +0.117 A 
ATOM     10  C   UNL     1       4.234   2.395  -6.956  0.00  0.00    +0.047 A 
ATOM     11  C   UNL     1       2.862   2.243  -6.904  0.00  0.00    +0.031 A 
BRANCH   9  12
ATOM     12  O   UNL     1       6.311   2.688  -5.835  0.00  0.00    -0.507 OA
ATOM     13  H   UNL     1       6.797   1.853  -5.796  0.00  0.00    +0.292 HD
ENDBRANCH   9  12
ENDBRANCH   5   6
BRANCH   1  14
ATOM     14  S   UNL     1       0.723   0.647  -3.247  0.00  0.00    -0.080 S 
BRANCH  14  15
ATOM     15  C   UNL     1      -0.756   0.014  -2.411  0.00  0.00    +0.112 C 
BRANCH  15  18
ATOM     16  C   UNL     1      -0.545   1.446   0.090  0.00  0.00    +0.046 C 
ATOM     17  C   UNL     1      -0.250  -0.032   0.040  0.00  0.00    -0.016 A 
ATOM     18  C   UNL     1      -0.351  -0.717  -1.157  0.00  0.00    -0.032 A 
ATOM     19  C   UNL     1      -0.080  -2.071  -1.202  0.00  0.00    +0.005 A 
ATOM     20  C   UNL     1       0.292  -2.741  -0.051  0.00  0.00    +0.003 A 
ATOM     21  C   UNL     1       0.394  -2.056   1.145  0.00  0.00    +0.033 A 
ATOM     22  C   UNL     1       0.127  -0.700   1.190  0.00  0.00    +0.129 A 
BRANCH  22  23
ATOM     23  N   UNL     1       0.241   0.035   2.470  0.00  0.00    +0.057 N 
ATOM     24  O   UNL     1       0.674   1.163   2.482  0.00  0.00    -0.126 OA
ATOM     25  O   UNL     1      -0.099  -0.494   3.502  0.00  0.00    -0.126 OA
ENDBRANCH  22  23
ENDBRANCH  15  18
ENDBRANCH  14  15
ENDBRANCH   1  14
TORSDOF 6
