REMARK  Name = ZINC09412111
REMARK  8 active torsions:
REMARK  status: ('A' for Active; 'I' for Inactive)
REMARK    1  A    between atoms: C_3  and  S_24
REMARK    2  A    between atoms: C_6  and  C_7
REMARK    3  A    between atoms: C_7  and  C_8
REMARK    4  A    between atoms: C_8  and  C_9
REMARK    5  A    between atoms: N_11  and  C_12
REMARK    6  A    between atoms: C_12  and  C_13
REMARK    7  A    between atoms: C_13  and  N_72
REMARK    8  A    between atoms: S_24  and  N_27
REMARK                            x       y       z     vdW  Elec       q    Type
REMARK                         _______ _______ _______ _____ _____    ______ ____
ROOT
ATOM      1  C   UNL     1       0.755  -1.906   1.269  0.00  0.00    +0.213 C 
ATOM      2  O   UNL     1       0.273  -2.651   0.443  0.00  0.00    -0.276 OA
ATOM      3  N   UNL     1       0.616  -0.572   1.136  0.00  0.00    -0.317 N 
ATOM      4  H   UNL     1       1.001   0.024   1.797  0.00  0.00    +0.149 HD
ENDROOT
BRANCH   1   5
ATOM      5  C   UNL     1       1.510  -2.472   2.444  0.00  0.00    +0.100 C 
BRANCH   5   6
ATOM      6  C   UNL     1       1.520  -3.999   2.357  0.00  0.00    +0.044 C 
BRANCH   6  12
ATOM      7  C   UNL     1       3.636  -4.787   3.437  0.00  0.00    +0.005 A 
ATOM      8  C   UNL     1       4.330  -5.301   4.516  0.00  0.00    +0.029 A 
ATOM      9  C   UNL     1       3.660  -5.603   5.688  0.00  0.00    +0.105 A 
ATOM     10  C   UNL     1       2.298  -5.386   5.781  0.00  0.00    +0.029 A 
ATOM     11  C   UNL     1       1.605  -4.868   4.703  0.00  0.00    +0.005 A 
ATOM     12  C   UNL     1       2.275  -4.565   3.532  0.00  0.00    -0.047 A 
BRANCH   9  13
ATOM     13  S   UNL     1       4.543  -6.263   7.062  0.00  0.00    +0.061 S 
ATOM     14  O   UNL     1       5.897  -5.861   6.906  0.00  0.00    -0.153 OA
ATOM     15  O   UNL     1       3.784  -5.949   8.221  0.00  0.00    -0.153 OA
BRANCH  13  16
ATOM     16  N   UNL     1       4.519  -7.912   6.913  0.00  0.00    -0.177 NA
ATOM     17  C   UNL     1       3.439  -8.703   7.519  0.00  0.00    +0.109 C 
ATOM     18  C   UNL     1       2.816  -9.592   6.431  0.00  0.00    +0.017 C 
ATOM     19  C   UNL     1       3.915 -10.430   5.774  0.00  0.00    +0.003 C 
ATOM     20  C   UNL     1       4.937  -9.504   5.111  0.00  0.00    +0.017 C 
ATOM     21  C   UNL     1       5.581  -8.613   6.178  0.00  0.00    +0.109 C 
ENDBRANCH  13  16
ENDBRANCH   9  13
ENDBRANCH   6  12
ENDBRANCH   5   6
ENDBRANCH   1   5
BRANCH   3  22
ATOM     22  C   UNL     1      -0.118  -0.022  -0.006  0.00  0.00    +0.092 C 
BRANCH  22  23
ATOM     23  C   UNL     1       0.025   1.501  -0.019  0.00  0.00    -0.049 C 
ATOM     24  C   UNL     1      -0.345   2.059   1.357  0.00  0.00    -0.010 C 
ATOM     25  C   UNL     1      -1.791   1.686   1.687  0.00  0.00    -0.001 C 
ATOM     26  C   UNL     1      -2.725   2.277   0.629  0.00  0.00    -0.000 C 
ATOM     27  C   UNL     1      -2.355   1.718  -0.747  0.00  0.00    -0.001 C 
ATOM     28  C   UNL     1      -0.909   2.092  -1.077  0.00  0.00    -0.010 C 
BRANCH  23  34
ATOM     29  C   UNL     1       1.747   1.501  -1.722  0.00  0.00    -0.049 C 
ATOM     30  C   UNL     1       3.180   1.945  -2.028  0.00  0.00    +0.141 C 
ATOM     31  O   UNL     1       4.071   1.345  -1.084  0.00  0.00    -0.383 OA
ATOM     32  C   UNL     1       3.776   1.673   0.276  0.00  0.00    +0.141 C 
ATOM     33  C   UNL     1       2.349   1.226   0.605  0.00  0.00    -0.049 C 
ATOM     34  N   UNL     1       1.417   1.886  -0.334  0.00  0.00    +0.387 N 
ATOM     35  H   UNL     1       1.512   2.904  -0.238  0.00  0.00    -0.081 HD
ENDBRANCH  23  34
ENDBRANCH  22  23
ENDBRANCH   3  22
TORSDOF 8
