REMARK  Name = ZINC09926746
REMARK  5 active torsions:
REMARK  status: ('A' for Active; 'I' for Inactive)
REMARK    1  A    between atoms: C_1  and  C_2
REMARK    2  A    between atoms: C_5  and  C_8
REMARK    3  A    between atoms: C_10  and  C_19
REMARK    4  A    between atoms: C_11  and  C_18
REMARK    5  A    between atoms: C_19  and  C_21
REMARK                            x       y       z     vdW  Elec       q    Type
REMARK                         _______ _______ _______ _____ _____    ______ ____
ROOT
ATOM      1  C   UNL     1       2.340  -0.037  -0.802  0.00  0.00    +0.176 C 
ATOM      2  C   UNL     1       1.116  -0.714  -0.244  0.00  0.00    +0.045 C 
ATOM      3  C   UNL     1       0.062  -0.037   0.243  0.00  0.00    +0.017 C 
ATOM      4  N   UNL     1       0.028   1.333   0.281  0.00  0.00    -0.287 N 
ATOM      5  C   UNL     1       1.217   2.009   0.044  0.00  0.00    +0.218 A 
ATOM      6  N   UNL     1       2.309   1.381  -0.459  0.00  0.00    -0.221 N 
ATOM      7  N   UNL     1       3.310   2.347  -0.559  0.00  0.00    -0.156 NA
ATOM      8  C   UNL     1       2.793   3.473  -0.133  0.00  0.00    +0.247 A 
ATOM      9  N   UNL     1       1.523   3.264   0.230  0.00  0.00    -0.201 NA
ATOM     10  C   UNL     1      -1.121  -0.810   0.768  0.00  0.00    +0.061 C 
ATOM     11  H   UNL     1      -0.796   1.812   0.461  0.00  0.00    +0.155 HD
ENDROOT
BRANCH   1  16
ATOM     12  C   UNL     1       2.414  -0.628  -6.550  0.00  0.00    +0.044 C 
ATOM     13  C   UNL     1       2.395  -0.474  -5.051  0.00  0.00    -0.050 A 
ATOM     14  C   UNL     1       3.372  -1.078  -4.282  0.00  0.00    +0.004 A 
ATOM     15  C   UNL     1       3.354  -0.936  -2.907  0.00  0.00    +0.006 A 
ATOM     16  C   UNL     1       2.359  -0.191  -2.301  0.00  0.00    -0.018 A 
ATOM     17  C   UNL     1       1.380   0.408  -3.071  0.00  0.00    +0.006 A 
ATOM     18  C   UNL     1       1.401   0.271  -4.446  0.00  0.00    +0.004 A 
ENDBRANCH   1  16
BRANCH   2  19
ATOM     19  C   UNL     1       1.073  -2.126  -0.234  0.00  0.00    +0.193 C 
ATOM     20  O   UNL     1       0.272  -2.717  -0.936  0.00  0.00    -0.287 OA
BRANCH  19  21
ATOM     21  C   UNL     1       2.002  -2.888   0.631  0.00  0.00    +0.022 A 
ATOM     22  C   UNL     1       2.864  -2.215   1.498  0.00  0.00    +0.012 A 
ATOM     23  C   UNL     1       3.724  -2.931   2.305  0.00  0.00    +0.001 A 
ATOM     24  C   UNL     1       3.739  -4.314   2.249  0.00  0.00    +0.000 A 
ATOM     25  C   UNL     1       2.891  -4.987   1.388  0.00  0.00    +0.001 A 
ATOM     26  C   UNL     1       2.023  -4.283   0.580  0.00  0.00    +0.012 A 
ENDBRANCH  19  21
ENDBRANCH   2  19
TORSDOF 3
