REMARK  Name = ZINC63005055
REMARK  2 active torsions:
REMARK  status: ('A' for Active; 'I' for Inactive)
REMARK    1  A    between atoms: C_2  and  C_15
REMARK    2  A    between atoms: C_5  and  N_8
REMARK                            x       y       z     vdW  Elec       q    Type
REMARK                         _______ _______ _______ _____ _____    ______ ____
ROOT
ATOM      1  C   UNL     1      -0.017   1.373   0.010  0.00  0.00    +0.055 A 
ATOM      2  C   UNL     1       1.187   2.088   0.002  0.00  0.00    +0.069 A 
ATOM      3  C   UNL     1       2.406   1.400  -0.013  0.00  0.00    +0.055 A 
ATOM      4  C   UNL     1       2.417   0.023  -0.021  0.00  0.00    +0.148 A 
ATOM      5  C   UNL     1       1.218  -0.686  -0.013  0.00  0.00    +0.101 A 
ATOM      6  C   UNL     1       0.002  -0.004   0.002  0.00  0.00    +0.148 A 
ATOM      7  F   UNL     1      -1.159  -0.695   0.009  0.00  0.00    -0.203 F 
ATOM      8  F   UNL     1       3.594  -0.642  -0.036  0.00  0.00    -0.203 F 
ENDROOT
BRANCH   5   9
ATOM      9  N   UNL     1       1.233  -2.078  -0.021  0.00  0.00    -0.329 N 
ATOM     10  C   UNL     1       1.235  -2.827  -1.287  0.00  0.00    +0.086 C 
ATOM     11  C   UNL     1       2.367  -3.859  -1.238  0.00  0.00    -0.063 C 
ATOM     12  N   UNL     1       2.216  -4.694  -0.040  0.00  0.00    +0.381 N 
ATOM     13  C   UNL     1       2.379  -3.872   1.166  0.00  0.00    -0.063 C 
ATOM     14  C   UNL     1       1.253  -2.841   1.237  0.00  0.00    +0.086 C 
ATOM     15  H   UNL     1       1.299  -5.114  -0.038  0.00  0.00    -0.086 HD
ATOM     16  H   UNL     1       2.917  -5.420  -0.047  0.00  0.00    -0.086 HD
ENDBRANCH   5   9
BRANCH   2  17
ATOM     17  C   UNL     1       1.171   3.559   0.009  0.00  0.00    +0.387 C 
ATOM     18  O   UNL     1       0.104   4.159   0.022  0.00  0.00    -0.241 OA
ATOM     19  O   UNL     1       2.223   4.183   0.003  0.00  0.00    -0.241 OA
ENDBRANCH   2  17
TORSDOF 2
