REMARK  Name = ZINC65974415
REMARK  2 active torsions:
REMARK  status: ('A' for Active; 'I' for Inactive)
REMARK    1  A    between atoms: C_6  and  S_7
REMARK    2  A    between atoms: S_7  and  N_10
REMARK                            x       y       z     vdW  Elec       q    Type
REMARK                         _______ _______ _______ _____ _____    ______ ____
ROOT
ATOM      1  S   UNL     1      -1.513  -0.904   0.012  0.00  0.00    +0.064 S 
ATOM      2  O   UNL     1      -1.653   0.448  -0.402  0.00  0.00    -0.153 OA
ATOM      3  O   UNL     1      -0.406  -1.354   0.780  0.00  0.00    -0.153 OA
ENDROOT
BRANCH   1   9
ATOM      4  C   UNL     1      -2.847  -1.924   2.162  0.00  0.00    +0.037 A 
ATOM      5  C   UNL     1      -3.981  -2.237   2.887  0.00  0.00    -0.024 A 
ATOM      6  C   UNL     1      -5.236  -1.926   2.381  0.00  0.00    +0.039 A 
ATOM      7  C   UNL     1      -5.349  -1.302   1.146  0.00  0.00    +0.064 A 
ATOM      8  C   UNL     1      -4.211  -0.992   0.424  0.00  0.00    +0.151 A 
ATOM      9  C   UNL     1      -2.961  -1.302   0.933  0.00  0.00    +0.141 A 
ATOM     10  F   UNL     1      -4.319  -0.385  -0.778  0.00  0.00    -0.203 F 
ATOM     11  N   UNL     1      -6.383  -2.242   3.117  0.00  0.00    -0.285 N 
ATOM     12  C   UNL     1      -6.298  -2.494   4.436  0.00  0.00    +0.218 C 
ATOM     13  O   UNL     1      -7.301  -2.781   5.056  0.00  0.00    -0.275 OA
ATOM     14  C   UNL     1      -4.976  -2.424   5.150  0.00  0.00    +0.101 C 
ATOM     15  C   UNL     1      -3.859  -2.914   4.227  0.00  0.00    +0.046 C 
ATOM     16  H   UNL     1      -7.244  -2.280   2.673  0.00  0.00    +0.155 HD
ENDBRANCH   1   9
BRANCH   1  17
ATOM     17  N   UNL     1      -1.540  -1.825  -1.364  0.00  0.00    -0.173 NA
ATOM     18  C   UNL     1      -2.069  -1.245  -2.565  0.00  0.00    +0.113 C 
ATOM     19  C   UNL     1      -1.376  -1.726  -3.804  0.00  0.00    +0.005 C 
ATOM     20  C   UNL     1       0.138  -1.723  -3.673  0.00  0.00    +0.008 C 
ATOM     21  C   UNL     1       0.715  -2.995  -3.087  0.00  0.00    -0.009 C 
ATOM     22  C   UNL     1       0.160  -4.231  -3.801  0.00  0.00    +0.007 C 
ATOM     23  C   UNL     1      -1.360  -4.209  -3.627  0.00  0.00    -0.009 C 
ATOM     24  C   UNL     1      -1.913  -3.002  -4.386  0.00  0.00    +0.008 C 
ATOM     25  C   UNL     1      -1.754  -4.168  -2.169  0.00  0.00    +0.024 C 
ATOM     26  C   UNL     1      -1.021  -3.180  -1.299  0.00  0.00    +0.080 C 
ATOM     27  C   UNL     1       0.474  -3.144  -1.591  0.00  0.00    +0.024 C 
ENDBRANCH   1  17
TORSDOF 2
