REMARK  Name = ZINC45747612
REMARK  6 active torsions:
REMARK  status: ('A' for Active; 'I' for Inactive)
REMARK    1  A    between atoms: C_1  and  C_2
REMARK    2  A    between atoms: N_4  and  C_5
REMARK    3  A    between atoms: C_5  and  C_7
REMARK    4  A    between atoms: C_5  and  C_18
REMARK    5  A    between atoms: C_7  and  C_8
REMARK    6  A    between atoms: N_20  and  C_21
REMARK                            x       y       z     vdW  Elec       q    Type
REMARK                         _______ _______ _______ _____ _____    ______ ____
ROOT
ATOM      1  C   UNL     1      -0.060  -2.185  -1.040  0.00  0.00    +0.163 C 
ENDROOT
BRANCH   1   5
ATOM      2  C   UNL     1      -0.371   1.264   0.593  0.00  0.00    +0.109 C 
ATOM      3  C   UNL     1      -0.259  -0.226   0.396  0.00  0.00    +0.211 C 
ATOM      4  O   UNL     1      -0.250  -0.966   1.357  0.00  0.00    -0.276 OA
ATOM      5  N   UNL     1      -0.169  -0.736  -0.848  0.00  0.00    -0.304 N 
ATOM      6  H   UNL     1      -0.176  -0.144  -1.617  0.00  0.00    +0.149 HD
ENDBRANCH   1   5
BRANCH   1   7
ATOM      7  C   UNL     1       1.179  -2.691  -0.348  0.00  0.00    +0.238 C 
ATOM      8  O   UNL     1       1.698  -2.031   0.528  0.00  0.00    -0.273 OA
ATOM      9  N   UNL     1       1.712  -3.877  -0.703  0.00  0.00    -0.284 N 
ATOM     10  H   UNL     1       1.256  -4.440  -1.348  0.00  0.00    +0.155 HD
BRANCH   9  11
ATOM     11  C   UNL     1       2.924  -4.298  -0.139  0.00  0.00    +0.036 A 
ATOM     12  C   UNL     1       3.151  -5.650   0.087  0.00  0.00    +0.025 A 
ATOM     13  C   UNL     1       4.343  -6.071   0.642  0.00  0.00    +0.029 A 
ATOM     14  C   UNL     1       5.317  -5.142   0.976  0.00  0.00    +0.067 A 
ATOM     15  C   UNL     1       5.092  -3.783   0.750  0.00  0.00    +0.069 A 
ATOM     16  C   UNL     1       3.896  -3.364   0.187  0.00  0.00    +0.051 A 
ATOM     17  N   UNL     1       6.232  -3.108   1.179  0.00  0.00    -0.306 N 
ATOM     18  H   UNL     1       6.370  -2.148   1.147  0.00  0.00    +0.170 HD
ATOM     19  C   UNL     1       7.112  -4.015   1.644  0.00  0.00    +0.325 A 
ATOM     20  O   UNL     1       8.212  -3.756   2.095  0.00  0.00    -0.247 OA
ATOM     21  N   UNL     1       6.590  -5.251   1.536  0.00  0.00    -0.306 N 
ATOM     22  H   UNL     1       7.024  -6.076   1.802  0.00  0.00    +0.170 HD
ENDBRANCH   9  11
ENDBRANCH   1   7
BRANCH   1  23
ATOM     23  C   UNL     1      -1.292  -2.872  -0.448  0.00  0.00    +0.069 C 
BRANCH  23  24
ATOM     24  C   UNL     1      -2.518  -2.458  -1.220  0.00  0.00    -0.020 A 
ATOM     25  C   UNL     1      -3.359  -1.459  -0.909  0.00  0.00    +0.087 A 
ATOM     26  N   UNL     1      -4.357  -1.381  -1.842  0.00  0.00    -0.360 N 
ATOM     27  H   UNL     1      -5.082  -0.738  -1.829  0.00  0.00    +0.165 HD
ATOM     28  C   UNL     1      -4.178  -2.353  -2.801  0.00  0.00    +0.047 A 
ATOM     29  C   UNL     1      -3.014  -3.066  -2.457  0.00  0.00    +0.003 A 
ATOM     30  C   UNL     1      -2.579  -4.120  -3.263  0.00  0.00    +0.010 A 
ATOM     31  C   UNL     1      -3.285  -4.451  -4.386  0.00  0.00    +0.001 A 
ATOM     32  C   UNL     1      -4.431  -3.748  -4.731  0.00  0.00    +0.002 A 
ATOM     33  C   UNL     1      -4.883  -2.711  -3.945  0.00  0.00    +0.026 A 
ENDBRANCH  23  24
ENDBRANCH   1  23
TORSDOF 5
