REMARK  Name = ZINC38682362
REMARK  11 active torsions:
REMARK  status: ('A' for Active; 'I' for Inactive)
REMARK    1  A    between atoms: C_1  and  S_2
REMARK    2  A    between atoms: S_2  and  C_3
REMARK    3  A    between atoms: C_6  and  C_9
REMARK    4  A    between atoms: C_14  and  O_23
REMARK    5  A    between atoms: C_18  and  N_22
REMARK    6  A    between atoms: C_19  and  C_20
REMARK    7  A    between atoms: O_23  and  C_24
REMARK    8  A    between atoms: C_24  and  C_26
REMARK    9  A    between atoms: C_26  and  O_27
REMARK   10  A    between atoms: O_27  and  C_28
REMARK   11  A    between atoms: C_31  and  N_34
REMARK                            x       y       z     vdW  Elec       q    Type
REMARK                         _______ _______ _______ _____ _____    ______ ____
ROOT
ATOM      1  C   UNL     1      -5.809  -1.597   0.077  0.00  0.00    +0.098 C 
ATOM      2  C   UNL     1      -6.128  -2.390  -1.163  0.00  0.00    +0.008 A 
ATOM      3  C   UNL     1      -6.361  -1.726  -2.354  0.00  0.00    +0.012 A 
ATOM      4  C   UNL     1      -6.654  -2.436  -3.501  0.00  0.00    +0.047 A 
ATOM      5  C   UNL     1      -6.717  -3.822  -3.462  0.00  0.00    +0.135 A 
ATOM      6  C   UNL     1      -6.485  -4.490  -2.271  0.00  0.00    +0.093 A 
ATOM      7  C   UNL     1      -6.189  -3.774  -1.118  0.00  0.00    +0.138 A 
ATOM      8  O   UNL     1      -5.965  -4.442   0.040  0.00  0.00    -0.441 OA
ATOM      9  C   UNL     1      -6.062  -3.799   1.215  0.00  0.00    +0.199 C 
ATOM     10  C   UNL     1      -5.995  -2.452   1.299  0.00  0.00    +0.098 C 
ENDROOT
BRANCH   1  14
ATOM     11  C   UNL     1      -1.757  -0.251  -0.106  0.00  0.00    +0.008 A 
ATOM     12  C   UNL     1      -2.794   0.671  -0.026  0.00  0.00    +0.015 A 
ATOM     13  C   UNL     1      -4.102   0.232   0.033  0.00  0.00    +0.005 A 
ATOM     14  C   UNL     1      -4.380  -1.122   0.012  0.00  0.00    -0.035 A 
ATOM     15  C   UNL     1      -3.351  -2.042  -0.067  0.00  0.00    +0.005 A 
ATOM     16  C   UNL     1      -2.041  -1.611  -0.132  0.00  0.00    +0.015 A 
BRANCH  11  18
ATOM     17  C   UNL     1      -0.221   2.112  -0.119  0.00  0.00    +0.090 C 
ATOM     18  S   UNL     1      -0.086   0.304  -0.182  0.00  0.00    -0.129 S 
ENDBRANCH  11  18
ENDBRANCH   1  14
BRANCH   9  19
ATOM     19  N   UNL     1      -6.234  -4.531   2.364  0.00  0.00    -0.328 N 
ATOM     20  H   UNL     1      -6.284  -5.499   2.319  0.00  0.00    +0.145 HD
ATOM     21  H   UNL     1      -6.306  -4.081   3.220  0.00  0.00    +0.145 HD
ENDBRANCH   9  19
BRANCH  10  22
ATOM     22  C   UNL     1      -6.104  -1.827   2.583  0.00  0.00    +0.101 C 
ATOM     23  N   UNL     1      -6.191  -1.331   3.601  0.00  0.00    -0.191 NA
ENDBRANCH  10  22
BRANCH   5  24
ATOM     24  O   UNL     1      -7.006  -4.523  -4.590  0.00  0.00    -0.423 OA
BRANCH  24  25
ATOM     25  C   UNL     1      -8.191  -5.151  -4.655  0.00  0.00    +0.350 C 
ATOM     26  O   UNL     1      -9.005  -5.000  -3.774  0.00  0.00    -0.247 OA
BRANCH  25  27
ATOM     27  C   UNL     1      -8.506  -6.046  -5.826  0.00  0.00    +0.349 C 
BRANCH  27  28
ATOM     28  O   UNL     1      -9.816  -6.595  -5.667  0.00  0.00    -0.481 OA
BRANCH  28  29
ATOM     29  C   UNL     1     -10.257  -7.431  -6.644  0.00  0.00    +0.121 A 
ATOM     30  C   UNL     1      -9.444  -7.720  -7.730  0.00  0.00    +0.048 A 
ATOM     31  C   UNL     1      -9.895  -8.570  -8.722  0.00  0.00    +0.036 A 
ATOM     32  C   UNL     1     -11.156  -9.131  -8.632  0.00  0.00    +0.126 A 
ATOM     33  C   UNL     1     -11.968  -8.844  -7.551  0.00  0.00    +0.036 A 
ATOM     34  C   UNL     1     -11.519  -8.000  -6.554  0.00  0.00    +0.048 A 
BRANCH  32  35
ATOM     35  N   UNL     1     -11.636 -10.041  -9.696  0.00  0.00    +0.056 N 
ATOM     36  O   UNL     1     -10.927 -10.293 -10.642  0.00  0.00    -0.126 OA
ATOM     37  O   UNL     1     -12.738 -10.533  -9.619  0.00  0.00    -0.126 OA
ENDBRANCH  32  35
ENDBRANCH  28  29
ENDBRANCH  27  28
ENDBRANCH  25  27
ENDBRANCH  24  25
ENDBRANCH   5  24
TORSDOF 10
