REMARK  Name = ZINC39974971
REMARK  7 active torsions:
REMARK  status: ('A' for Active; 'I' for Inactive)
REMARK    1  A    between atoms: C_1  and  C_2
REMARK    2  A    between atoms: C_3  and  N_17
REMARK    3  A    between atoms: C_4  and  C_16
REMARK    4  A    between atoms: N_5  and  C_7
REMARK    5  A    between atoms: C_7  and  C_8
REMARK    6  A    between atoms: N_17  and  S_18
REMARK    7  A    between atoms: S_18  and  C_21
REMARK                            x       y       z     vdW  Elec       q    Type
REMARK                         _______ _______ _______ _____ _____    ______ ____
ROOT
ATOM      1  C   UNL     1       0.554   1.172   0.113  0.00  0.00    +0.069 C 
ATOM      2  C   UNL     1       0.313  -0.309  -0.028  0.00  0.00    +0.082 A 
ATOM      3  C   UNL     1      -0.036  -0.974  -1.212  0.00  0.00    +0.091 A 
ATOM      4  C   UNL     1      -0.162  -2.295  -0.925  0.00  0.00    +0.059 A 
ATOM      5  N   UNL     1       0.101  -2.454   0.400  0.00  0.00    -0.262 N 
ATOM      6  N   UNL     1       0.400  -1.193   0.932  0.00  0.00    -0.174 NA
ATOM      7  C   UNL     1      -0.526  -3.386  -1.898  0.00  0.00    +0.067 C 
ENDROOT
BRANCH   3   8
ATOM      8  N   UNL     1      -0.224  -0.379  -2.473  0.00  0.00    -0.213 N 
ATOM      9  H   UNL     1      -1.074  -0.470  -2.931  0.00  0.00    +0.174 HD
BRANCH   8  10
ATOM     10  S   UNL     1       1.007   0.478  -3.176  0.00  0.00    +0.072 S 
ATOM     11  O   UNL     1       0.551   0.862  -4.466  0.00  0.00    -0.150 OA
ATOM     12  O   UNL     1       1.446   1.424  -2.210  0.00  0.00    -0.150 OA
BRANCH  10  13
ATOM     13  C   UNL     1       2.344  -0.642  -3.427  0.00  0.00    +0.109 A 
ATOM     14  C   UNL     1       3.356  -0.735  -2.489  0.00  0.00    +0.029 A 
ATOM     15  C   UNL     1       4.401  -1.612  -2.694  0.00  0.00    +0.006 A 
ATOM     16  C   UNL     1       4.445  -2.404  -3.835  0.00  0.00    -0.044 A 
ATOM     17  C   UNL     1       3.435  -2.314  -4.766  0.00  0.00    -0.042 A 
ATOM     18  C   UNL     1       2.382  -1.432  -4.557  0.00  0.00    +0.032 A 
ATOM     19  C   UNL     1       3.409  -3.153  -6.017  0.00  0.00    +0.035 C 
ATOM     20  C   UNL     1       4.793  -3.730  -6.306  0.00  0.00    +0.005 C 
ATOM     21  C   UNL     1       5.308  -4.413  -5.034  0.00  0.00    +0.005 C 
ATOM     22  C   UNL     1       5.618  -3.333  -3.999  0.00  0.00    +0.035 C 
ENDBRANCH  10  13
ENDBRANCH   8  10
ENDBRANCH   3   8
BRANCH   5  23
ATOM     23  C   UNL     1       0.080  -3.719   1.137  0.00  0.00    +0.180 C 
BRANCH  23  24
ATOM     24  C   UNL     1       1.449  -4.348   1.094  0.00  0.00    -0.008 A 
ATOM     25  C   UNL     1       1.746  -5.291   0.128  0.00  0.00    +0.009 A 
ATOM     26  C   UNL     1       3.000  -5.869   0.087  0.00  0.00    +0.039 A 
ATOM     27  C   UNL     1       3.961  -5.503   1.015  0.00  0.00    +0.125 A 
ATOM     28  C   UNL     1       3.664  -4.559   1.982  0.00  0.00    +0.058 A 
ATOM     29  C   UNL     1       2.409  -3.978   2.018  0.00  0.00    +0.049 A 
ATOM     30 CL   UNL     1       2.038  -2.789   3.228  0.00  0.00    -0.083 Cl
ATOM     31  F   UNL     1       5.188  -6.069   0.976  0.00  0.00    -0.205 F 
ENDBRANCH  23  24
ENDBRANCH   5  23
TORSDOF 5
