REMARK  Name = ZINC39666767
REMARK  14 active torsions:
REMARK  status: ('A' for Active; 'I' for Inactive)
REMARK    1  A    between atoms: C_1  and  C_2
REMARK    2  A    between atoms: C_2  and  C_3
REMARK    3  A    between atoms: C_3  and  C_4
REMARK    4  A    between atoms: C_3  and  C_6
REMARK    5  A    between atoms: C_4  and  C_5
REMARK    6  A    between atoms: C_6  and  N_7
REMARK    7  A    between atoms: C_8  and  C_10
REMARK    8  A    between atoms: C_21  and  C_23
REMARK    9  A    between atoms: C_25  and  O_33
REMARK   10  A    between atoms: C_26  and  O_31
REMARK   11  A    between atoms: C_27  and  O_29
REMARK   12  A    between atoms: O_29  and  C_30
REMARK   13  A    between atoms: O_31  and  C_32
REMARK   14  A    between atoms: O_33  and  C_34
REMARK                            x       y       z     vdW  Elec       q    Type
REMARK                         _______ _______ _______ _____ _____    ______ ____
ROOT
ATOM      1  C   UNL     1      -2.613  -4.496  -2.193  0.00  0.00    +0.100 C 
ATOM      2  C   UNL     1      -3.727  -3.958  -1.267  0.00  0.00    +0.121 C 
ATOM      3  N   UNL     1      -4.816  -4.957  -1.373  0.00  0.00    -0.296 N 
ATOM      4  C   UNL     1      -4.117  -6.263  -1.412  0.00  0.00    +0.115 C 
ATOM      5  C   UNL     1      -2.872  -6.010  -2.285  0.00  0.00    -0.004 C 
ATOM      6  C   UNL     1      -1.677  -6.784  -1.737  0.00  0.00    -0.010 C 
ATOM      7  C   UNL     1      -1.934  -8.286  -1.892  0.00  0.00    -0.082 C 
ATOM      8  N   UNL     1      -2.141  -8.605  -3.310  0.00  0.00    +0.379 N 
ATOM      9  C   UNL     1      -3.346  -7.928  -3.804  0.00  0.00    -0.082 C 
ATOM     10  C   UNL     1      -3.149  -6.412  -3.730  0.00  0.00    -0.010 C 
ATOM     11  C   UNL     1      -6.144  -4.729  -1.424  0.00  0.00    +0.247 C 
ATOM     12  O   UNL     1      -6.563  -3.588  -1.471  0.00  0.00    -0.270 OA
ATOM     13  H   UNL     1      -1.341  -8.297  -3.843  0.00  0.00    -0.086 HD
ATOM     14  H   UNL     1      -2.249  -9.602  -3.417  0.00  0.00    -0.086 HD
ENDROOT
BRANCH  11  15
ATOM     15  C   UNL     1      -7.088  -5.863  -1.423  0.00  0.00    +0.044 A 
ATOM     16  C   UNL     1      -6.693  -7.102  -0.914  0.00  0.00    +0.062 A 
ATOM     17  C   UNL     1      -7.579  -8.163  -0.914  0.00  0.00    +0.166 A 
ATOM     18  C   UNL     1      -8.865  -7.997  -1.421  0.00  0.00    +0.204 A 
ATOM     19  C   UNL     1      -9.262  -6.763  -1.930  0.00  0.00    +0.166 A 
ATOM     20  C   UNL     1      -8.381  -5.698  -1.927  0.00  0.00    +0.062 A 
BRANCH  19  21
ATOM     21  O   UNL     1     -10.518  -6.604  -2.425  0.00  0.00    -0.491 OA
ATOM     22  C   UNL     1     -10.858  -5.312  -2.931  0.00  0.00    +0.277 C 
ENDBRANCH  19  21
BRANCH  18  23
ATOM     23  O   UNL     1      -9.735  -9.041  -1.420  0.00  0.00    -0.488 OA
ATOM     24  C   UNL     1     -10.561  -9.197  -0.265  0.00  0.00    +0.277 C 
ENDBRANCH  18  23
BRANCH  17  25
ATOM     25  O   UNL     1      -7.195  -9.370  -0.418  0.00  0.00    -0.491 OA
ATOM     26  C   UNL     1      -5.862  -9.469   0.086  0.00  0.00    +0.277 C 
ENDBRANCH  17  25
ENDBRANCH  11  15
BRANCH   1  28
ATOM     27  N   UNL     1      -0.183  -4.075  -2.391  0.00  0.00    -0.315 N 
ATOM     28  C   UNL     1      -1.257  -4.232  -1.591  0.00  0.00    +0.218 C 
ATOM     29  O   UNL     1      -1.131  -4.160  -0.387  0.00  0.00    -0.275 OA
ATOM     30  H   UNL     1      -0.283  -4.132  -3.354  0.00  0.00    +0.149 HD
BRANCH  27  31
ATOM     31  C   UNL     1       1.135  -3.818  -1.805  0.00  0.00    +0.107 C 
BRANCH  31  32
ATOM     32  C   UNL     1       2.171  -3.680  -2.923  0.00  0.00    +0.006 C 
BRANCH  32  34
ATOM     33  C   UNL     1       2.830  -2.360  -4.939  0.00  0.00    +0.004 C 
ATOM     34  C   UNL     1       1.853  -2.443  -3.764  0.00  0.00    +0.002 C 
ENDBRANCH  32  34
BRANCH  32  35
ATOM     35  C   UNL     1       3.566  -3.536  -2.310  0.00  0.00    +0.002 C 
ATOM     36  C   UNL     1       3.921  -4.813  -1.546  0.00  0.00    +0.004 C 
ENDBRANCH  32  35
ENDBRANCH  31  32
ENDBRANCH  27  31
ENDBRANCH   1  28
TORSDOF 9
