REMARK  Name = ZINC38714729
REMARK  14 active torsions:
REMARK  status: ('A' for Active; 'I' for Inactive)
REMARK    1  A    between atoms: C_1  and  C_2
REMARK    2  A    between atoms: C_2  and  O_3
REMARK    3  A    between atoms: O_3  and  C_4
REMARK    4  A    between atoms: C_7  and  C_13
REMARK    5  A    between atoms: C_9  and  O_10
REMARK    6  A    between atoms: O_10  and  C_11
REMARK    7  A    between atoms: C_11  and  C_12
REMARK    8  A    between atoms: C_21  and  C_35
REMARK    9  A    between atoms: N_28  and  C_29
REMARK   10  A    between atoms: C_29  and  C_30
REMARK   11  A    between atoms: C_30  and  C_31
REMARK   12  A    between atoms: C_31  and  N_32
REMARK   13  A    between atoms: N_32  and  C_33
REMARK   14  A    between atoms: N_32  and  C_34
REMARK                            x       y       z     vdW  Elec       q    Type
REMARK                         _______ _______ _______ _____ _____    ______ ____
ROOT
ATOM      1  C   UNL     1       1.107  -6.044  -1.844  0.00  0.00    +0.145 C 
ATOM      2  C   UNL     1      -0.190  -6.608  -2.323  0.00  0.00    +0.072 A 
ATOM      3  C   UNL     1      -0.969  -6.345  -3.537  0.00  0.00    +0.199 A 
ATOM      4  O   UNL     1      -0.543  -5.693  -4.474  0.00  0.00    -0.287 OA
ATOM      5  C   UNL     1      -2.325  -6.950  -3.517  0.00  0.00    +0.066 A 
ATOM      6  C   UNL     1      -3.256  -6.627  -4.504  0.00  0.00    +0.035 A 
ATOM      7  C   UNL     1      -4.511  -7.194  -4.467  0.00  0.00    +0.045 A 
ATOM      8  C   UNL     1      -4.845  -8.080  -3.450  0.00  0.00    -0.029 A 
ATOM      9  C   UNL     1      -3.933  -8.406  -2.472  0.00  0.00    +0.051 A 
ATOM     10  C   UNL     1      -2.655  -7.849  -2.490  0.00  0.00    +0.140 A 
ATOM     11  O   UNL     1      -1.775  -8.195  -1.522  0.00  0.00    -0.450 OA
ATOM     12  C   UNL     1      -0.627  -7.502  -1.386  0.00  0.00    +0.199 A 
ATOM     13  C   UNL     1       0.355  -7.538  -0.288  0.00  0.00    +0.283 C 
ATOM     14  O   UNL     1       0.263  -8.231   0.705  0.00  0.00    -0.267 OA
ATOM     15  N   UNL     1       1.373  -6.690  -0.548  0.00  0.00    -0.284 N 
ATOM     16  C   UNL     1      -6.221  -8.692  -3.418  0.00  0.00    +0.045 C 
ATOM     17 CL   UNL     1      -5.678  -6.799  -5.691  0.00  0.00    -0.083 Cl
ENDROOT
BRANCH   1  21
ATOM     18  C   UNL     1       0.777  -1.811  -1.336  0.00  0.00    +0.162 A 
ATOM     19  C   UNL     1       0.243  -2.669  -0.388  0.00  0.00    +0.050 A 
ATOM     20  C   UNL     1       0.352  -4.037  -0.555  0.00  0.00    +0.009 A 
ATOM     21  C   UNL     1       0.992  -4.552  -1.667  0.00  0.00    -0.019 A 
ATOM     22  C   UNL     1       1.526  -3.702  -2.616  0.00  0.00    +0.055 A 
ATOM     23  C   UNL     1       1.416  -2.330  -2.458  0.00  0.00    +0.162 A 
BRANCH  18  24
ATOM     24  O   UNL     1       0.671  -0.465  -1.174  0.00  0.00    -0.489 OA
BRANCH  24  26
ATOM     25  C   UNL     1      -0.019   1.526   0.010  0.00  0.00    +0.048 C 
ATOM     26  C   UNL     1       0.002  -0.004   0.002  0.00  0.00    +0.226 C 
ENDBRANCH  24  26
ENDBRANCH  18  24
BRANCH  23  27
ATOM     27  O   UNL     1       1.936  -1.492  -3.394  0.00  0.00    -0.489 OA
BRANCH  27  28
ATOM     28  C   UNL     1       2.578  -2.095  -4.520  0.00  0.00    +0.226 C 
ATOM     29  C   UNL     1       3.096  -1.002  -5.457  0.00  0.00    +0.048 C 
ENDBRANCH  27  28
ENDBRANCH  23  27
ENDBRANCH   1  21
BRANCH  15  30
ATOM     30  C   UNL     1       2.538  -6.454   0.308  0.00  0.00    +0.107 C 
BRANCH  30  31
ATOM     31  C   UNL     1       2.234  -5.312   1.280  0.00  0.00    +0.000 C 
BRANCH  31  32
ATOM     32  C   UNL     1       3.451  -5.066   2.174  0.00  0.00    -0.078 C 
BRANCH  32  33
ATOM     33  N   UNL     1       3.159  -3.970   3.107  0.00  0.00    +0.376 N 
ATOM     34  C   UNL     1       2.083  -4.377   4.020  0.00  0.00    -0.097 C 
ATOM     35  C   UNL     1       4.366  -3.653   3.884  0.00  0.00    -0.097 C 
ATOM     36  H   UNL     1       2.870  -3.155   2.588  0.00  0.00    -0.083 HD
ENDBRANCH  32  33
ENDBRANCH  31  32
ENDBRANCH  30  31
ENDBRANCH  15  30
TORSDOF 9
