REMARK  Name = ZINC20928976
REMARK  8 active torsions:
REMARK  status: ('A' for Active; 'I' for Inactive)
REMARK    1  A    between atoms: C_1  and  C_2
REMARK    2  A    between atoms: C_5  and  C_33
REMARK    3  A    between atoms: C_6  and  N_8
REMARK    4  A    between atoms: N_12  and  S_24
REMARK    5  A    between atoms: C_14  and  C_15
REMARK    6  A    between atoms: C_14  and  C_16
REMARK    7  A    between atoms: N_18  and  C_19
REMARK    8  A    between atoms: S_24  and  C_27
REMARK                            x       y       z     vdW  Elec       q    Type
REMARK                         _______ _______ _______ _____ _____    ______ ____
ROOT
ATOM      1  N   UNL     1      -1.756   1.877  -1.330  0.00  0.00    -0.254 N 
ATOM      2  C   UNL     1      -0.535   1.345  -1.403  0.00  0.00    +0.236 C 
ATOM      3  O   UNL     1       0.055   1.395  -2.462  0.00  0.00    -0.274 OA
ATOM      4  C   UNL     1       0.144   0.687  -0.233  0.00  0.00    +0.205 C 
ATOM      5  N   UNL     1      -0.601   1.008   0.994  0.00  0.00    -0.165 NA
ATOM      6  C   UNL     1      -2.073   0.947   0.923  0.00  0.00    +0.145 C 
ATOM      7  C   UNL     1      -2.545   1.972  -0.109  0.00  0.00    +0.129 C 
ATOM      8  C   UNL     1      -2.401   3.379   0.475  0.00  0.00    +0.043 C 
ENDROOT
BRANCH   1  14
ATOM      9  C   UNL     1      -4.606   1.202  -5.279  0.00  0.00    +0.044 C 
ATOM     10  C   UNL     1      -3.704   2.072  -4.442  0.00  0.00    -0.049 A 
ATOM     11  C   UNL     1      -3.432   3.368  -4.841  0.00  0.00    +0.004 A 
ATOM     12  C   UNL     1      -2.605   4.170  -4.076  0.00  0.00    +0.005 A 
ATOM     13  C   UNL     1      -2.048   3.679  -2.912  0.00  0.00    -0.029 A 
ATOM     14  C   UNL     1      -2.319   2.378  -2.509  0.00  0.00    +0.041 A 
ATOM     15  C   UNL     1      -3.146   1.573  -3.282  0.00  0.00    +0.027 A 
ATOM     16  C   UNL     1      -1.146   4.553  -2.079  0.00  0.00    +0.045 C 
ENDBRANCH   1  14
BRANCH   7  17
ATOM     17  C   UNL     1      -3.994   1.718  -0.434  0.00  0.00    +0.238 C 
ATOM     18  O   UNL     1      -4.839   2.525  -0.110  0.00  0.00    -0.273 OA
ATOM     19  N   UNL     1      -4.352   0.593  -1.085  0.00  0.00    -0.311 N 
ATOM     20  H   UNL     1      -3.596  -0.171  -1.318  0.00  0.00    +0.149 HD
BRANCH  19  21
ATOM     21  C   UNL     1      -5.747   0.388  -1.482  0.00  0.00    +0.073 C 
ATOM     22  C   UNL     1      -6.560  -0.161  -0.291  0.00  0.00    +0.022 C 
ATOM     23  C   UNL     1      -7.547  -1.165  -0.936  0.00  0.00    +0.002 C 
ATOM     24  C   UNL     1      -6.688  -1.827  -2.042  0.00  0.00    +0.002 C 
ATOM     25  C   UNL     1      -5.828  -0.671  -2.595  0.00  0.00    +0.022 C 
ENDBRANCH  19  21
ENDBRANCH   7  17
BRANCH   5  26
ATOM     26  S   UNL     1       0.182   1.420   2.394  0.00  0.00    +0.061 S 
ATOM     27  O   UNL     1      -0.707   1.119   3.461  0.00  0.00    -0.153 OA
ATOM     28  O   UNL     1       1.486   0.862   2.310  0.00  0.00    -0.153 OA
BRANCH  26  29
ATOM     29  C   UNL     1       0.382   3.171   2.383  0.00  0.00    +0.105 A 
ATOM     30  C   UNL     1       1.517   3.734   1.830  0.00  0.00    +0.028 A 
ATOM     31  C   UNL     1       1.671   5.107   1.818  0.00  0.00    +0.002 A 
ATOM     32  C   UNL     1       0.695   5.918   2.366  0.00  0.00    +0.000 A 
ATOM     33  C   UNL     1      -0.438   5.355   2.923  0.00  0.00    +0.002 A 
ATOM     34  C   UNL     1      -0.595   3.981   2.932  0.00  0.00    +0.028 A 
ENDBRANCH  26  29
ENDBRANCH   5  26
TORSDOF 5
