REMARK  Name = ZINC10743561
REMARK  8 active torsions:
REMARK  status: ('A' for Active; 'I' for Inactive)
REMARK    1  A    between atoms: C_1  and  C_2
REMARK    2  A    between atoms: N_11  and  C_15
REMARK    3  A    between atoms: C_15  and  C_16
REMARK    4  A    between atoms: C_16  and  O_18
REMARK    5  A    between atoms: O_18  and  C_19
REMARK    6  A    between atoms: C_19  and  C_21
REMARK    7  A    between atoms: C_19  and  C_22
REMARK    8  A    between atoms: C_27  and  C_30
REMARK                            x       y       z     vdW  Elec       q    Type
REMARK                         _______ _______ _______ _____ _____    ______ ____
ROOT
ATOM      1  O   UNL     1      -4.233  -2.760   2.699  0.00  0.00    -0.451 OA
ENDROOT
BRANCH   1   2
ATOM      2  C   UNL     1      -3.260  -1.886   2.395  0.00  0.00    +0.326 C 
ATOM      3  O   UNL     1      -2.352  -2.222   1.671  0.00  0.00    -0.249 OA
BRANCH   2   4
ATOM      4  C   UNL     1      -3.301  -0.488   2.955  0.00  0.00    +0.238 C 
BRANCH   4  14
ATOM      5  C   UNL     1      -1.536   3.561   2.539  0.00  0.00    +0.010 C 
ATOM      6  C   UNL     1      -0.790   3.101   1.286  0.00  0.00    +0.018 C 
ATOM      7  C   UNL     1      -1.527   3.600   0.040  0.00  0.00    +0.006 C 
ATOM      8  C   UNL     1      -0.790   3.122  -1.213  0.00  0.00    +0.000 C 
ATOM      9  C   UNL     1      -0.753   1.593  -1.233  0.00  0.00    +0.003 C 
ATOM     10  C   UNL     1      -0.013   1.086   0.008  0.00  0.00    +0.035 C 
ATOM     11  C   UNL     1      -0.726   1.577   1.263  0.00  0.00    +0.115 C 
ATOM     12  C   UNL     1      -2.117   0.991   1.342  0.00  0.00    +0.247 C 
ATOM     13  O   UNL     1      -3.023   1.142   0.552  0.00  0.00    -0.273 OA
ATOM     14  N   UNL     1      -2.136   0.263   2.478  0.00  0.00    -0.213 N 
ATOM     15  C   UNL     1      -0.960   0.312   3.115  0.00  0.00    +0.310 C 
ATOM     16  O   UNL     1      -0.734  -0.264   4.161  0.00  0.00    -0.252 OA
ATOM     17  N   UNL     1      -0.056   1.072   2.468  0.00  0.00    -0.285 N 
ATOM     18  H   UNL     1       0.857   1.250   2.743  0.00  0.00    +0.151 HD
ENDBRANCH   4  14
ENDBRANCH   2   4
ENDBRANCH   1   2
BRANCH   1  19
ATOM     19  C   UNL     1      -4.129  -4.089   2.124  0.00  0.00    +0.259 C 
ATOM     20  C   UNL     1      -3.340  -4.994   3.071  0.00  0.00    +0.062 C 
BRANCH  19  21
ATOM     21  C   UNL     1      -5.510  -4.657   1.921  0.00  0.00    +0.259 C 
ATOM     22  O   UNL     1      -6.486  -4.006   2.230  0.00  0.00    -0.271 OA
ATOM     23  N   UNL     1      -5.661  -5.889   1.395  0.00  0.00    -0.262 N 
ATOM     24  C   UNL     1      -6.934  -6.413   1.208  0.00  0.00    +0.165 A 
ATOM     25  N   UNL     1      -7.291  -7.585   0.714  0.00  0.00    -0.225 NA
ATOM     26  C   UNL     1      -8.566  -7.926   0.606  0.00  0.00    +0.080 A 
ATOM     27  C   UNL     1      -9.532  -7.048   1.012  0.00  0.00    +0.076 A 
ATOM     28  S   UNL     1      -8.523  -5.684   1.578  0.00  0.00    -0.060 S 
ATOM     29  H   UNL     1      -4.881  -6.410   1.148  0.00  0.00    +0.157 HD
BRANCH  26  30
ATOM     30  C   UNL     1      -8.943  -9.247   0.048  0.00  0.00    +0.001 A 
ATOM     31  C   UNL     1     -10.286  -9.604  -0.060  0.00  0.00    +0.010 A 
ATOM     32  C   UNL     1     -10.631 -10.833  -0.585  0.00  0.00    +0.001 A 
ATOM     33  C   UNL     1      -9.646 -11.714  -0.993  0.00  0.00    +0.000 A 
ATOM     34  C   UNL     1      -8.311 -11.368  -0.883  0.00  0.00    +0.001 A 
ATOM     35  C   UNL     1      -7.955 -10.139  -0.365  0.00  0.00    +0.010 A 
ENDBRANCH  26  30
ENDBRANCH  19  21
ENDBRANCH   1  19
TORSDOF 6
