REMARK  Name = ZINC62198291
REMARK  5 active torsions:
REMARK  status: ('A' for Active; 'I' for Inactive)
REMARK    1  A    between atoms: C_1  and  C_2
REMARK    2  A    between atoms: C_11  and  O_25
REMARK    3  A    between atoms: C_13  and  N_15
REMARK    4  A    between atoms: C_16  and  C_24
REMARK    5  A    between atoms: C_21  and  C_23
REMARK                            x       y       z     vdW  Elec       q    Type
REMARK                         _______ _______ _______ _____ _____    ______ ____
ROOT
ATOM      1  C   UNL     1      -4.728  -5.841  -2.821  0.00  0.00    +0.044 C 
ATOM      2  C   UNL     1      -3.265  -5.623  -2.533  0.00  0.00    -0.049 A 
ATOM      3  C   UNL     1      -2.725  -4.355  -2.624  0.00  0.00    +0.009 A 
ATOM      4  C   UNL     1      -1.381  -4.147  -2.363  0.00  0.00    -0.015 A 
ATOM      5  C   UNL     1      -0.574  -5.215  -2.011  0.00  0.00    +0.141 A 
ATOM      6  C   UNL     1      -1.122  -6.491  -1.918  0.00  0.00    +0.083 A 
ATOM      7  C   UNL     1      -2.464  -6.691  -2.174  0.00  0.00    +0.027 A 
ATOM      8 CL   UNL     1      -0.116  -7.834  -1.472  0.00  0.00    -0.080 Cl
ATOM      9  O   UNL     1       0.751  -5.058  -1.758  0.00  0.00    -0.488 OA
ATOM     10  C   UNL     1       1.228  -3.738  -1.492  0.00  0.00    +0.259 C 
ATOM     11  C   UNL     1       0.695  -2.801  -2.584  0.00  0.00    +0.143 C 
ATOM     12  C   UNL     1      -0.830  -2.747  -2.468  0.00  0.00    -0.001 C 
ENDROOT
BRANCH  12  13
ATOM     13  N   UNL     1      -1.387  -2.090  -3.658  0.00  0.00    +0.389 N 
ATOM     14  C   UNL     1      -1.026  -0.668  -3.644  0.00  0.00    -0.070 C 
ATOM     15  C   UNL     1      -1.671   0.038  -4.839  0.00  0.00    -0.016 C 
ATOM     16  C   UNL     1      -1.172  -0.605  -6.136  0.00  0.00    -0.003 C 
ATOM     17  C   UNL     1      -1.489  -2.103  -6.106  0.00  0.00    -0.016 C 
ATOM     18  C   UNL     1      -0.850  -2.730  -4.865  0.00  0.00    -0.070 C 
ATOM     19  C   UNL     1      -1.164  -4.227  -4.831  0.00  0.00    -0.013 C 
ATOM     20  C   UNL     1      -1.522  -0.028  -2.346  0.00  0.00    -0.013 C 
ATOM     21  H   UNL     1      -2.393  -2.180  -3.650  0.00  0.00    -0.080 HD
ENDBRANCH  12  13
BRANCH  11  22
ATOM     22  O   UNL     1       1.064  -3.302  -3.870  0.00  0.00    -0.390 OA
ATOM     23  H   UNL     1       2.019  -3.379  -4.003  0.00  0.00    +0.210 HD
ENDBRANCH  11  22
TORSDOF 2
