REMARK  Name = ZINC35500479
REMARK  6 active torsions:
REMARK  status: ('A' for Active; 'I' for Inactive)
REMARK    1  A    between atoms: C_1  and  C_2
REMARK    2  A    between atoms: C_9  and  N_13
REMARK    3  A    between atoms: C_10  and  C_11
REMARK    4  A    between atoms: C_14  and  C_16
REMARK    5  A    between atoms: C_16  and  N_17
REMARK    6  A    between atoms: N_20  and  C_23
REMARK                            x       y       z     vdW  Elec       q    Type
REMARK                         _______ _______ _______ _____ _____    ______ ____
ROOT
ATOM      1  N   UNL     1       0.696  -5.849   2.431  0.00  0.00    -0.278 N 
ATOM      2  C   UNL     1       1.678  -6.098   3.319  0.00  0.00    +0.232 C 
ATOM      3  O   UNL     1       2.384  -5.194   3.713  0.00  0.00    -0.274 OA
ATOM      4  H   UNL     1       0.132  -6.573   2.116  0.00  0.00    +0.155 HD
ENDROOT
BRANCH   1  12
ATOM      5  C   UNL     1      -0.019   1.526   0.010  0.00  0.00    +0.008 C 
ATOM      6  C   UNL     1       0.002  -0.004   0.002  0.00  0.00    -0.009 C 
ATOM      7  C   UNL     1      -1.434  -0.537   0.019  0.00  0.00    +0.008 C 
ATOM      8  C   UNL     1      -1.433  -2.045  -0.237  0.00  0.00    +0.037 C 
ATOM      9  C   UNL     1      -0.464  -2.704   0.734  0.00  0.00    -0.018 A 
ATOM     10  C   UNL     1       0.485  -1.986   1.374  0.00  0.00    -0.004 A 
ATOM     11  S   UNL     1       1.344  -3.168   2.371  0.00  0.00    -0.077 S 
ATOM     12  C   UNL     1       0.493  -4.558   1.966  0.00  0.00    +0.090 A 
ATOM     13  C   UNL     1      -0.459  -4.119   1.059  0.00  0.00    +0.084 A 
ATOM     14  C   UNL     1       0.739  -0.515   1.248  0.00  0.00    +0.046 C 
BRANCH  13  15
ATOM     15  C   UNL     1      -1.399  -5.024   0.469  0.00  0.00    +0.102 C 
ATOM     16  N   UNL     1      -2.144  -5.741   0.000  0.00  0.00    -0.191 NA
ENDBRANCH  13  15
ENDBRANCH   1  12
BRANCH   2  17
ATOM     17  C   UNL     1       1.900  -7.501   3.824  0.00  0.00    +0.181 C 
BRANCH  17  18
ATOM     18  N   UNL     1       3.019  -7.508   4.775  0.00  0.00    -0.291 NA
ATOM     19  C   UNL     1       4.281  -7.167   4.105  0.00  0.00    +0.104 C 
ATOM     20  C   UNL     1       5.387  -7.008   5.154  0.00  0.00    +0.120 C 
ATOM     21  N   UNL     1       5.429  -8.227   5.977  0.00  0.00    -0.325 N 
ATOM     22  C   UNL     1       4.173  -8.709   6.571  0.00  0.00    +0.120 C 
ATOM     23  C   UNL     1       3.115  -8.801   5.466  0.00  0.00    +0.104 C 
BRANCH  21  24
ATOM     24  C   UNL     1       6.631  -8.908   6.189  0.00  0.00    +0.065 A 
ATOM     25  C   UNL     1       7.433  -8.584   7.275  0.00  0.00    +0.026 A 
ATOM     26  C   UNL     1       8.620  -9.260   7.482  0.00  0.00    +0.002 A 
ATOM     27  C   UNL     1       9.012 -10.258   6.609  0.00  0.00    +0.003 A 
ATOM     28  C   UNL     1       8.217 -10.584   5.525  0.00  0.00    +0.040 A 
ATOM     29  C   UNL     1       7.024  -9.916   5.315  0.00  0.00    +0.144 A 
ATOM     30  F   UNL     1       6.245 -10.239   4.260  0.00  0.00    -0.204 F 
ENDBRANCH  21  24
ENDBRANCH  17  18
ENDBRANCH   2  17
TORSDOF 5
