REMARK  Name = ZINC13500125
REMARK  14 active torsions:
REMARK  status: ('A' for Active; 'I' for Inactive)
REMARK    1  A    between atoms: C_1  and  C_2
REMARK    2  A    between atoms: C_2  and  C_3
REMARK    3  A    between atoms: C_3  and  C_4
REMARK    4  A    between atoms: C_4  and  C_6
REMARK    5  A    between atoms: C_4  and  N_71
REMARK    6  A    between atoms: N_10  and  C_11
REMARK    7  A    between atoms: C_11  and  C_12
REMARK    8  A    between atoms: C_12  and  O_14
REMARK    9  A    between atoms: O_14  and  C_15
REMARK   10  A    between atoms: C_15  and  C_16
REMARK   11  A    between atoms: C_17  and  C_18
REMARK   12  A    between atoms: C_17  and  N_71
REMARK   13  A    between atoms: C_24  and  C_30
REMARK   14  A    between atoms: C_31  and  N_71
REMARK                            x       y       z     vdW  Elec       q    Type
REMARK                         _______ _______ _______ _____ _____    ______ ____
ROOT
ATOM      1  N   UNL     1       1.365  -3.337   5.150  0.00  0.00    +0.391 N 
ATOM      2  H   UNL     1       1.963  -3.617   4.363  0.00  0.00    -0.080 HD
ENDROOT
BRANCH   1   3
ATOM      3  C   UNL     1       1.627  -1.918   5.470  0.00  0.00    -0.067 C 
ATOM      4  C   UNL     1       2.154  -1.225   4.212  0.00  0.00    -0.015 C 
ATOM      5  C   UNL     1       2.443   0.245   4.524  0.00  0.00    -0.002 C 
ATOM      6  C   UNL     1       3.494   0.334   5.632  0.00  0.00    -0.000 C 
ATOM      7  C   UNL     1       2.967  -0.360   6.891  0.00  0.00    -0.002 C 
ATOM      8  C   UNL     1       2.678  -1.829   6.579  0.00  0.00    -0.015 C 
ENDBRANCH   1   3
BRANCH   1   9
ATOM      9  C   UNL     1       1.681  -4.186   6.318  0.00  0.00    +0.003 C 
BRANCH   9  10
ATOM     10  C   UNL     1       0.703  -3.931   7.436  0.00  0.00    +0.139 A 
ATOM     11  N   UNL     1      -0.562  -3.611   7.311  0.00  0.00    -0.115 NA
ATOM     12  N   UNL     1      -1.058  -3.478   8.493  0.00  0.00    -0.023 NA
ATOM     13  N   UNL     1      -0.141  -3.705   9.368  0.00  0.00    -0.043 NA
ATOM     14  N   UNL     1       0.957  -3.992   8.756  0.00  0.00    -0.220 N 
BRANCH  14  15
ATOM     15  C   UNL     1       2.241  -4.320   9.380  0.00  0.00    +0.267 C 
BRANCH  15  16
ATOM     16  C   UNL     1       2.965  -3.048   9.740  0.00  0.00    +0.329 C 
ATOM     17  O   UNL     1       2.409  -1.982   9.619  0.00  0.00    -0.249 OA
BRANCH  16  18
ATOM     18  O   UNL     1       4.227  -3.099  10.194  0.00  0.00    -0.464 OA
BRANCH  18  19
ATOM     19  C   UNL     1       4.832  -1.843  10.602  0.00  0.00    +0.229 C 
ATOM     20  C   UNL     1       6.297  -2.080  10.972  0.00  0.00    +0.048 C 
ENDBRANCH  18  19
ENDBRANCH  16  18
ENDBRANCH  15  16
ENDBRANCH  14  15
ENDBRANCH   9  10
BRANCH   9  21
ATOM     21  C   UNL     1       1.603  -5.655   5.897  0.00  0.00    -0.008 C 
BRANCH  21  23
ATOM     22  C   UNL     1       2.504  -7.371   4.321  0.00  0.00    +0.004 C 
ATOM     23  C   UNL     1       2.659  -5.936   4.826  0.00  0.00    -0.005 C 
ENDBRANCH  21  23
ENDBRANCH   9  21
ENDBRANCH   1   9
BRANCH   1  24
ATOM     24  C   UNL     1      -0.050  -3.515   4.764  0.00  0.00    -0.036 C 
BRANCH  24  25
ATOM     25  C   UNL     1      -0.228  -3.035   3.346  0.00  0.00    +0.001 A 
ATOM     26  C   UNL     1      -0.107  -3.910   2.317  0.00  0.00    +0.017 A 
ATOM     27  C   UNL     1      -0.285  -3.411   0.952  0.00  0.00    -0.001 A 
ATOM     28  C   UNL     1      -0.173  -4.265  -0.151  0.00  0.00    +0.010 A 
ATOM     29  C   UNL     1      -0.346  -3.770  -1.412  0.00  0.00    +0.001 A 
ATOM     30  C   UNL     1      -0.637  -2.427  -1.609  0.00  0.00    +0.005 A 
ATOM     31  C   UNL     1      -0.747  -1.566  -0.538  0.00  0.00    -0.026 A 
ATOM     32  C   UNL     1      -0.576  -2.048   0.755  0.00  0.00    +0.052 A 
ATOM     33  N   UNL     1      -0.686  -1.211   1.845  0.00  0.00    -0.322 N 
ATOM     34  H   UNL     1      -0.886  -0.272   1.708  0.00  0.00    +0.169 HD
ATOM     35  C   UNL     1      -0.520  -1.677   3.095  0.00  0.00    +0.251 A 
ATOM     36  O   UNL     1      -0.625  -0.909   4.035  0.00  0.00    -0.268 OA
ATOM     37  C   UNL     1      -1.058  -0.109  -0.767  0.00  0.00    +0.046 C 
ENDBRANCH  24  25
ENDBRANCH   1  24
TORSDOF 11
