REMARK  Name = ZINC10244629
REMARK  10 active torsions:
REMARK  status: ('A' for Active; 'I' for Inactive)
REMARK    1  A    between atoms: C_1  and  C_2
REMARK    2  A    between atoms: C_2  and  C_3
REMARK    3  A    between atoms: C_3  and  C_5
REMARK    4  A    between atoms: C_3  and  S_9
REMARK    5  A    between atoms: C_5  and  O_7
REMARK    6  A    between atoms: O_7  and  C_8
REMARK    7  A    between atoms: S_9  and  C_10
REMARK    8  A    between atoms: N_24  and  C_25
REMARK    9  A    between atoms: C_29  and  C_32
REMARK   10  A    between atoms: C_30  and  C_31
REMARK                            x       y       z     vdW  Elec       q    Type
REMARK                         _______ _______ _______ _____ _____    ______ ____
ROOT
ATOM      1  C   UNL     1       1.324   5.771  -0.054  0.00  0.00    +0.178 A 
ATOM      2  N   UNL     1       0.741   4.597   0.041  0.00  0.00    -0.221 NA
ATOM      3  C   UNL     1       1.463   3.465   0.071  0.00  0.00    +0.104 A 
ATOM      4  C   UNL     1       1.113   2.041   0.169  0.00  0.00    +0.026 A 
ATOM      5  C   UNL     1      -0.097   1.353   0.267  0.00  0.00    +0.012 A 
ATOM      6  C   UNL     1      -0.100  -0.011   0.347  0.00  0.00    +0.001 A 
ATOM      7  C   UNL     1       1.093  -0.720   0.330  0.00  0.00    +0.002 A 
ATOM      8  C   UNL     1       2.299  -0.061   0.234  0.00  0.00    +0.026 A 
ATOM      9  C   UNL     1       2.325   1.329   0.153  0.00  0.00    +0.049 A 
ATOM     10  N   UNL     1       3.358   2.236   0.051  0.00  0.00    -0.349 N 
ATOM     11  H   UNL     1       4.300   2.006   0.019  0.00  0.00    +0.166 HD
ATOM     12  C   UNL     1       2.854   3.527   0.001  0.00  0.00    +0.132 A 
ATOM     13  C   UNL     1       3.468   4.793  -0.101  0.00  0.00    +0.283 A 
ATOM     14  O   UNL     1       4.682   4.893  -0.164  0.00  0.00    -0.265 OA
ATOM     15  N   UNL     1       2.683   5.891  -0.126  0.00  0.00    -0.254 N 
ENDROOT
BRANCH  15  16
ATOM     16  C   UNL     1       3.266   7.161  -0.226  0.00  0.00    +0.055 A 
ATOM     17  C   UNL     1       3.613   7.861   0.922  0.00  0.00    +0.026 A 
ATOM     18  C   UNL     1       4.188   9.112   0.820  0.00  0.00    +0.002 A 
ATOM     19  C   UNL     1       4.418   9.669  -0.425  0.00  0.00    +0.004 A 
ATOM     20  C   UNL     1       4.073   8.976  -1.570  0.00  0.00    -0.046 A 
ATOM     21  C   UNL     1       3.503   7.721  -1.474  0.00  0.00    -0.024 A 
ATOM     22  C   UNL     1       3.134   6.963  -2.724  0.00  0.00    +0.046 C 
ATOM     23  C   UNL     1       4.326   9.586  -2.925  0.00  0.00    +0.044 C 
ENDBRANCH  15  16
BRANCH   1  24
ATOM     24  S   UNL     1       0.329   7.225  -0.090  0.00  0.00    -0.073 S 
BRANCH  24  25
ATOM     25  C   UNL     1      -1.319   6.477  -0.105  0.00  0.00    +0.162 C 
BRANCH  25  27
ATOM     26  C   UNL     1      -2.184   8.130  -1.767  0.00  0.00    +0.005 C 
ATOM     27  C   UNL     1      -2.368   7.561  -0.358  0.00  0.00    +0.022 C 
ENDBRANCH  25  27
BRANCH  25  28
ATOM     28  C   UNL     1      -1.585   5.821   1.226  0.00  0.00    +0.320 C 
ATOM     29  O   UNL     1      -1.008   6.206   2.215  0.00  0.00    -0.250 OA
BRANCH  28  30
ATOM     30  O   UNL     1      -2.464   4.810   1.312  0.00  0.00    -0.467 OA
ATOM     31  C   UNL     1      -2.670   4.227   2.625  0.00  0.00    +0.280 C 
ENDBRANCH  28  30
ENDBRANCH  25  28
ENDBRANCH  24  25
ENDBRANCH   1  24
TORSDOF 6
