REMARK  Name = ZINC08734293
REMARK  5 active torsions:
REMARK  status: ('A' for Active; 'I' for Inactive)
REMARK    1  A    between atoms: C_1  and  C_2
REMARK    2  A    between atoms: N_11  and  C_15
REMARK    3  A    between atoms: C_15  and  N_51
REMARK    4  A    between atoms: C_16  and  N_51
REMARK    5  A    between atoms: C_17  and  N_51
REMARK                            x       y       z     vdW  Elec       q    Type
REMARK                         _______ _______ _______ _____ _____    ______ ____
ROOT
ATOM      1  C   UNL     1      -0.548   1.613   5.537  0.00  0.00    +0.010 C 
ATOM      2  C   UNL     1      -1.537   0.559   6.038  0.00  0.00    +0.018 C 
ATOM      3  C   UNL     1      -2.160   1.029   7.355  0.00  0.00    +0.006 C 
ATOM      4  C   UNL     1      -3.163  -0.017   7.845  0.00  0.00    +0.000 C 
ATOM      5  C   UNL     1      -4.269  -0.194   6.803  0.00  0.00    +0.003 C 
ATOM      6  C   UNL     1      -3.654  -0.668   5.484  0.00  0.00    +0.035 C 
ATOM      7  C   UNL     1      -2.635   0.357   4.999  0.00  0.00    +0.115 C 
ATOM      8  C   UNL     1      -2.043  -0.077   3.678  0.00  0.00    +0.245 C 
ATOM      9  O   UNL     1      -1.407  -1.084   3.454  0.00  0.00    -0.273 OA
ATOM     10  N   UNL     1      -2.370   0.894   2.800  0.00  0.00    -0.241 N 
ATOM     11  C   UNL     1      -3.085   1.865   3.383  0.00  0.00    +0.308 C 
ATOM     12  O   UNL     1      -3.499   2.845   2.796  0.00  0.00    -0.252 OA
ATOM     13  N   UNL     1      -3.294   1.633   4.693  0.00  0.00    -0.285 N 
ATOM     14  H   UNL     1      -3.783   2.197   5.312  0.00  0.00    +0.151 HD
ENDROOT
BRANCH  10  15
ATOM     15  C   UNL     1      -1.995   0.885   1.384  0.00  0.00    +0.043 C 
BRANCH  15  17
ATOM     16  C   UNL     1      -0.866   3.019   1.190  0.00  0.00    -0.093 C 
ATOM     17  N   UNL     1      -0.684   1.553   1.239  0.00  0.00    +0.390 N 
ATOM     18  H   UNL     1      -0.098   1.317   2.049  0.00  0.00    -0.079 HD
BRANCH  17  19
ATOM     19  C   UNL     1      -0.013   1.086   0.008  0.00  0.00    -0.067 C 
ATOM     20  C   UNL     1      -0.753   1.593  -1.232  0.00  0.00    -0.015 C 
ATOM     21  C   UNL     1      -0.037   1.099  -2.490  0.00  0.00    -0.002 C 
ATOM     22  C   UNL     1       1.399   1.629  -2.501  0.00  0.00    -0.000 C 
ATOM     23  C   UNL     1       2.139   1.122  -1.262  0.00  0.00    -0.002 C 
ATOM     24  C   UNL     1       1.423   1.615  -0.003  0.00  0.00    -0.015 C 
ENDBRANCH  17  19
ENDBRANCH  15  17
ENDBRANCH  10  15
TORSDOF 3
