REMARK  Name = ZINC44882469
REMARK  3 active torsions:
REMARK  status: ('A' for Active; 'I' for Inactive)
REMARK    1  A    between atoms: C_1  and  C_2
REMARK    2  A    between atoms: C_2  and  N_9
REMARK    3  A    between atoms: C_10  and  C_12
REMARK                            x       y       z     vdW  Elec       q    Type
REMARK                         _______ _______ _______ _____ _____    ______ ____
ROOT
ATOM      1  N   UNL     1       0.829  -0.282  -1.189  0.00  0.00    -0.301 N 
ATOM      2  C   UNL     1       0.288  -0.126  -2.414  0.00  0.00    +0.300 C 
ATOM      3  O   UNL     1      -0.812   0.371  -2.532  0.00  0.00    -0.265 OA
ATOM      4  H   UNL     1       1.709  -0.680  -1.095  0.00  0.00    +0.150 HD
ENDROOT
BRANCH   2   5
ATOM      5  C   UNL     1       1.044  -0.566  -3.626  0.00  0.00    +0.301 C 
ATOM      6  O   UNL     1       2.094  -1.161  -3.504  0.00  0.00    -0.265 OA
ATOM      7  N   UNL     1       0.558  -0.301  -4.855  0.00  0.00    -0.296 N 
ATOM      8  C   UNL     1       1.249  -0.869  -6.031  0.00  0.00    +0.106 C 
ATOM      9  C   UNL     1       0.239  -1.387  -7.070  0.00  0.00    -0.000 C 
ATOM     10  C   UNL     1      -0.910  -2.068  -6.360  0.00  0.00    -0.081 C 
ATOM     11  N   UNL     1      -1.986  -1.104  -6.148  0.00  0.00    +0.380 N 
ATOM     12  C   UNL     1      -1.891  -0.357  -4.953  0.00  0.00    -0.063 C 
ATOM     13  C   UNL     1      -0.626   0.524  -4.976  0.00  0.00    +0.089 C 
ATOM     14  H   UNL     1      -1.995  -0.461  -6.926  0.00  0.00    -0.086 HD
ATOM     15  H   UNL     1      -2.864  -1.602  -6.142  0.00  0.00    -0.086 HD
ENDBRANCH   2   5
BRANCH   1  17
ATOM     16  C   UNL     1      -0.197   1.647  -0.120  0.00  0.00    +0.033 C 
ATOM     17  C   UNL     1       0.088   0.149  -0.001  0.00  0.00    +0.053 C 
ATOM     18  C   UNL     1      -1.242  -0.602   0.042  0.00  0.00    +0.049 C 
ATOM     19  C   UNL     1      -1.087  -1.929   0.836  0.00  0.00    +0.168 C 
ATOM     20  S   UNL     1       0.019  -1.347   2.195  0.00  0.00    -0.029 S 
ATOM     21  O   UNL     1       0.892  -2.403   2.573  0.00  0.00    -0.174 OA
ATOM     22  O   UNL     1      -0.762  -0.692   3.185  0.00  0.00    -0.174 OA
ATOM     23  C   UNL     1       0.968  -0.089   1.242  0.00  0.00    +0.191 C 
ENDBRANCH   1  17
TORSDOF 2
