REMARK  Name = ZINC40020089
REMARK  5 active torsions:
REMARK  status: ('A' for Active; 'I' for Inactive)
REMARK    1  A    between atoms: C_4  and  N_7
REMARK    2  A    between atoms: C_8  and  N_17
REMARK    3  A    between atoms: C_10  and  C_12
REMARK    4  A    between atoms: C_18  and  C_20
REMARK    5  A    between atoms: C_20  and  N_21
REMARK                            x       y       z     vdW  Elec       q    Type
REMARK                         _______ _______ _______ _____ _____    ______ ____
ROOT
ATOM      1  N   UNL     1       2.997  -2.588   1.343  0.00  0.00    -0.269 N 
ATOM      2  C   UNL     1       3.397  -3.748   1.899  0.00  0.00    +0.236 C 
ATOM      3  O   UNL     1       4.535  -4.138   1.737  0.00  0.00    -0.274 OA
ATOM      4  H   UNL     1       2.087  -2.276   1.472  0.00  0.00    +0.156 HD
ENDROOT
BRANCH   1   6
ATOM      5  N   UNL     1       3.623  -0.652  -0.037  0.00  0.00    -0.218 N 
ATOM      6  C   UNL     1       3.890  -1.835   0.581  0.00  0.00    +0.129 A 
ATOM      7  C   UNL     1       5.188  -2.149   0.318  0.00  0.00    +0.069 A 
ATOM      8  C   UNL     1       5.723  -1.132  -0.478  0.00  0.00    +0.068 A 
ATOM      9  N   UNL     1       4.789  -0.241  -0.696  0.00  0.00    -0.169 NA
BRANCH   5  13
ATOM     10  C   UNL     1      -0.017   1.379   0.010  0.00  0.00    +0.000 A 
ATOM     11  C   UNL     1       1.170   2.089   0.002  0.00  0.00    +0.002 A 
ATOM     12  C   UNL     1       2.377   1.419  -0.013  0.00  0.00    +0.028 A 
ATOM     13  C   UNL     1       2.400   0.031  -0.021  0.00  0.00    +0.067 A 
ATOM     14  C   UNL     1       1.207  -0.680  -0.013  0.00  0.00    +0.028 A 
ATOM     15  C   UNL     1       0.002  -0.004   0.002  0.00  0.00    +0.002 A 
ENDBRANCH   5  13
BRANCH   8  16
ATOM     16  C   UNL     1       7.134  -1.075  -1.002  0.00  0.00    +0.040 C 
ATOM     17  C   UNL     1       7.658  -2.502  -1.267  0.00  0.00    +0.010 C 
ATOM     18  C   UNL     1       9.150  -2.442  -0.853  0.00  0.00    +0.001 C 
ATOM     19  C   UNL     1       9.121  -1.525   0.395  0.00  0.00    +0.001 C 
ATOM     20  C   UNL     1       8.065  -0.454   0.055  0.00  0.00    +0.010 C 
ENDBRANCH   8  16
ENDBRANCH   1   6
BRANCH   2  21
ATOM     21  C   UNL     1       2.432  -4.561   2.723  0.00  0.00    +0.214 C 
BRANCH  21  22
ATOM     22  N   UNL     1       3.104  -5.767   3.213  0.00  0.00    -0.215 N 
ATOM     23  C   UNL     1       3.138  -6.942   2.546  0.00  0.00    +0.247 C 
ATOM     24  O   UNL     1       2.638  -7.191   1.471  0.00  0.00    -0.273 OA
ATOM     25  C   UNL     1       3.930  -7.875   3.425  0.00  0.00    +0.113 C 
ATOM     26  C   UNL     1       5.181  -8.388   2.699  0.00  0.00    +0.035 C 
ATOM     27  C   UNL     1       5.342  -9.843   3.212  0.00  0.00    +0.003 C 
ATOM     28  C   UNL     1       3.877 -10.333   3.325  0.00  0.00    +0.003 C 
ATOM     29  C   UNL     1       3.100  -9.096   3.829  0.00  0.00    +0.035 C 
ATOM     30  N   UNL     1       4.290  -7.065   4.590  0.00  0.00    -0.285 N 
ATOM     31  C   UNL     1       3.767  -5.841   4.375  0.00  0.00    +0.310 C 
ATOM     32  O   UNL     1       3.880  -4.911   5.148  0.00  0.00    -0.252 OA
ATOM     33  H   UNL     1       4.804  -7.350   5.362  0.00  0.00    +0.151 HD
ENDBRANCH  21  22
ENDBRANCH   2  21
TORSDOF 5
