REMARK  Name = ZINC45865978
REMARK  6 active torsions:
REMARK  status: ('A' for Active; 'I' for Inactive)
REMARK    1  A    between atoms: C_1  and  C_2
REMARK    2  A    between atoms: C_7  and  N_8
REMARK    3  A    between atoms: C_9  and  C_11
REMARK    4  A    between atoms: C_11  and  C_12
REMARK    5  A    between atoms: C_24  and  C_26
REMARK    6  A    between atoms: C_26  and  N_27
REMARK                            x       y       z     vdW  Elec       q    Type
REMARK                         _______ _______ _______ _____ _____    ______ ____
ROOT
ATOM      1  C   UNL     1      -0.354  -1.073   6.224  0.00  0.00    +0.176 C 
ATOM      2  C   UNL     1      -0.776  -0.599   7.591  0.00  0.00    +0.239 C 
ATOM      3  O   UNL     1      -1.955  -0.460   7.839  0.00  0.00    -0.273 OA
ATOM      4  N   UNL     1       0.140  -0.328   8.540  0.00  0.00    -0.282 N 
ATOM      5  C   UNL     1       1.503  -0.528   8.296  0.00  0.00    +0.055 A 
ATOM      6  C   UNL     1       2.461   0.012   9.139  0.00  0.00    +0.025 A 
ATOM      7  C   UNL     1       3.802  -0.201   8.883  0.00  0.00    +0.002 A 
ATOM      8  C   UNL     1       4.195  -0.952   7.790  0.00  0.00    +0.002 A 
ATOM      9  C   UNL     1       3.246  -1.493   6.941  0.00  0.00    +0.025 A 
ATOM     10  C   UNL     1       1.902  -1.281   7.190  0.00  0.00    +0.058 A 
ATOM     11  N   UNL     1       0.914  -1.809   6.340  0.00  0.00    -0.256 N 
ATOM     12  C   UNL     1       1.121  -2.951   5.656  0.00  0.00    +0.235 C 
ATOM     13  O   UNL     1       0.283  -3.350   4.875  0.00  0.00    -0.274 OA
ATOM     14  H   UNL     1      -0.149   0.009   9.402  0.00  0.00    +0.155 HD
ENDROOT
BRANCH   1  15
ATOM     15  C   UNL     1      -0.163   0.132   5.300  0.00  0.00    +0.128 C 
BRANCH  15  17
ATOM     16  N   UNL     1       0.351   0.544   2.916  0.00  0.00    -0.285 N 
ATOM     17  C   UNL     1       0.143  -0.348   3.905  0.00  0.00    +0.219 C 
ATOM     18  O   UNL     1       0.204  -1.537   3.672  0.00  0.00    -0.275 OA
ATOM     19  H   UNL     1       0.360   1.493   3.113  0.00  0.00    +0.155 HD
BRANCH  16  26
ATOM     20  C   UNL     1      -0.444   2.250   0.782  0.00  0.00    +0.045 C 
ATOM     21  C   UNL     1       0.180   0.900   0.534  0.00  0.00    -0.029 A 
ATOM     22  C   UNL     1       0.386   0.462  -0.760  0.00  0.00    +0.005 A 
ATOM     23  C   UNL     1       0.958  -0.776  -0.988  0.00  0.00    +0.000 A 
ATOM     24  C   UNL     1       1.326  -1.579   0.076  0.00  0.00    +0.002 A 
ATOM     25  C   UNL     1       1.123  -1.145   1.372  0.00  0.00    +0.023 A 
ATOM     26  C   UNL     1       0.553   0.100   1.605  0.00  0.00    +0.036 A 
ENDBRANCH  16  26
ENDBRANCH  15  17
ENDBRANCH   1  15
BRANCH  12  27
ATOM     27  C   UNL     1       2.392  -3.733   5.861  0.00  0.00    +0.181 C 
BRANCH  27  28
ATOM     28  N   UNL     1       2.209  -5.104   5.366  0.00  0.00    -0.289 NA
ATOM     29  C   UNL     1       3.349  -5.957   5.741  0.00  0.00    +0.090 C 
ATOM     30  C   UNL     1       2.950  -7.418   5.533  0.00  0.00    +0.051 C 
ATOM     31  C   UNL     1       2.372  -7.603   4.154  0.00  0.00    -0.042 A 
ATOM     32  C   UNL     1       2.282  -8.888   3.640  0.00  0.00    +0.004 A 
ATOM     33  C   UNL     1       1.756  -9.101   2.382  0.00  0.00    +0.000 A 
ATOM     34  C   UNL     1       1.314  -8.028   1.631  0.00  0.00    +0.000 A 
ATOM     35  C   UNL     1       1.404  -6.748   2.140  0.00  0.00    +0.005 A 
ATOM     36  C   UNL     1       1.936  -6.532   3.403  0.00  0.00    -0.030 A 
ATOM     37  C   UNL     1       2.023  -5.117   3.912  0.00  0.00    +0.120 C 
ENDBRANCH  27  28
ENDBRANCH  12  27
TORSDOF 5
