REMARK  Name = ZINC16610220
REMARK  10 active torsions:
REMARK  status: ('A' for Active; 'I' for Inactive)
REMARK    1  A    between atoms: C_1  and  C_2
REMARK    2  A    between atoms: C_3  and  C_27
REMARK    3  A    between atoms: C_4  and  C_11
REMARK    4  A    between atoms: N_9  and  C_10
REMARK    5  A    between atoms: C_14  and  N_17
REMARK    6  A    between atoms: N_20  and  C_21
REMARK    7  A    between atoms: C_27  and  O_29
REMARK    8  A    between atoms: O_29  and  C_30
REMARK    9  A    between atoms: C_30  and  C_31
REMARK   10  A    between atoms: C_30  and  C_32
REMARK                            x       y       z     vdW  Elec       q    Type
REMARK                         _______ _______ _______ _____ _____    ______ ____
ROOT
ATOM      1  C   UNL     1      -1.308   3.365   4.687  0.00  0.00    -0.022 A 
ATOM      2  C   UNL     1      -0.303   2.489   5.055  0.00  0.00    +0.007 A 
ATOM      3  C   UNL     1       0.273   2.583   6.307  0.00  0.00    +0.024 A 
ATOM      4  C   UNL     1      -0.166   3.552   7.200  0.00  0.00    +0.035 A 
ATOM      5  C   UNL     1      -1.179   4.427   6.829  0.00  0.00    +0.024 A 
ATOM      6  C   UNL     1      -1.747   4.331   5.574  0.00  0.00    +0.007 A 
ENDROOT
BRANCH   1  10
ATOM      7  C   UNL     1       0.281   4.267   0.323  0.00  0.00    +0.061 C 
ATOM      8  C   UNL     1      -0.558   3.476   1.294  0.00  0.00    +0.021 C 
ATOM      9  C   UNL     1      -1.100   4.098   2.364  0.00  0.00    +0.078 C 
ATOM     10  C   UNL     1      -1.930   3.263   3.318  0.00  0.00    +0.141 C 
ATOM     11  N   UNL     1      -2.084   1.835   2.994  0.00  0.00    -0.315 N 
ATOM     12  C   UNL     1      -1.485   1.361   1.884  0.00  0.00    +0.137 C 
ATOM     13  S   UNL     1      -1.655  -0.298   1.495  0.00  0.00    -0.018 S 
ATOM     14  N   UNL     1      -0.761   2.145   1.075  0.00  0.00    -0.289 N 
ATOM     15  C   UNL     1      -0.148   1.537  -0.109  0.00  0.00    +0.137 C 
ATOM     16  H   UNL     1      -2.603   1.249   3.567  0.00  0.00    +0.149 HD
BRANCH   9  17
ATOM     17  C   UNL     1      -0.894   5.478   2.589  0.00  0.00    +0.339 C 
ATOM     18  O   UNL     1      -0.224   6.129   1.810  0.00  0.00    -0.245 OA
BRANCH  17  19
ATOM     19  O   UNL     1      -1.442   6.075   3.669  0.00  0.00    -0.459 OA
BRANCH  19  20
ATOM     20  C   UNL     1      -1.194   7.472   3.834  0.00  0.00    +0.171 C 
ATOM     21  C   UNL     1      -2.289   8.272   3.126  0.00  0.00    +0.052 C 
ATOM     22  C   UNL     1      -1.193   7.818   5.324  0.00  0.00    +0.052 C 
ENDBRANCH  19  20
ENDBRANCH  17  19
ENDBRANCH   9  17
ENDBRANCH   1  10
BRANCH   4  23
ATOM     23  N   UNL     1       0.412   3.646   8.471  0.00  0.00    -0.269 N 
ATOM     24  C   UNL     1      -0.335   4.035   9.523  0.00  0.00    +0.308 C 
ATOM     25  O   UNL     1      -1.530   4.214   9.388  0.00  0.00    -0.252 OA
ATOM     26  N   UNL     1       0.243   4.227  10.726  0.00  0.00    -0.269 N 
ATOM     27  H   UNL     1       1.350   3.431   8.595  0.00  0.00    +0.156 HD
ATOM     28  H   UNL     1       1.206   4.158  10.817  0.00  0.00    +0.156 HD
BRANCH  26  29
ATOM     29  C   UNL     1      -0.547   4.525  11.842  0.00  0.00    +0.035 A 
ATOM     30  C   UNL     1      -0.053   5.350  12.844  0.00  0.00    +0.023 A 
ATOM     31  C   UNL     1      -0.837   5.647  13.941  0.00  0.00    +0.002 A 
ATOM     32  C   UNL     1      -2.108   5.114  14.049  0.00  0.00    +0.000 A 
ATOM     33  C   UNL     1      -2.601   4.287  13.056  0.00  0.00    +0.002 A 
ATOM     34  C   UNL     1      -1.824   3.991  11.953  0.00  0.00    +0.023 A 
ENDBRANCH  26  29
ENDBRANCH   4  23
TORSDOF 6
