REMARK  Name = ZINC13065032
REMARK  11 active torsions:
REMARK  status: ('A' for Active; 'I' for Inactive)
REMARK    1  A    between atoms: C_1  and  C_2
REMARK    2  A    between atoms: C_2  and  C_3
REMARK    3  A    between atoms: C_3  and  C_5
REMARK    4  A    between atoms: C_3  and  N_66
REMARK    5  A    between atoms: N_9  and  C_10
REMARK    6  A    between atoms: C_15  and  C_16
REMARK    7  A    between atoms: C_15  and  N_66
REMARK    8  A    between atoms: C_21  and  C_22
REMARK    9  A    between atoms: C_21  and  N_66
REMARK   10  A    between atoms: C_27  and  C_35
REMARK   11  A    between atoms: C_28  and  C_34
REMARK                            x       y       z     vdW  Elec       q    Type
REMARK                         _______ _______ _______ _____ _____    ______ ____
ROOT
ATOM      1  N   UNL     1      -1.136   1.628  -1.000  0.00  0.00    +0.392 N 
ATOM      2  H   UNL     1      -1.827   1.212  -0.364  0.00  0.00    -0.080 HD
ENDROOT
BRANCH   1   3
ATOM      3  C   UNL     1      -1.367   3.086  -1.074  0.00  0.00    +0.003 C 
BRANCH   3   4
ATOM      4  C   UNL     1      -0.513   3.702  -2.152  0.00  0.00    +0.138 A 
ATOM      5  N   UNL     1      -0.365   3.265  -3.379  0.00  0.00    -0.115 NA
ATOM      6  N   UNL     1       0.441   4.062  -3.991  0.00  0.00    -0.023 NA
ATOM      7  N   UNL     1       0.818   4.992  -3.183  0.00  0.00    -0.044 NA
ATOM      8  N   UNL     1       0.251   4.804  -2.039  0.00  0.00    -0.228 N 
BRANCH   8   9
ATOM      9  C   UNL     1       0.410   5.635  -0.843  0.00  0.00    +0.111 C 
ATOM     10  C   UNL     1       0.001   7.090  -1.151  0.00  0.00    +0.027 C 
ATOM     11  C   UNL     1       1.008   7.946  -0.343  0.00  0.00    +0.002 C 
ATOM     12  C   UNL     1       2.329   7.150  -0.488  0.00  0.00    +0.002 C 
ATOM     13  C   UNL     1       1.889   5.673  -0.421  0.00  0.00    +0.027 C 
ENDBRANCH   8   9
ENDBRANCH   3   4
BRANCH   3  15
ATOM     14  C   UNL     1      -3.705   2.830  -0.229  0.00  0.00    +0.002 C 
ATOM     15  C   UNL     1      -2.844   3.336  -1.389  0.00  0.00    -0.011 C 
ENDBRANCH   3  15
ENDBRANCH   1   3
BRANCH   1  16
ATOM     16  C   UNL     1       0.220   1.357  -0.478  0.00  0.00    -0.034 C 
BRANCH  16  17
ATOM     17  C   UNL     1       0.241   1.665   0.997  0.00  0.00    -0.027 A 
ATOM     18  C   UNL     1      -0.005   0.841   2.045  0.00  0.00    +0.009 A 
ATOM     19  C   UNL     1       0.074   1.347   3.329  0.00  0.00    +0.008 A 
ATOM     20  C   UNL     1       0.395   2.653   3.502  0.00  0.00    +0.045 A 
ATOM     21  S   UNL     1       0.604   3.208   1.819  0.00  0.00    -0.103 S 
ENDBRANCH  16  17
ENDBRANCH   1  16
BRANCH   1  22
ATOM     22  C   UNL     1      -1.292   1.023  -2.340  0.00  0.00    -0.036 C 
BRANCH  22  23
ATOM     23  C   UNL     1      -1.542  -0.454  -2.176  0.00  0.00    +0.001 A 
ATOM     24  C   UNL     1      -2.813  -0.924  -2.140  0.00  0.00    +0.017 A 
ATOM     25  C   UNL     1      -3.022  -2.365  -1.984  0.00  0.00    -0.001 A 
ATOM     26  C   UNL     1      -4.310  -2.909  -1.947  0.00  0.00    +0.010 A 
ATOM     27  C   UNL     1      -4.471  -4.257  -1.795  0.00  0.00    +0.004 A 
ATOM     28  C   UNL     1      -3.368  -5.092  -1.679  0.00  0.00    -0.046 A 
ATOM     29  C   UNL     1      -2.090  -4.578  -1.714  0.00  0.00    -0.024 A 
ATOM     30  C   UNL     1      -1.901  -3.208  -1.867  0.00  0.00    +0.052 A 
ATOM     31  N   UNL     1      -0.634  -2.667  -1.906  0.00  0.00    -0.322 N 
ATOM     32  H   UNL     1       0.137  -3.249  -1.825  0.00  0.00    +0.169 HD
ATOM     33  C   UNL     1      -0.452  -1.343  -2.054  0.00  0.00    +0.251 A 
ATOM     34  O   UNL     1       0.683  -0.899  -2.084  0.00  0.00    -0.268 OA
ATOM     35  C   UNL     1      -0.902  -5.496  -1.588  0.00  0.00    +0.046 C 
ATOM     36  C   UNL     1      -3.571  -6.576  -1.513  0.00  0.00    +0.044 C 
ENDBRANCH  22  23
ENDBRANCH   1  22
TORSDOF 8
