REMARK  Name = ZINC39523206
REMARK  4 active torsions:
REMARK  status: ('A' for Active; 'I' for Inactive)
REMARK    1  A    between atoms: C_4  and  O_7
REMARK    2  A    between atoms: O_7  and  S_8
REMARK    3  A    between atoms: S_8  and  C_11
REMARK    4  A    between atoms: N_23  and  O_24
REMARK                            x       y       z     vdW  Elec       q    Type
REMARK                         _______ _______ _______ _____ _____    ______ ____
ROOT
ATOM      1  C   UNL     1       3.008  -2.422   1.830  0.00  0.00    +0.173 C 
ATOM      2  C   UNL     1       1.538  -2.094   1.562  0.00  0.00    +0.030 C 
ATOM      3  C   UNL     1       0.668  -3.291   1.953  0.00  0.00    +0.004 C 
ATOM      4  C   UNL     1       0.860  -3.598   3.439  0.00  0.00    +0.025 C 
ATOM      5  C   UNL     1       2.330  -3.926   3.706  0.00  0.00    +0.052 C 
ATOM      6  C   UNL     1       3.199  -2.729   3.317  0.00  0.00    +0.054 C 
ATOM      7  C   UNL     1       2.739  -5.144   2.873  0.00  0.00    +0.025 C 
ATOM      8  C   UNL     1       1.883  -6.346   3.280  0.00  0.00    +0.006 C 
ATOM      9  C   UNL     1       2.057  -6.604   4.779  0.00  0.00    +0.055 C 
ATOM     10  C   UNL     1       1.667  -5.345   5.557  0.00  0.00    +0.261 C 
ATOM     11  N   UNL     1       2.515  -4.223   5.133  0.00  0.00    -0.151 NA
ATOM     12  F   UNL     1       0.326  -5.037   5.303  0.00  0.00    -0.226 F 
ENDROOT
BRANCH   1  13
ATOM     13  S   UNL     1       4.038  -1.003   1.368  0.00  0.00    +0.124 S 
ATOM     14  O   UNL     1       5.411  -1.369   1.386  0.00  0.00    -0.136 OA
ATOM     15  O   UNL     1       3.591   0.166   2.041  0.00  0.00    -0.136 OA
BRANCH  13  16
ATOM     16  O   UNL     1       3.722  -0.752  -0.099  0.00  0.00    -0.346 OA
BRANCH  16  20
ATOM     17  C   UNL     1       5.419  -3.491  -2.676  0.00  0.00    +0.000 A 
ATOM     18  C   UNL     1       4.152  -3.713  -2.168  0.00  0.00    +0.004 A 
ATOM     19  C   UNL     1       3.582  -2.798  -1.305  0.00  0.00    +0.048 A 
ATOM     20  C   UNL     1       4.281  -1.654  -0.948  0.00  0.00    +0.156 A 
ATOM     21  C   UNL     1       5.553  -1.434  -1.458  0.00  0.00    +0.048 A 
ATOM     22  C   UNL     1       6.118  -2.352  -2.321  0.00  0.00    +0.004 A 
ENDBRANCH  16  20
ENDBRANCH  13  16
ENDBRANCH   1  13
BRANCH  11  23
ATOM     23  O   UNL     1       3.922  -4.486   5.435  0.00  0.00    -0.309 OA
ATOM     24  H   UNL     1       4.093  -4.687   6.365  0.00  0.00    +0.237 HD
ENDBRANCH  11  23
TORSDOF 4
