REMARK  Name = ZINC36564180
REMARK  19 active torsions:
REMARK  status: ('A' for Active; 'I' for Inactive)
REMARK    1  A    between atoms: C_1  and  C_2
REMARK    2  A    between atoms: C_2  and  C_3
REMARK    3  A    between atoms: C_3  and  C_4
REMARK    4  A    between atoms: C_4  and  C_5
REMARK    5  A    between atoms: C_5  and  C_7
REMARK    6  A    between atoms: C_5  and  C_9
REMARK    7  A    between atoms: C_7  and  C_8
REMARK    8  A    between atoms: N_11  and  C_12
REMARK    9  A    between atoms: N_11  and  C_15
REMARK   10  A    between atoms: C_12  and  C_13
REMARK   11  A    between atoms: C_13  and  C_14
REMARK   12  A    between atoms: C_15  and  C_17
REMARK   13  A    between atoms: C_15  and  C_25
REMARK   14  A    between atoms: C_20  and  C_24
REMARK   15  A    between atoms: C_22  and  C_23
REMARK   16  A    between atoms: N_27  and  C_28
REMARK   17  A    between atoms: C_28  and  S_29
REMARK   18  A    between atoms: S_29  and  C_32
REMARK   19  A    between atoms: C_35  and  C_38
REMARK                            x       y       z     vdW  Elec       q    Type
REMARK                         _______ _______ _______ _____ _____    ______ ____
ROOT
ATOM      1  C   UNL     1       2.213  -5.641   2.879  0.00  0.00    +0.192 C 
ENDROOT
BRANCH   1   2
ATOM      2  C   UNL     1       3.434  -5.821   3.743  0.00  0.00    -0.015 A 
ATOM      3  C   UNL     1       3.338  -6.503   4.942  0.00  0.00    +0.006 A 
ATOM      4  C   UNL     1       4.458  -6.668   5.735  0.00  0.00    +0.004 A 
ATOM      5  C   UNL     1       5.675  -6.151   5.329  0.00  0.00    -0.050 A 
ATOM      6  C   UNL     1       5.771  -5.470   4.130  0.00  0.00    +0.007 A 
ATOM      7  C   UNL     1       4.651  -5.308   3.335  0.00  0.00    -0.045 A 
ATOM      8  C   UNL     1       4.757  -4.570   2.026  0.00  0.00    +0.044 C 
ATOM      9  C   UNL     1       6.896  -6.330   6.193  0.00  0.00    +0.044 C 
ENDBRANCH   1   2
BRANCH   1  10
ATOM     10  C   UNL     1       1.128  -6.580   3.340  0.00  0.00    +0.239 C 
ATOM     11  O   UNL     1       0.160  -6.147   3.929  0.00  0.00    -0.273 OA
ATOM     12  N   UNL     1       1.234  -7.902   3.099  0.00  0.00    -0.294 N 
ATOM     13  H   UNL     1       2.034  -8.255   2.679  0.00  0.00    +0.150 HD
BRANCH  12  14
ATOM     14  C   UNL     1       0.142  -8.804   3.470  0.00  0.00    +0.278 C 
BRANCH  14  15
ATOM     15  S   UNL     1      -0.938  -9.069   2.037  0.00  0.00    +0.013 S 
ATOM     16  O   UNL     1      -1.968  -9.992   2.364  0.00  0.00    -0.168 OA
ATOM     17  O   UNL     1      -1.248  -7.826   1.422  0.00  0.00    -0.168 OA
BRANCH  15  18
ATOM     18  C   UNL     1       0.067  -9.914   0.862  0.00  0.00    +0.090 A 
ATOM     19  C   UNL     1       0.815  -9.194  -0.052  0.00  0.00    +0.027 A 
ATOM     20  C   UNL     1       1.604  -9.857  -0.973  0.00  0.00    +0.005 A 
ATOM     21  C   UNL     1       1.645 -11.239  -0.981  0.00  0.00    -0.050 A 
ATOM     22  C   UNL     1       0.898 -11.958  -0.066  0.00  0.00    +0.005 A 
ATOM     23  C   UNL     1       0.113 -11.295   0.858  0.00  0.00    +0.027 A 
ATOM     24  C   UNL     1       2.505 -11.961  -1.986  0.00  0.00    +0.044 C 
ENDBRANCH  15  18
ENDBRANCH  14  15
ENDBRANCH  12  14
ENDBRANCH   1  10
BRANCH   1  27
ATOM     25  C   UNL     1       1.431  -3.742   4.191  0.00  0.00    +0.220 C 
ATOM     26  O   UNL     1       1.583  -4.409   5.193  0.00  0.00    -0.275 OA
ATOM     27  N   UNL     1       1.739  -4.258   2.985  0.00  0.00    -0.286 N 
BRANCH  25  28
ATOM     28  C   UNL     1       0.897  -2.337   4.295  0.00  0.00    +0.075 C 
BRANCH  28  29
ATOM     29  C   UNL     1      -0.625  -2.378   4.438  0.00  0.00    +0.009 C 
ATOM     30  C   UNL     1      -1.226  -1.087   3.879  0.00  0.00    +0.004 C 
ENDBRANCH  28  29
BRANCH  28  31
ATOM     31  C   UNL     1       1.506  -1.649   5.520  0.00  0.00    +0.013 C 
BRANCH  31  32
ATOM     32  C   UNL     1       1.018  -0.201   5.587  0.00  0.00    +0.000 C 
BRANCH  32  34
ATOM     33  C   UNL     1       1.223   1.966   6.813  0.00  0.00    +0.004 C 
ATOM     34  C   UNL     1       1.711   0.518   6.746  0.00  0.00    -0.003 C 
ENDBRANCH  32  34
ENDBRANCH  31  32
ENDBRANCH  28  31
ENDBRANCH  25  28
BRANCH  27  35
ATOM     35  C   UNL     1       1.599  -3.437   1.780  0.00  0.00    +0.108 C 
BRANCH  35  36
ATOM     36  C   UNL     1       0.167  -3.544   1.253  0.00  0.00    +0.016 C 
ATOM     37  C   UNL     1       0.035  -2.727  -0.034  0.00  0.00    +0.005 C 
ENDBRANCH  35  36
ENDBRANCH  27  35
ENDBRANCH   1  27
TORSDOF 13
