REMARK  Name = ZINC39684618
REMARK  11 active torsions:
REMARK  status: ('A' for Active; 'I' for Inactive)
REMARK    1  A    between atoms: C_1  and  C_2
REMARK    2  A    between atoms: C_2  and  N_3
REMARK    3  A    between atoms: C_4  and  C_10
REMARK    4  A    between atoms: C_6  and  C_8
REMARK    5  A    between atoms: C_14  and  C_23
REMARK    6  A    between atoms: N_25  and  C_26
REMARK    7  A    between atoms: C_26  and  C_28
REMARK    8  A    between atoms: C_26  and  C_29
REMARK    9  A    between atoms: C_29  and  C_30
REMARK   10  A    between atoms: C_29  and  C_31
REMARK   11  A    between atoms: C_29  and  C_32
REMARK                            x       y       z     vdW  Elec       q    Type
REMARK                         _______ _______ _______ _____ _____    ______ ____
ROOT
ATOM      1  C   UNL     1      -1.464  -0.633   2.833  0.00  0.00    +0.266 C 
ATOM      2  O   UNL     1      -2.104  -0.967   3.813  0.00  0.00    -0.268 OA
ATOM      3  N   UNL     1      -0.211  -0.159   2.977  0.00  0.00    -0.295 N 
ATOM      4  C   UNL     1       0.743   0.224   1.909  0.00  0.00    +0.121 C 
ATOM      5  C   UNL     1       1.441   1.494   2.446  0.00  0.00    +0.100 C 
ATOM      6  C   UNL     1       1.296   1.404   3.975  0.00  0.00    -0.004 C 
ATOM      7  C   UNL     1       0.523   0.104   4.238  0.00  0.00    +0.115 C 
ATOM      8  C   UNL     1       0.505   2.597   4.502  0.00  0.00    -0.010 C 
ATOM      9  C   UNL     1       0.424   2.516   6.029  0.00  0.00    -0.082 C 
ATOM     10  N   UNL     1       1.778   2.513   6.593  0.00  0.00    +0.379 N 
ATOM     11  C   UNL     1       2.502   1.314   6.155  0.00  0.00    -0.082 C 
ATOM     12  C   UNL     1       2.671   1.344   4.634  0.00  0.00    -0.010 C 
ATOM     13  H   UNL     1       2.273   3.336   6.281  0.00  0.00    -0.086 HD
ATOM     14  H   UNL     1       1.722   2.521   7.601  0.00  0.00    -0.086 HD
ENDROOT
BRANCH   1  16
ATOM     15  N   UNL     1      -1.971  -1.815   0.644  0.00  0.00    -0.258 N 
ATOM     16  C   UNL     1      -2.058  -0.747   1.493  0.00  0.00    +0.138 A 
ATOM     17  C   UNL     1      -2.820   0.206   0.837  0.00  0.00    +0.071 A 
ATOM     18  C   UNL     1      -3.148  -0.367  -0.395  0.00  0.00    +0.075 A 
ATOM     19  N   UNL     1      -2.609  -1.558  -0.440  0.00  0.00    -0.175 NA
ATOM     20  C   UNL     1      -3.972   0.276  -1.481  0.00  0.00    +0.069 C 
ATOM     21 BR   UNL     1      -3.310   1.918   1.473  0.00  0.00    -0.046 Br
BRANCH  15  23
ATOM     22  C   UNL     1       0.214  -2.906   0.524  0.00  0.00    +0.029 C 
ATOM     23  C   UNL     1      -1.254  -3.061   0.927  0.00  0.00    +0.141 C 
ENDBRANCH  15  23
ENDBRANCH   1  16
BRANCH   5  24
ATOM     24  C   UNL     1       0.756   2.730   1.924  0.00  0.00    +0.218 C 
ATOM     25  O   UNL     1      -0.443   2.729   1.744  0.00  0.00    -0.275 OA
ATOM     26  N   UNL     1       1.477   3.837   1.656  0.00  0.00    -0.312 N 
ATOM     27  H   UNL     1       2.444   3.817   1.731  0.00  0.00    +0.149 HD
BRANCH  26  28
ATOM     28  C   UNL     1       0.800   5.072   1.252  0.00  0.00    +0.075 C 
ATOM     29  C   UNL     1       0.468   5.007  -0.240  0.00  0.00    +0.028 C 
BRANCH  28  30
ATOM     30  C   UNL     1       1.717   6.267   1.519  0.00  0.00    -0.020 C 
ATOM     31  C   UNL     1       3.009   6.108   0.716  0.00  0.00    +0.012 C 
ATOM     32  C   UNL     1       1.009   7.557   1.097  0.00  0.00    +0.012 C 
ATOM     33  C   UNL     1       2.048   6.332   3.011  0.00  0.00    +0.012 C 
ENDBRANCH  28  30
ENDBRANCH  26  28
ENDBRANCH   5  24
TORSDOF 5
