REMARK  Name = ZINC65021934
REMARK  5 active torsions:
REMARK  status: ('A' for Active; 'I' for Inactive)
REMARK    1  A    between atoms: C_1  and  C_2
REMARK    2  A    between atoms: C_5  and  N_8
REMARK    3  A    between atoms: N_8  and  S_9
REMARK    4  A    between atoms: S_9  and  C_12
REMARK    5  A    between atoms: C_21  and  C_24
REMARK                            x       y       z     vdW  Elec       q    Type
REMARK                         _______ _______ _______ _____ _____    ______ ____
ROOT
ATOM      1  C   UNL     1       0.418  -4.600   2.663  0.00  0.00    +0.110 A 
ATOM      2  C   UNL     1       0.774  -3.410   3.271  0.00  0.00    +0.030 A 
ATOM      3  C   UNL     1       0.288  -3.107   4.529  0.00  0.00    +0.018 A 
ATOM      4  C   UNL     1      -0.551  -3.999   5.178  0.00  0.00    +0.030 A 
ATOM      5  C   UNL     1      -0.908  -5.204   4.575  0.00  0.00    +0.049 A 
ATOM      6  C   UNL     1      -0.421  -5.490   3.303  0.00  0.00    +0.053 A 
ATOM      7  N   UNL     1      -1.730  -6.130   5.211  0.00  0.00    -0.283 N 
ATOM      8  C   UNL     1      -2.028  -6.169   6.506  0.00  0.00    +0.240 C 
ATOM      9  O   UNL     1      -2.850  -6.976   6.884  0.00  0.00    -0.274 OA
ATOM     10  C   UNL     1      -1.393  -5.260   7.526  0.00  0.00    +0.223 C 
ATOM     11  S   UNL     1      -1.184  -3.614   6.781  0.00  0.00    -0.101 S 
ATOM     12  H   UNL     1      -2.126  -6.816   4.652  0.00  0.00    +0.155 HD
ENDROOT
BRANCH  10  13
ATOM     13  C   UNL     1      -0.051  -5.812   7.931  0.00  0.00    +0.238 C 
ATOM     14  O   UNL     1       0.607  -6.451   7.137  0.00  0.00    -0.274 OA
ATOM     15  N   UNL     1       0.420  -5.596   9.175  0.00  0.00    -0.300 N 
ATOM     16  C   UNL     1      -0.434  -4.931  10.133  0.00  0.00    +0.108 C 
ATOM     17  C   UNL     1      -0.226  -3.399  10.040  0.00  0.00    +0.019 C 
ATOM     18  C   UNL     1       1.090  -3.029  10.585  0.00  0.00    +0.002 C 
ATOM     19  C   UNL     1       2.274  -3.618   9.824  0.00  0.00    +0.002 C 
ATOM     20  C   UNL     1       2.556  -5.008  10.338  0.00  0.00    +0.019 C 
ATOM     21  C   UNL     1       1.784  -6.053   9.505  0.00  0.00    +0.108 C 
ENDBRANCH  10  13
BRANCH   1  22
ATOM     22  S   UNL     1       1.034  -4.981   1.056  0.00  0.00    +0.072 S 
ATOM     23  O   UNL     1       0.878  -6.382   0.883  0.00  0.00    -0.150 OA
ATOM     24  O   UNL     1       2.295  -4.335   0.942  0.00  0.00    -0.150 OA
BRANCH  22  25
ATOM     25  N   UNL     1       0.028  -4.253  -0.039  0.00  0.00    -0.216 N 
ATOM     26  H   UNL     1       0.375  -3.578  -0.643  0.00  0.00    +0.174 HD
BRANCH  25  31
ATOM     27  C   UNL     1      -5.449  -5.707  -0.261  0.00  0.00    +0.044 C 
ATOM     28  C   UNL     1      -3.993  -5.321  -0.202  0.00  0.00    -0.050 A 
ATOM     29  C   UNL     1      -3.633  -3.986  -0.212  0.00  0.00    +0.005 A 
ATOM     30  C   UNL     1      -2.300  -3.628  -0.158  0.00  0.00    +0.025 A 
ATOM     31  C   UNL     1      -1.321  -4.611  -0.093  0.00  0.00    +0.048 A 
ATOM     32  C   UNL     1      -1.686  -5.951  -0.084  0.00  0.00    +0.025 A 
ATOM     33  C   UNL     1      -3.021  -6.302  -0.132  0.00  0.00    +0.005 A 
ENDBRANCH  25  31
ENDBRANCH  22  25
ENDBRANCH   1  22
TORSDOF 4
