REMARK  Name = ZINC24774858
REMARK  6 active torsions:
REMARK  status: ('A' for Active; 'I' for Inactive)
REMARK    1  A    between atoms: C_1  and  C_2
REMARK    2  A    between atoms: C_7  and  N_8
REMARK    3  A    between atoms: C_9  and  C_24
REMARK    4  A    between atoms: C_12  and  S_13
REMARK    5  A    between atoms: S_13  and  C_14
REMARK    6  A    between atoms: C_17  and  N_21
REMARK                            x       y       z     vdW  Elec       q    Type
REMARK                         _______ _______ _______ _____ _____    ______ ____
ROOT
ATOM      1  N   UNL     1       3.598  -3.928  -0.348  0.00  0.00    -0.274 N 
ATOM      2  C   UNL     1       4.935  -3.649  -0.439  0.00  0.00    +0.135 A 
ATOM      3  N   UNL     1       5.069  -2.357  -0.333  0.00  0.00    -0.133 NA
ATOM      4  N   UNL     1       3.919  -1.803  -0.187  0.00  0.00    -0.122 NA
ATOM      5  C   UNL     1       2.978  -2.719  -0.193  0.00  0.00    +0.201 A 
ATOM      6  C   UNL     1       6.046  -4.650  -0.622  0.00  0.00    +0.088 C 
ENDROOT
BRANCH   1  13
ATOM      7  C   UNL     1       3.232  -5.359   2.084  0.00  0.00    +0.046 C 
ATOM      8  C   UNL     1       2.793  -5.921   0.757  0.00  0.00    -0.027 A 
ATOM      9  C   UNL     1       2.189  -7.163   0.697  0.00  0.00    +0.005 A 
ATOM     10  C   UNL     1       1.792  -7.682  -0.521  0.00  0.00    +0.000 A 
ATOM     11  C   UNL     1       1.991  -6.958  -1.682  0.00  0.00    +0.002 A 
ATOM     12  C   UNL     1       2.589  -5.714  -1.628  0.00  0.00    +0.026 A 
ATOM     13  C   UNL     1       2.990  -5.191  -0.406  0.00  0.00    +0.053 A 
ENDBRANCH   1  13
BRANCH   5  14
ATOM     14  S   UNL     1       1.246  -2.442  -0.024  0.00  0.00    -0.048 S 
BRANCH  14  15
ATOM     15  C   UNL     1       1.216  -0.681  -0.017  0.00  0.00    +0.034 A 
ATOM     16  C   UNL     1       1.030   0.008   1.175  0.00  0.00    +0.019 A 
ATOM     17  C   UNL     1       1.008   1.389   1.177  0.00  0.00    +0.034 A 
ATOM     18  C   UNL     1       1.170   2.087  -0.006  0.00  0.00    +0.128 A 
ATOM     19  C   UNL     1       1.356   1.405  -1.195  0.00  0.00    +0.053 A 
ATOM     20  C   UNL     1       1.379   0.024  -1.204  0.00  0.00    +0.057 A 
ATOM     21 CL   UNL     1       1.613  -0.831  -2.697  0.00  0.00    -0.082 Cl
BRANCH  18  22
ATOM     22  N   UNL     1       1.146   3.567   0.001  0.00  0.00    +0.056 N 
ATOM     23  O   UNL     1       1.289   4.183  -1.040  0.00  0.00    -0.126 OA
ATOM     24  O   UNL     1       0.982   4.169   1.047  0.00  0.00    -0.126 OA
ENDBRANCH  18  22
ENDBRANCH  14  15
ENDBRANCH   5  14
TORSDOF 4
