REMARK  Name = ZINC08876600
REMARK  4 active torsions:
REMARK  status: ('A' for Active; 'I' for Inactive)
REMARK    1  A    between atoms: C_1  and  C_2
REMARK    2  A    between atoms: C_4  and  C_37
REMARK    3  A    between atoms: C_22  and  C_29
REMARK    4  A    between atoms: C_29  and  C_31
REMARK                            x       y       z     vdW  Elec       q    Type
REMARK                         _______ _______ _______ _____ _____    ______ ____
ROOT
ATOM      1  C   UNL     1       2.395  11.111   2.720  0.00  0.00    +0.044 C 
ATOM      2  C   UNL     1       3.340  10.425   1.767  0.00  0.00    -0.050 A 
ATOM      3  C   UNL     1       4.567  10.993   1.479  0.00  0.00    +0.008 A 
ATOM      4  C   UNL     1       5.436  10.369   0.608  0.00  0.00    -0.029 A 
ATOM      5  C   UNL     1       5.083   9.161   0.011  0.00  0.00    +0.039 A 
ATOM      6  C   UNL     1       3.846   8.600   0.308  0.00  0.00    -0.026 A 
ATOM      7  C   UNL     1       2.982   9.224   1.179  0.00  0.00    +0.008 A 
ATOM      8  C   UNL     1       3.769   7.322  -0.484  0.00  0.00    +0.060 C 
ATOM      9  C   UNL     1       5.076   7.254  -1.231  0.00  0.00    +0.212 C 
ATOM     10  O   UNL     1       5.428   6.378  -1.993  0.00  0.00    -0.277 OA
ATOM     11  N   UNL     1       5.777   8.351  -0.890  0.00  0.00    -0.286 N 
ATOM     12  C   UNL     1       3.585   6.112   0.425  0.00  0.00    +0.085 C 
ATOM     13  C   UNL     1       4.747   5.162   0.341  0.00  0.00    -0.011 A 
ATOM     14  C   UNL     1       5.326   4.463  -0.694  0.00  0.00    +0.006 A 
ATOM     15  C   UNL     1       6.416   3.646  -0.453  0.00  0.00    +0.000 A 
ATOM     16  C   UNL     1       6.921   3.533   0.830  0.00  0.00    +0.002 A 
ATOM     17  C   UNL     1       6.343   4.231   1.870  0.00  0.00    +0.023 A 
ATOM     18  C   UNL     1       5.246   5.056   1.636  0.00  0.00    +0.038 A 
ATOM     19  N   UNL     1       4.500   5.852   2.508  0.00  0.00    -0.285 N 
ATOM     20  C   UNL     1       3.506   6.505   1.875  0.00  0.00    +0.228 C 
ATOM     21  O   UNL     1       2.702   7.262   2.377  0.00  0.00    -0.275 OA
ATOM     22  C   UNL     1       2.281   5.438  -0.038  0.00  0.00    +0.066 C 
ATOM     23  C   UNL     1       2.132   5.941  -1.497  0.00  0.00    -0.055 C 
ATOM     24  C   UNL     1       1.506   8.107  -0.814  0.00  0.00    -0.076 C 
ATOM     25  C   UNL     1       0.230   7.480  -1.408  0.00  0.00    -0.020 C 
ATOM     26  C   UNL     1       0.641   6.058  -1.836  0.00  0.00    -0.016 C 
ATOM     27  C   UNL     1       6.772  10.997   0.301  0.00  0.00    +0.045 C 
ATOM     28  H   UNL     1       6.662   8.555  -1.231  0.00  0.00    +0.155 HD
ATOM     29  H   UNL     1       4.677   5.926   3.459  0.00  0.00    +0.155 HD
ATOM     30  N   UNL     1       2.600   7.312  -1.389  0.00  0.00    +0.395 N 
ATOM     31  H   UNL     1       2.862   7.681  -2.311  0.00  0.00    -0.079 HD
ENDROOT
BRANCH  22  32
ATOM     32  C   UNL     1       2.413   3.937  -0.001  0.00  0.00    +0.166 C 
ATOM     33  O   UNL     1       2.752   3.333  -0.996  0.00  0.00    -0.292 OA
BRANCH  32  34
ATOM     34  C   UNL     1       2.130   3.204   1.244  0.00  0.00    +0.018 A 
ATOM     35  C   UNL     1       2.364   1.827   1.317  0.00  0.00    +0.011 A 
ATOM     36  C   UNL     1       2.095   1.147   2.486  0.00  0.00    +0.001 A 
ATOM     37  C   UNL     1       1.591   1.823   3.583  0.00  0.00    +0.000 A 
ATOM     38  C   UNL     1       1.362   3.186   3.521  0.00  0.00    +0.001 A 
ATOM     39  C   UNL     1       1.625   3.880   2.359  0.00  0.00    +0.011 A 
ENDBRANCH  32  34
ENDBRANCH  22  32
TORSDOF 2
