REMARK  Name = ZINC12908521
REMARK  10 active torsions:
REMARK  status: ('A' for Active; 'I' for Inactive)
REMARK    1  A    between atoms: C_1  and  C_2
REMARK    2  A    between atoms: C_3  and  C_32
REMARK    3  A    between atoms: C_4  and  C_31
REMARK    4  A    between atoms: C_5  and  S_10
REMARK    5  A    between atoms: C_6  and  C_9
REMARK    6  A    between atoms: C_7  and  C_8
REMARK    7  A    between atoms: S_10  and  N_13
REMARK    8  A    between atoms: C_19  and  C_21
REMARK    9  A    between atoms: C_21  and  N_22
REMARK   10  A    between atoms: C_23  and  C_25
REMARK                            x       y       z     vdW  Elec       q    Type
REMARK                         _______ _______ _______ _____ _____    ______ ____
ROOT
ATOM      1  N   UNL     1       0.364  -0.186   2.074  0.00  0.00    -0.174 NA
ATOM      2  C   UNL     1       1.635  -0.053   2.800  0.00  0.00    +0.128 C 
ATOM      3  C   UNL     1       1.450   0.987   3.917  0.00  0.00    +0.125 C 
ATOM      4  N   UNL     1       0.235   0.651   4.673  0.00  0.00    -0.298 N 
ATOM      5  C   UNL     1      -1.035   0.512   3.946  0.00  0.00    +0.125 C 
ATOM      6  C   UNL     1      -0.851  -0.523   2.829  0.00  0.00    +0.128 C 
ATOM      7  C   UNL     1       0.284   0.473   6.008  0.00  0.00    +0.233 C 
ATOM      8  O   UNL     1      -0.725   0.196   6.621  0.00  0.00    -0.274 OA
ENDROOT
BRANCH   1   9
ATOM      9  S   UNL     1       0.303   0.032   0.433  0.00  0.00    +0.061 S 
ATOM     10  O   UNL     1      -0.835  -0.683  -0.029  0.00  0.00    -0.153 OA
ATOM     11  O   UNL     1       1.612  -0.220  -0.059  0.00  0.00    -0.153 OA
BRANCH   9  16
ATOM     12  C   UNL     1      -0.815   5.879  -0.547  0.00  0.00    +0.044 C 
ATOM     13  C   UNL     1      -0.535   4.419  -0.302  0.00  0.00    -0.044 A 
ATOM     14  C   UNL     1      -1.571   3.562   0.022  0.00  0.00    -0.043 A 
ATOM     15  C   UNL     1      -1.315   2.222   0.247  0.00  0.00    -0.021 A 
ATOM     16  C   UNL     1      -0.023   1.739   0.147  0.00  0.00    +0.112 A 
ATOM     17  C   UNL     1       1.013   2.597  -0.172  0.00  0.00    -0.021 A 
ATOM     18  C   UNL     1       0.756   3.936  -0.402  0.00  0.00    -0.043 A 
ATOM     19  C   UNL     1       1.885   4.870  -0.755  0.00  0.00    +0.044 C 
ATOM     20  C   UNL     1       2.421   2.071  -0.275  0.00  0.00    +0.046 C 
ATOM     21  C   UNL     1      -2.443   1.289   0.600  0.00  0.00    +0.046 C 
ATOM     22  C   UNL     1      -2.978   4.089   0.130  0.00  0.00    +0.044 C 
ENDBRANCH   9  16
ENDBRANCH   1   9
BRANCH   7  23
ATOM     23  C   UNL     1       1.594   0.619   6.739  0.00  0.00    +0.200 C 
BRANCH  23  24
ATOM     24  N   UNL     1       1.384   0.379   8.169  0.00  0.00    -0.306 N 
ATOM     25  C   UNL     1       2.422   0.455   9.025  0.00  0.00    +0.217 C 
ATOM     26  O   UNL     1       3.531   0.723   8.611  0.00  0.00    -0.276 OA
ATOM     27  H   UNL     1       0.498   0.165   8.500  0.00  0.00    +0.149 HD
BRANCH  25  28
ATOM     28  C   UNL     1       2.206   0.208  10.496  0.00  0.00    +0.075 C 
ATOM     29  C   UNL     1       1.202   1.225  11.041  0.00  0.00    +0.013 C 
ATOM     30  C   UNL     1       0.983   0.975  12.535  0.00  0.00    +0.001 C 
ATOM     31  C   UNL     1       2.312   1.122  13.277  0.00  0.00    +0.000 C 
ATOM     32  C   UNL     1       3.317   0.105  12.731  0.00  0.00    +0.001 C 
ATOM     33  C   UNL     1       3.536   0.356  11.238  0.00  0.00    +0.013 C 
ENDBRANCH  25  28
ENDBRANCH  23  24
ENDBRANCH   7  23
TORSDOF 5
