REMARK  Name = ZINC21722172
REMARK  5 active torsions:
REMARK  status: ('A' for Active; 'I' for Inactive)
REMARK    1  A    between atoms: C_1  and  C_2
REMARK    2  A    between atoms: C_2  and  C_35
REMARK    3  A    between atoms: C_6  and  C_25
REMARK    4  A    between atoms: N_18  and  C_19
REMARK    5  A    between atoms: C_19  and  C_20
REMARK                            x       y       z     vdW  Elec       q    Type
REMARK                         _______ _______ _______ _____ _____    ______ ____
ROOT
ATOM      1  C   UNL     1       0.677   8.703  -2.936  0.00  0.00    +0.011 C 
ATOM      2  C   UNL     1       0.234   7.528  -3.809  0.00  0.00    -0.023 C 
ATOM      3  C   UNL     1      -1.184   7.106  -3.428  0.00  0.00    +0.058 C 
ATOM      4  C   UNL     1      -1.226   6.689  -1.968  0.00  0.00    +0.017 C 
ATOM      5  C   UNL     1      -0.160   6.104  -1.396  0.00  0.00    +0.037 C 
ATOM      6  C   UNL     1      -0.074   5.619   0.032  0.00  0.00    +0.148 C 
ATOM      7  N   UNL     1      -1.164   6.059   0.877  0.00  0.00    -0.242 N 
ATOM      8  C   UNL     1      -2.475   5.649   0.641  0.00  0.00    +0.060 A 
ATOM      9  C   UNL     1      -3.138   4.803   1.516  0.00  0.00    +0.025 A 
ATOM     10  C   UNL     1      -4.397   4.335   1.185  0.00  0.00    +0.002 A 
ATOM     11  C   UNL     1      -4.992   4.708  -0.007  0.00  0.00    +0.002 A 
ATOM     12  C   UNL     1      -4.341   5.569  -0.873  0.00  0.00    +0.025 A 
ATOM     13  C   UNL     1      -3.088   6.051  -0.535  0.00  0.00    +0.053 A 
ATOM     14  N   UNL     1      -2.398   6.953  -1.337  0.00  0.00    -0.316 N 
ATOM     15  C   UNL     1      -0.907   6.878   1.916  0.00  0.00    +0.308 C 
ATOM     16  O   UNL     1       0.232   7.242   2.136  0.00  0.00    -0.252 OA
ATOM     17  N   UNL     1      -1.913   7.295   2.710  0.00  0.00    -0.292 N 
ATOM     18  C   UNL     1       1.024   5.897  -2.142  0.00  0.00    +0.163 C 
ATOM     19  O   UNL     1       1.968   5.352  -1.604  0.00  0.00    -0.292 OA
ATOM     20  C   UNL     1       1.157   6.327  -3.572  0.00  0.00    +0.086 C 
ATOM     21  C   UNL     1       0.277   7.933  -5.284  0.00  0.00    +0.011 C 
ATOM     22  H   UNL     1      -2.869   7.941  -1.443  0.00  0.00    +0.152 HD
ATOM     23  H   UNL     1      -2.943   6.966   2.510  0.00  0.00    +0.151 HD
ENDROOT
BRANCH   6  24
ATOM     24  C   UNL     1      -0.054   4.112   0.024  0.00  0.00    -0.022 A 
ATOM     25  C   UNL     1      -1.143   3.409  -0.456  0.00  0.00    +0.008 A 
ATOM     26  C   UNL     1      -1.125   2.027  -0.464  0.00  0.00    +0.038 A 
ATOM     27  C   UNL     1      -0.016   1.347   0.009  0.00  0.00    +0.123 A 
ATOM     28  C   UNL     1       1.072   2.052   0.495  0.00  0.00    +0.038 A 
ATOM     29  C   UNL     1       1.054   3.434   0.496  0.00  0.00    +0.008 A 
ATOM     30  F   UNL     1       0.002  -0.004   0.003  0.00  0.00    -0.205 F 
ENDBRANCH   6  24
BRANCH  17  31
ATOM     31  C   UNL     1      -1.634   8.186   3.839  0.00  0.00    +0.180 C 
BRANCH  31  32
ATOM     32  C   UNL     1      -2.919   8.500   4.561  0.00  0.00    +0.122 A 
ATOM     33  C   UNL     1      -3.441   7.794   5.580  0.00  0.00    +0.046 A 
ATOM     34  C   UNL     1      -4.643   8.440   5.952  0.00  0.00    +0.041 A 
ATOM     35  C   UNL     1      -4.787   9.497   5.133  0.00  0.00    +0.195 A 
ATOM     36  O   UNL     1      -3.740   9.528   4.292  0.00  0.00    -0.466 OA
ENDBRANCH  31  32
ENDBRANCH  17  31
TORSDOF 3
