REMARK  Name = ZINC03529820
REMARK  7 active torsions:
REMARK  status: ('A' for Active; 'I' for Inactive)
REMARK    1  A    between atoms: C_1  and  O_2
REMARK    2  A    between atoms: O_2  and  C_3
REMARK    3  A    between atoms: C_6  and  C_9
REMARK    4  A    between atoms: C_14  and  C_26
REMARK    5  A    between atoms: N_16  and  C_19
REMARK    6  A    between atoms: C_29  and  O_32
REMARK    7  A    between atoms: O_32  and  C_33
REMARK                            x       y       z     vdW  Elec       q    Type
REMARK                         _______ _______ _______ _____ _____    ______ ____
ROOT
ATOM      1  C   UNL     1      -1.965  -1.069  -4.219  0.00  0.00    +0.141 C 
ATOM      2  C   UNL     1      -1.905  -1.030  -2.718  0.00  0.00    +0.075 C 
ATOM      3  C   UNL     1      -2.336   0.060  -2.023  0.00  0.00    +0.101 C 
ATOM      4  N   UNL     1      -2.282   0.039  -0.648  0.00  0.00    -0.310 N 
ATOM      5  C   UNL     1      -1.233  -0.760  -0.001  0.00  0.00    +0.198 C 
ATOM      6  N   UNL     1      -1.114  -2.044  -0.701  0.00  0.00    -0.244 N 
ATOM      7  C   UNL     1      -1.381  -2.131  -2.016  0.00  0.00    +0.254 C 
ATOM      8  O   UNL     1      -1.167  -3.176  -2.606  0.00  0.00    -0.270 OA
ATOM      9  N   UNL     1      -2.821   1.166  -2.675  0.00  0.00    -0.285 N 
ATOM     10  C   UNL     1      -2.892   1.199  -4.015  0.00  0.00    +0.136 C 
ATOM     11  S   UNL     1      -3.501   2.604  -4.780  0.00  0.00    -0.019 S 
ATOM     12  N   UNL     1      -2.503   0.165  -4.771  0.00  0.00    -0.315 N 
ATOM     13  H   UNL     1      -2.921   0.541  -0.119  0.00  0.00    +0.149 HD
ATOM     14  H   UNL     1      -3.115   1.934  -2.160  0.00  0.00    +0.155 HD
ATOM     15  H   UNL     1      -2.582   0.243  -5.734  0.00  0.00    +0.149 HD
ENDROOT
BRANCH   6  16
ATOM     16  C   UNL     1      -0.720  -3.185   0.005  0.00  0.00    +0.039 A 
ATOM     17  C   UNL     1       0.403  -3.897  -0.395  0.00  0.00    +0.025 A 
ATOM     18  C   UNL     1       0.794  -5.020   0.308  0.00  0.00    +0.022 A 
ATOM     19  C   UNL     1       0.060  -5.443   1.402  0.00  0.00    +0.041 A 
ATOM     20  C   UNL     1      -1.063  -4.739   1.800  0.00  0.00    +0.022 A 
ATOM     21  C   UNL     1      -1.454  -3.612   1.104  0.00  0.00    +0.025 A 
ATOM     22 CL   UNL     1       0.550  -6.859   2.279  0.00  0.00    -0.084 Cl
ENDBRANCH   6  16
BRANCH   1  26
ATOM     23  C   UNL     1      -4.447  -4.331  -5.427  0.00  0.00    +0.120 A 
ATOM     24  C   UNL     1      -3.066  -4.463  -5.450  0.00  0.00    +0.046 A 
ATOM     25  C   UNL     1      -2.266  -3.407  -5.059  0.00  0.00    +0.009 A 
ATOM     26  C   UNL     1      -2.840  -2.219  -4.645  0.00  0.00    -0.022 A 
ATOM     27  C   UNL     1      -4.216  -2.087  -4.616  0.00  0.00    +0.009 A 
ATOM     28  C   UNL     1      -5.021  -3.138  -5.011  0.00  0.00    +0.046 A 
BRANCH  23  30
ATOM     29  C   UNL     1      -6.650  -5.162  -5.761  0.00  0.00    +0.277 C 
ATOM     30  O   UNL     1      -5.237  -5.369  -5.811  0.00  0.00    -0.495 OA
ENDBRANCH  23  30
ENDBRANCH   1  26
BRANCH   5  31
ATOM     31  C   UNL     1       0.079  -0.024  -0.073  0.00  0.00    -0.009 A 
ATOM     32  C   UNL     1       0.095   1.359  -0.084  0.00  0.00    +0.010 A 
ATOM     33  C   UNL     1       1.297   2.037  -0.149  0.00  0.00    +0.046 A 
ATOM     34  C   UNL     1       2.489   1.329  -0.203  0.00  0.00    +0.120 A 
ATOM     35  C   UNL     1       2.471  -0.058  -0.191  0.00  0.00    +0.046 A 
ATOM     36  C   UNL     1       1.266  -0.731  -0.126  0.00  0.00    +0.010 A 
BRANCH  34  37
ATOM     37  O   UNL     1       3.672   1.994  -0.268  0.00  0.00    -0.495 OA
ATOM     38  C   UNL     1       3.615   3.422  -0.277  0.00  0.00    +0.277 C 
ENDBRANCH  34  37
ENDBRANCH   5  31
TORSDOF 5
