REMARK  Name = ZINC03312831
REMARK  12 active torsions:
REMARK  status: ('A' for Active; 'I' for Inactive)
REMARK    1  A    between atoms: C_1  and  C_2
REMARK    2  A    between atoms: C_2  and  N_3
REMARK    3  A    between atoms: C_7  and  C_8
REMARK    4  A    between atoms: C_17  and  C_18
REMARK    5  A    between atoms: C_17  and  C_20
REMARK    6  A    between atoms: C_20  and  C_22
REMARK    7  A    between atoms: C_23  and  C_34
REMARK    8  A    between atoms: C_24  and  C_29
REMARK    9  A    between atoms: C_25  and  C_28
REMARK   10  A    between atoms: C_29  and  O_31
REMARK   11  A    between atoms: O_31  and  C_32
REMARK   12  A    between atoms: C_32  and  C_33
REMARK                            x       y       z     vdW  Elec       q    Type
REMARK                         _______ _______ _______ _____ _____    ______ ____
ROOT
ATOM      1  N   UNL     1       2.065   5.887  -0.166  0.00  0.00    -0.301 N 
ATOM      2  C   UNL     1       2.103   7.209  -0.231  0.00  0.00    +0.266 A 
ATOM      3  O   UNL     1       3.078   7.811  -0.640  0.00  0.00    -0.266 OA
ATOM      4  C   UNL     1       0.885   7.905   0.231  0.00  0.00    +0.079 A 
ATOM      5  C   UNL     1       0.622   9.236   0.290  0.00  0.00    +0.028 C 
ATOM      6  S   UNL     1      -0.149   6.523   0.688  0.00  0.00    -0.065 S 
ATOM      7  C   UNL     1       0.950   5.241   0.293  0.00  0.00    +0.105 A 
ATOM      8  C   UNL     1       0.746   3.863   0.420  0.00  0.00    +0.131 C 
ENDROOT
BRANCH   5   9
ATOM      9  C   UNL     1      -0.728   9.703   0.632  0.00  0.00    -0.024 A 
ATOM     10  C   UNL     1      -1.830   8.857   0.463  0.00  0.00    +0.009 A 
ATOM     11  C   UNL     1      -3.093   9.301   0.791  0.00  0.00    +0.020 A 
ATOM     12  C   UNL     1      -3.275  10.586   1.276  0.00  0.00    +0.041 A 
ATOM     13  C   UNL     1      -2.190  11.431   1.442  0.00  0.00    +0.020 A 
ATOM     14  C   UNL     1      -0.920  11.000   1.124  0.00  0.00    +0.009 A 
ATOM     15 CL   UNL     1      -4.870  11.139   1.679  0.00  0.00    -0.084 Cl
ENDBRANCH   5   9
BRANCH   1  17
ATOM     16  C   UNL     1       3.190   4.929  -2.114  0.00  0.00    +0.027 C 
ATOM     17  C   UNL     1       3.228   5.108  -0.595  0.00  0.00    +0.122 C 
ENDBRANCH   1  17
BRANCH   8  18
ATOM     18  C   UNL     1      -0.431   3.371   1.071  0.00  0.00    +0.106 C 
ATOM     19  N   UNL     1      -1.364   2.980   1.588  0.00  0.00    -0.191 NA
ENDBRANCH   8  18
BRANCH   8  20
ATOM     20  C   UNL     1       1.734   2.925  -0.111  0.00  0.00    +0.222 C 
ATOM     21  O   UNL     1       1.809   2.735  -1.313  0.00  0.00    -0.284 OA
BRANCH  20  22
ATOM     22  C   UNL     1       2.637   2.212   0.804  0.00  0.00    +0.092 A 
ATOM     23  C   UNL     1       3.598   1.316   0.439  0.00  0.00    -0.008 A 
ATOM     24  C   UNL     1       4.226   0.877   1.628  0.00  0.00    +0.083 A 
ATOM     25  C   UNL     1       3.611   1.533   2.677  0.00  0.00    +0.028 A 
ATOM     26  N   UNL     1       2.656   2.334   2.175  0.00  0.00    -0.355 N 
ATOM     27  H   UNL     1       2.071   2.906   2.696  0.00  0.00    +0.166 HD
ATOM     28  C   UNL     1       3.952   1.377   4.137  0.00  0.00    +0.064 C 
ATOM     29  C   UNL     1       3.928   0.878  -0.964  0.00  0.00    +0.047 C 
BRANCH  24  30
ATOM     30  C   UNL     1       5.326  -0.097   1.728  0.00  0.00    +0.341 C 
ATOM     31  O   UNL     1       5.080  -1.281   1.849  0.00  0.00    -0.245 OA
BRANCH  30  32
ATOM     32  O   UNL     1       6.605   0.326   1.685  0.00  0.00    -0.461 OA
BRANCH  32  33
ATOM     33  C   UNL     1       7.638  -0.690   1.790  0.00  0.00    +0.229 C 
ATOM     34  C   UNL     1       9.014  -0.025   1.722  0.00  0.00    +0.048 C 
ENDBRANCH  32  33
ENDBRANCH  30  32
ENDBRANCH  24  30
ENDBRANCH  20  22
ENDBRANCH   8  20
TORSDOF 8
