REMARK  Name = ZINC14466990
REMARK  2 active torsions:
REMARK  status: ('A' for Active; 'I' for Inactive)
REMARK    1  A    between atoms: C_15  and  C_18
REMARK    2  A    between atoms: C_23  and  O_24
REMARK                            x       y       z     vdW  Elec       q    Type
REMARK                         _______ _______ _______ _____ _____    ______ ____
ROOT
ATOM      1  C   UNL     1       5.094   0.577   0.589  0.00  0.00    +0.040 A 
ATOM      2  C   UNL     1       4.664   1.618  -0.209  0.00  0.00    +0.026 A 
ATOM      3  C   UNL     1       3.961   2.678   0.348  0.00  0.00    +0.032 A 
ATOM      4  C   UNL     1       3.687   2.704   1.707  0.00  0.00    -0.017 A 
ATOM      5  C   UNL     1       4.123   1.652   2.501  0.00  0.00    +0.044 A 
ATOM      6  C   UNL     1       4.821   0.597   1.946  0.00  0.00    +0.124 A 
ATOM      7  F   UNL     1       5.240  -0.420   2.732  0.00  0.00    -0.205 F 
ATOM      8  C   UNL     1       2.939   3.828   2.351  0.00  0.00    +0.049 C 
ATOM      9  C   UNL     1       1.523   3.428   2.689  0.00  0.00    -0.023 C 
ATOM     10  C   UNL     1       0.708   4.446   2.508  0.00  0.00    -0.030 C 
ATOM     11  C   UNL     1       1.476   5.663   2.028  0.00  0.00    +0.033 C 
ATOM     12  C   UNL     1       2.777   5.053   1.427  0.00  0.00    +0.029 C 
ATOM     13  C   UNL     1       2.447   4.590   0.005  0.00  0.00    +0.109 C 
ATOM     14  N   UNL     1       3.529   3.724  -0.477  0.00  0.00    -0.336 N 
ATOM     15  H   UNL     1       3.936   3.873  -1.345  0.00  0.00    +0.147 HD
ENDROOT
BRANCH  13  16
ATOM     16  C   UNL     1       1.151   3.821   0.012  0.00  0.00    +0.017 A 
ATOM     17  C   UNL     1       1.159   2.454   0.221  0.00  0.00    +0.029 A 
ATOM     18  C   UNL     1      -0.030   1.748   0.229  0.00  0.00    +0.043 A 
ATOM     19  C   UNL     1      -1.229   2.406   0.021  0.00  0.00    +0.043 A 
ATOM     20  C   UNL     1      -1.242   3.773  -0.183  0.00  0.00    +0.084 A 
ATOM     21  C   UNL     1      -0.049   4.483  -0.191  0.00  0.00    +0.140 A 
ATOM     22 CL   UNL     1      -2.748   4.599  -0.436  0.00  0.00    -0.080 Cl
ATOM     23 CL   UNL     1      -0.017   0.032   0.492  0.00  0.00    -0.083 Cl
BRANCH  21  24
ATOM     24  O   UNL     1      -0.059   5.827  -0.396  0.00  0.00    -0.505 OA
ATOM     25  H   UNL     1       0.012   6.083  -1.326  0.00  0.00    +0.292 HD
ENDBRANCH  21  24
ENDBRANCH  13  16
TORSDOF 2
