REMARK  Name = ZINC59015560
REMARK  6 active torsions:
REMARK  status: ('A' for Active; 'I' for Inactive)
REMARK    1  A    between atoms: C_3  and  N_9
REMARK    2  A    between atoms: C_10  and  C_12
REMARK    3  A    between atoms: C_12  and  S_13
REMARK    4  A    between atoms: S_13  and  C_14
REMARK    5  A    between atoms: N_19  and  N_20
REMARK    6  A    between atoms: C_21  and  C_22
REMARK                            x       y       z     vdW  Elec       q    Type
REMARK                         _______ _______ _______ _____ _____    ______ ____
ROOT
ATOM      1  C   UNL     1       6.098   6.755  -0.483  0.00  0.00    +0.211 A 
ATOM      2  N   UNL     1       6.337   8.067  -0.583  0.00  0.00    -0.186 NA
ATOM      3  C   UNL     1       7.634   8.276  -0.667  0.00  0.00    +0.232 A 
ATOM      4  N   UNL     1       8.253   7.078  -0.621  0.00  0.00    -0.245 N 
ATOM      5  N   UNL     1       7.242   6.112  -0.496  0.00  0.00    -0.144 NA
ATOM      6  N   UNL     1       8.253   9.508  -0.783  0.00  0.00    -0.205 N 
ATOM      7  H   UNL     1       9.220   9.561  -0.840  0.00  0.00    +0.177 HD
ATOM      8  H   UNL     1       9.209   6.916  -0.662  0.00  0.00    +0.192 HD
ENDROOT
BRANCH   6   9
ATOM      9  N   UNL     1       7.483  10.678  -0.819  0.00  0.00    -0.188 NA
ATOM     10  C   UNL     1       8.064  11.834  -0.928  0.00  0.00    +0.138 C 
BRANCH  10  11
ATOM     11  C   UNL     1       7.254  13.065  -0.966  0.00  0.00    -0.005 A 
ATOM     12  C   UNL     1       5.862  12.992  -0.879  0.00  0.00    +0.010 A 
ATOM     13  C   UNL     1       5.111  14.148  -0.914  0.00  0.00    +0.016 A 
ATOM     14  C   UNL     1       5.733  15.379  -1.035  0.00  0.00    +0.018 A 
ATOM     15  C   UNL     1       7.113  15.458  -1.122  0.00  0.00    +0.016 A 
ATOM     16  C   UNL     1       7.877  14.311  -1.082  0.00  0.00    +0.010 A 
ATOM     17 BR   UNL     1       4.695  16.959  -1.084  0.00  0.00    -0.050 Br
ENDBRANCH  10  11
ENDBRANCH   6   9
BRANCH   1  18
ATOM     18  S   UNL     1       4.507   6.011  -0.346  0.00  0.00    -0.075 S 
BRANCH  18  19
ATOM     19  C   UNL     1       4.861   4.235  -0.238  0.00  0.00    +0.173 C 
BRANCH  19  21
ATOM     20  N   UNL     1       3.584   2.127  -0.021  0.00  0.00    -0.284 N 
ATOM     21  C   UNL     1       3.567   3.472  -0.116  0.00  0.00    +0.228 C 
ATOM     22  O   UNL     1       2.510   4.067  -0.103  0.00  0.00    -0.275 OA
ATOM     23  H   UNL     1       4.429   1.657   0.049  0.00  0.00    +0.155 HD
BRANCH  20  26
ATOM     24  C   UNL     1       0.065   1.242  -0.621  0.00  0.00    +0.003 A 
ATOM     25  C   UNL     1       1.250   1.952  -0.618  0.00  0.00    +0.025 A 
ATOM     26  C   UNL     1       2.382   1.410  -0.024  0.00  0.00    +0.053 A 
ATOM     27  C   UNL     1       2.319   0.154   0.567  0.00  0.00    +0.080 A 
ATOM     28  C   UNL     1       1.129  -0.551   0.562  0.00  0.00    +0.061 A 
ATOM     29  C   UNL     1       0.004  -0.007  -0.032  0.00  0.00    +0.021 A 
ATOM     30 CL   UNL     1       1.048  -2.120   1.300  0.00  0.00    -0.082 Cl
ATOM     31 CL   UNL     1       3.731  -0.528   1.311  0.00  0.00    -0.080 Cl
ENDBRANCH  20  26
ENDBRANCH  19  21
ENDBRANCH  18  19
ENDBRANCH   1  18
TORSDOF 6
