REMARK  Name = ZINC00888668
REMARK  11 active torsions:
REMARK  status: ('A' for Active; 'I' for Inactive)
REMARK    1  A    between atoms: C_1  and  C_2
REMARK    2  A    between atoms: C_5  and  C_7
REMARK    3  A    between atoms: N_10  and  C_12
REMARK    4  A    between atoms: C_12  and  C_13
REMARK    5  A    between atoms: N_15  and  C_16
REMARK    6  A    between atoms: N_15  and  C_24
REMARK    7  A    between atoms: C_16  and  C_17
REMARK    8  A    between atoms: C_24  and  C_26
REMARK    9  A    between atoms: C_24  and  C_31
REMARK   10  A    between atoms: N_33  and  C_34
REMARK   11  A    between atoms: C_34  and  C_35
REMARK                            x       y       z     vdW  Elec       q    Type
REMARK                         _______ _______ _______ _____ _____    ______ ____
ROOT
ATOM      1  C   UNL     1       5.825  -5.801  -1.205  0.00  0.00    +0.240 C 
ATOM      2  O   UNL     1       4.845  -5.361  -1.767  0.00  0.00    -0.273 OA
ATOM      3  N   UNL     1       7.042  -5.665  -1.768  0.00  0.00    -0.277 N 
ENDROOT
BRANCH   1   4
ATOM      4  C   UNL     1       5.682  -6.499   0.123  0.00  0.00    +0.264 C 
BRANCH   4   8
ATOM      5  C   UNL     1       2.487  -5.811   1.454  0.00  0.00    +0.239 A 
ATOM      6  N   UNL     1       2.268  -6.970   0.813  0.00  0.00    -0.105 NA
ATOM      7  N   UNL     1       3.386  -7.327   0.277  0.00  0.00    -0.045 NA
ATOM      8  N   UNL     1       4.283  -6.447   0.554  0.00  0.00    -0.154 N 
ATOM      9  N   UNL     1       3.758  -5.510   1.266  0.00  0.00    -0.127 NA
BRANCH   5  14
ATOM     10  C   UNL     1       0.450  -2.166   4.242  0.00  0.00    +0.086 C 
ATOM     11  C   UNL     1       0.600  -3.431   3.436  0.00  0.00    +0.103 A 
ATOM     12  C   UNL     1      -0.379  -4.322   3.183  0.00  0.00    +0.045 A 
ATOM     13  C   UNL     1       0.188  -5.347   2.401  0.00  0.00    +0.053 A 
ATOM     14  C   UNL     1       1.495  -5.022   2.217  0.00  0.00    +0.175 A 
ATOM     15  O   UNL     1       1.729  -3.854   2.846  0.00  0.00    -0.457 OA
ENDBRANCH   5  14
ENDBRANCH   4   8
ENDBRANCH   1   4
BRANCH   3  16
ATOM     16  C   UNL     1       8.223  -6.219  -1.101  0.00  0.00    +0.145 C 
BRANCH  16  17
ATOM     17  C   UNL     1       9.197  -5.109  -0.799  0.00  0.00    -0.012 A 
ATOM     18  C   UNL     1      10.250  -4.860  -1.658  0.00  0.00    +0.006 A 
ATOM     19  C   UNL     1      11.143  -3.842  -1.381  0.00  0.00    +0.000 A 
ATOM     20  C   UNL     1      10.983  -3.072  -0.244  0.00  0.00    +0.001 A 
ATOM     21  C   UNL     1       9.930  -3.319   0.616  0.00  0.00    +0.020 A 
ATOM     22  C   UNL     1       9.032  -4.335   0.336  0.00  0.00    +0.046 A 
ATOM     23 CL   UNL     1       7.705  -4.642   1.412  0.00  0.00    -0.083 Cl
ENDBRANCH  16  17
ENDBRANCH   3  16
BRANCH   3  24
ATOM     24  C   UNL     1       7.184  -4.962  -3.045  0.00  0.00    +0.228 C 
BRANCH  24  25
ATOM     25  C   UNL     1       7.912  -5.846  -4.026  0.00  0.00    +0.134 A 
ATOM     26  C   UNL     1       7.668  -5.923  -5.346  0.00  0.00    +0.047 A 
ATOM     27  C   UNL     1       8.575  -6.869  -5.876  0.00  0.00    +0.041 A 
ATOM     28  C   UNL     1       9.320  -7.312  -4.848  0.00  0.00    +0.195 A 
ATOM     29  O   UNL     1       8.918  -6.685  -3.731  0.00  0.00    -0.465 OA
ENDBRANCH  24  25
BRANCH  24  30
ATOM     30  C   UNL     1       7.968  -3.692  -2.836  0.00  0.00    +0.241 C 
ATOM     31  O   UNL     1       8.087  -3.230  -1.721  0.00  0.00    -0.273 OA
ATOM     32  N   UNL     1       8.536  -3.070  -3.888  0.00  0.00    -0.311 N 
ATOM     33  H   UNL     1       8.441  -3.440  -4.780  0.00  0.00    +0.149 HD
BRANCH  32  34
ATOM     34  C   UNL     1       9.298  -1.835  -3.685  0.00  0.00    +0.135 C 
BRANCH  34  35
ATOM     35  C   UNL     1       9.833  -1.339  -5.029  0.00  0.00    +0.135 C 
ATOM     36  C   UNL     1      10.737  -0.107  -4.811  0.00  0.00    +0.035 C 
ATOM     37  C   UNL     1      10.357   0.798  -6.015  0.00  0.00    +0.031 C 
ATOM     38  C   UNL     1       8.852   0.467  -6.169  0.00  0.00    +0.160 C 
ATOM     39  O   UNL     1       8.743  -0.935  -5.867  0.00  0.00    -0.375 OA
ENDBRANCH  34  35
ENDBRANCH  32  34
ENDBRANCH  24  30
ENDBRANCH   3  24
TORSDOF 10
