REMARK  Name = ZINC45727641
REMARK  13 active torsions:
REMARK  status: ('A' for Active; 'I' for Inactive)
REMARK    1  A    between atoms: C_1  and  C_2
REMARK    2  A    between atoms: C_3  and  C_33
REMARK    3  A    between atoms: N_4  and  C_28
REMARK    4  A    between atoms: C_5  and  N_9
REMARK    5  A    between atoms: C_6  and  C_7
REMARK    6  A    between atoms: C_10  and  C_12
REMARK    7  A    between atoms: C_12  and  N_13
REMARK    8  A    between atoms: N_17  and  C_20
REMARK    9  A    between atoms: C_20  and  C_21
REMARK   10  A    between atoms: N_23  and  C_24
REMARK   11  A    between atoms: C_24  and  C_25
REMARK   12  A    between atoms: C_24  and  C_26
REMARK   13  A    between atoms: C_24  and  C_27
REMARK                            x       y       z     vdW  Elec       q    Type
REMARK                         _______ _______ _______ _____ _____    ______ ____
ROOT
ATOM      1  N   UNL     1       0.049  -3.341   1.425  0.00  0.00    -0.270 N 
ATOM      2  C   UNL     1       0.162  -4.536   0.811  0.00  0.00    +0.232 C 
ATOM      3  O   UNL     1       0.334  -4.588  -0.388  0.00  0.00    -0.274 OA
ATOM      4  H   UNL     1      -0.002  -3.295   2.392  0.00  0.00    +0.156 HD
ENDROOT
BRANCH   1   9
ATOM      5  C   UNL     1      -0.721   0.001  -2.288  0.00  0.00    +0.047 C 
ATOM      6  C   UNL     1      -0.327  -0.643  -0.983  0.00  0.00    -0.011 A 
ATOM      7  C   UNL     1       0.249  -0.038   0.068  0.00  0.00    +0.022 A 
ATOM      8  N   UNL     1       0.451  -0.955   1.064  0.00  0.00    -0.329 N 
ATOM      9  C   UNL     1       0.006  -2.176   0.672  0.00  0.00    +0.124 A 
ATOM     10  C   UNL     1      -0.505  -2.052  -0.612  0.00  0.00    +0.095 A 
ATOM     11  C   UNL     1       0.618   1.422   0.139  0.00  0.00    +0.064 C 
BRANCH   8  12
ATOM     12  C   UNL     1       1.060  -0.661   2.364  0.00  0.00    +0.089 C 
ATOM     13  C   UNL     1       2.215  -1.646   2.640  0.00  0.00    +0.025 C 
ATOM     14  C   UNL     1       2.122  -1.922   4.162  0.00  0.00    +0.002 C 
ATOM     15  C   UNL     1       0.593  -1.968   4.408  0.00  0.00    +0.002 C 
ATOM     16  C   UNL     1       0.029  -0.866   3.487  0.00  0.00    +0.025 C 
ENDBRANCH   8  12
BRANCH  10  17
ATOM     17  C   UNL     1      -1.086  -3.088  -1.413  0.00  0.00    +0.103 C 
ATOM     18  N   UNL     1      -1.546  -3.909  -2.048  0.00  0.00    -0.191 NA
ENDBRANCH  10  17
ENDBRANCH   1   9
BRANCH   2  19
ATOM     19  C   UNL     1       0.074  -5.807   1.616  0.00  0.00    +0.180 C 
BRANCH  19  20
ATOM     20  N   UNL     1       0.107  -6.963   0.710  0.00  0.00    -0.296 NA
ATOM     21  C   UNL     1       1.426  -7.146   0.153  0.00  0.00    +0.083 C 
ATOM     22  C   UNL     1       1.399  -7.620  -1.314  0.00  0.00    -0.003 C 
ATOM     23  C   UNL     1       0.321  -8.694  -1.557  0.00  0.00    -0.077 C 
ATOM     24  N   UNL     1       0.258  -9.649  -0.476  0.00  0.00    +0.386 N 
ATOM     25  C   UNL     1      -0.795  -9.213   0.461  0.00  0.00    -0.063 C 
ATOM     26  C   UNL     1      -0.336  -8.197   1.406  0.00  0.00    +0.066 C 
ATOM     27  H   UNL     1       1.147  -9.681   0.001  0.00  0.00    -0.081 HD
BRANCH  24  28
ATOM     28  C   UNL     1      -0.070 -10.978  -1.008  0.00  0.00    +0.019 C 
BRANCH  28  29
ATOM     29  C   UNL     1       1.052 -11.456  -1.893  0.00  0.00    +0.197 C 
ATOM     30  O   UNL     1       2.029 -10.757  -2.065  0.00  0.00    -0.278 OA
ATOM     31  N   UNL     1       0.970 -12.659  -2.495  0.00  0.00    -0.312 N 
ATOM     32  H   UNL     1       0.189 -13.218  -2.358  0.00  0.00    +0.149 HD
BRANCH  31  33
ATOM     33  C   UNL     1       2.061 -13.123  -3.356  0.00  0.00    +0.026 C 
ATOM     34  C   UNL     1       3.354 -13.204  -2.543  0.00  0.00    +0.031 C 
ATOM     35  C   UNL     1       1.719 -14.508  -3.910  0.00  0.00    +0.031 C 
ATOM     36  C   UNL     1       2.248 -12.143  -4.516  0.00  0.00    +0.031 C 
ENDBRANCH  31  33
ENDBRANCH  28  29
ENDBRANCH  24  28
ENDBRANCH  19  20
ENDBRANCH   2  19
TORSDOF 8
