REMARK  Name = ZINC03279126
REMARK  10 active torsions:
REMARK  status: ('A' for Active; 'I' for Inactive)
REMARK    1  A    between atoms: C_1  and  C_2
REMARK    2  A    between atoms: C_4  and  C_40
REMARK    3  A    between atoms: C_6  and  S_8
REMARK    4  A    between atoms: S_8  and  C_9
REMARK    5  A    between atoms: C_9  and  C_10
REMARK    6  A    between atoms: C_13  and  C_16
REMARK    7  A    between atoms: N_18  and  N_19
REMARK    8  A    between atoms: N_19  and  C_20
REMARK    9  A    between atoms: N_30  and  C_33
REMARK   10  A    between atoms: C_33  and  C_34
REMARK                            x       y       z     vdW  Elec       q    Type
REMARK                         _______ _______ _______ _____ _____    ______ ____
ROOT
ATOM      1  N   UNL     1      -2.549   4.170   0.269  0.00  0.00    -0.271 N 
ATOM      2  H   UNL     1      -3.383   3.700   0.428  0.00  0.00    +0.169 HD
ENDROOT
BRANCH   1   3
ATOM      3  C   UNL     1      -2.556   5.510   0.044  0.00  0.00    +0.101 C 
ATOM      4  C   UNL     1      -3.752   6.186  -0.051  0.00  0.00    +0.060 C 
ATOM      5  C   UNL     1      -3.788   7.659  -0.155  0.00  0.00    +0.000 A 
ATOM      6  C   UNL     1      -2.624   8.420  -0.162  0.00  0.00    +0.009 A 
ATOM      7  C   UNL     1      -2.709   9.794  -0.262  0.00  0.00    +0.001 A 
ATOM      8  C   UNL     1      -3.945  10.419  -0.354  0.00  0.00    +0.001 A 
ATOM      9  C   UNL     1      -5.109   9.681  -0.348  0.00  0.00    +0.013 A 
ATOM     10  C   UNL     1      -5.045   8.291  -0.249  0.00  0.00    +0.045 A 
ATOM     11  C   UNL     1      -6.261   7.468  -0.239  0.00  0.00    +0.254 C 
ATOM     12  O   UNL     1      -7.349   8.007  -0.320  0.00  0.00    -0.270 OA
ATOM     13  N   UNL     1      -6.193   6.130  -0.143  0.00  0.00    -0.230 N 
ATOM     14  C   UNL     1      -5.030   5.464  -0.057  0.00  0.00    +0.255 C 
ATOM     15  O   UNL     1      -5.036   4.249   0.022  0.00  0.00    -0.269 OA
BRANCH  13  16
ATOM     16  C   UNL     1      -7.441   5.363  -0.139  0.00  0.00    +0.152 C 
BRANCH  16  17
ATOM     17  C   UNL     1      -7.813   5.001  -1.554  0.00  0.00    -0.030 A 
ATOM     18  C   UNL     1      -8.613   5.850  -2.297  0.00  0.00    +0.005 A 
ATOM     19  C   UNL     1      -8.950   5.520  -3.596  0.00  0.00    +0.000 A 
ATOM     20  C   UNL     1      -8.496   4.337  -4.150  0.00  0.00    +0.000 A 
ATOM     21  C   UNL     1      -7.700   3.487  -3.405  0.00  0.00    +0.000 A 
ATOM     22  C   UNL     1      -7.359   3.819  -2.107  0.00  0.00    +0.005 A 
ENDBRANCH  16  17
ENDBRANCH  13  16
ENDBRANCH   1   3
BRANCH   1  25
ATOM     23  C   UNL     1      -1.330   2.138   0.496  0.00  0.00    +0.260 C 
ATOM     24  O   UNL     1      -2.375   1.549   0.695  0.00  0.00    -0.269 OA
ATOM     25  N   UNL     1      -1.337   3.467   0.273  0.00  0.00    -0.233 N 
ATOM     26  H   UNL     1      -0.503   3.936   0.114  0.00  0.00    +0.173 HD
BRANCH  23  30
ATOM     27  C   UNL     1       2.342   0.004   0.496  0.00  0.00    -0.037 A 
ATOM     28  C   UNL     1       1.155  -0.668   0.728  0.00  0.00    +0.005 A 
ATOM     29  C   UNL     1      -0.041   0.019   0.731  0.00  0.00    +0.013 A 
ATOM     30  C   UNL     1      -0.051   1.395   0.500  0.00  0.00    +0.038 A 
ATOM     31  C   UNL     1       1.149   2.067   0.267  0.00  0.00    +0.013 A 
ATOM     32  C   UNL     1       2.339   1.368   0.266  0.00  0.00    +0.005 A 
BRANCH  27  33
ATOM     33  C   UNL     1       3.645  -0.754   0.494  0.00  0.00    +0.112 C 
BRANCH  33  34
ATOM     34  S   UNL     1       4.000  -1.339  -1.182  0.00  0.00    -0.081 S 
BRANCH  34  40
ATOM     35  C   UNL     1       7.759  -2.812   1.963  0.00  0.00    +0.066 C 
ATOM     36  C   UNL     1       7.187  -2.795   0.569  0.00  0.00    +0.043 A 
ATOM     37  C   UNL     1       7.857  -3.420  -0.472  0.00  0.00    +0.046 A 
ATOM     38  C   UNL     1       7.296  -3.381  -1.739  0.00  0.00    +0.043 A 
ATOM     39  N   UNL     1       6.146  -2.752  -1.917  0.00  0.00    -0.227 NA
ATOM     40  C   UNL     1       5.531  -2.165  -0.900  0.00  0.00    +0.189 A 
ATOM     41  N   UNL     1       6.043  -2.179   0.322  0.00  0.00    -0.227 NA
ATOM     42  C   UNL     1       7.989  -4.046  -2.900  0.00  0.00    +0.066 C 
ENDBRANCH  34  40
ENDBRANCH  33  34
ENDBRANCH  27  33
ENDBRANCH  23  30
ENDBRANCH   1  25
TORSDOF 8
