REMARK  Name = ZINC33352297
REMARK  7 active torsions:
REMARK  status: ('A' for Active; 'I' for Inactive)
REMARK    1  A    between atoms: C_1  and  C_2
REMARK    2  A    between atoms: C_2  and  N_3
REMARK    3  A    between atoms: N_3  and  C_4
REMARK    4  A    between atoms: C_5  and  C_16
REMARK    5  A    between atoms: C_12  and  C_15
REMARK    6  A    between atoms: N_20  and  C_24
REMARK    7  A    between atoms: C_24  and  C_25
REMARK                            x       y       z     vdW  Elec       q    Type
REMARK                         _______ _______ _______ _____ _____    ______ ____
ROOT
ATOM      1  C   UNL     1       2.687  -1.533  -4.210  0.00  0.00    +0.037 C 
ATOM      2  C   UNL     1       2.086  -0.330  -4.440  0.00  0.00    +0.077 C 
ATOM      3  C   UNL     1       0.716   0.038  -4.310  0.00  0.00    +0.259 C 
ATOM      4  O   UNL     1      -0.118  -0.772  -3.946  0.00  0.00    -0.269 OA
ATOM      5  N   UNL     1       0.374   1.282  -4.599  0.00  0.00    -0.251 N 
ATOM      6  C   UNL     1       1.301   2.182  -4.997  0.00  0.00    +0.121 C 
ATOM      7  S   UNL     1       1.088   3.829  -5.413  0.00  0.00    -0.027 S 
ATOM      8  S   UNL     1       2.804   1.216  -4.980  0.00  0.00    -0.061 S 
ENDROOT
BRANCH   1  10
ATOM      9  C   UNL     1       1.686  -3.769  -4.440  0.00  0.00    +0.134 A 
ATOM     10  C   UNL     1       1.939  -2.607  -3.673  0.00  0.00    +0.081 A 
ATOM     11  C   UNL     1       1.428  -2.548  -2.354  0.00  0.00    +0.267 A 
ATOM     12  O   UNL     1       1.626  -1.569  -1.656  0.00  0.00    -0.267 OA
ATOM     13  N   UNL     1       0.715  -3.594  -1.884  0.00  0.00    -0.267 N 
ATOM     14  C   UNL     1       0.213  -3.543  -0.617  0.00  0.00    +0.096 A 
ATOM     15  C   UNL     1      -0.500  -4.575  -0.114  0.00  0.00    +0.019 A 
ATOM     16  C   UNL     1      -0.736  -5.714  -0.895  0.00  0.00    +0.008 A 
ATOM     17  C   UNL     1      -0.239  -5.774  -2.163  0.00  0.00    -0.007 A 
ATOM     18  C   UNL     1       0.501  -4.691  -2.670  0.00  0.00    +0.145 A 
ATOM     19  N   UNL     1       0.982  -4.759  -3.912  0.00  0.00    -0.214 NA
ATOM     20  C   UNL     1      -0.483  -6.993  -3.016  0.00  0.00    +0.047 C 
BRANCH   9  21
ATOM     21  N   UNL     1       2.169  -3.869  -5.726  0.00  0.00    -0.329 N 
ATOM     22  H   UNL     1       2.753  -3.045  -6.161  0.00  0.00    +0.147 HD
BRANCH  21  24
ATOM     23  C   UNL     1       2.546  -4.931  -7.897  0.00  0.00    +0.024 C 
ATOM     24  C   UNL     1       1.905  -5.075  -6.516  0.00  0.00    +0.099 C 
ENDBRANCH  21  24
ENDBRANCH   9  21
ENDBRANCH   1  10
BRANCH   5  25
ATOM     25  C   UNL     1      -1.027   1.692  -4.481  0.00  0.00    +0.150 C 
BRANCH  25  26
ATOM     26  C   UNL     1      -1.730   1.462  -5.794  0.00  0.00    -0.026 A 
ATOM     27  C   UNL     1      -2.346   0.250  -6.044  0.00  0.00    +0.009 A 
ATOM     28  C   UNL     1      -2.989   0.033  -7.249  0.00  0.00    +0.050 A 
ATOM     29  C   UNL     1      -3.025   1.035  -8.205  0.00  0.00    +0.166 A 
ATOM     30  C   UNL     1      -2.404   2.256  -7.954  0.00  0.00    +0.167 A 
ATOM     31  C   UNL     1      -1.758   2.464  -6.746  0.00  0.00    +0.054 A 
ATOM     32  O   UNL     1      -2.574   3.064  -9.041  0.00  0.00    -0.453 OA
ATOM     33  C   UNL     1      -3.651   2.474  -9.793  0.00  0.00    +0.466 C 
ATOM     34  O   UNL     1      -3.583   1.078  -9.450  0.00  0.00    -0.453 OA
ENDBRANCH  25  26
ENDBRANCH   5  25
TORSDOF 5
