REMARK  Name = ZINC22523978
REMARK  12 active torsions:
REMARK  status: ('A' for Active; 'I' for Inactive)
REMARK    1  A    between atoms: C_1  and  C_2
REMARK    2  A    between atoms: C_2  and  C_3
REMARK    3  A    between atoms: C_2  and  C_4
REMARK    4  A    between atoms: C_4  and  C_6
REMARK    5  A    between atoms: C_4  and  N_16
REMARK    6  A    between atoms: C_17  and  C_19
REMARK    7  A    between atoms: C_19  and  S_20
REMARK    8  A    between atoms: S_20  and  C_21
REMARK    9  A    between atoms: C_24  and  C_31
REMARK   10  A    between atoms: N_25  and  C_26
REMARK   11  A    between atoms: C_26  and  C_27
REMARK   12  A    between atoms: C_27  and  C_28
REMARK                            x       y       z     vdW  Elec       q    Type
REMARK                         _______ _______ _______ _____ _____    ______ ____
ROOT
ATOM      1  C   UNL     1      -6.626  -0.191   2.399  0.00  0.00    +0.173 C 
ENDROOT
BRANCH   1   3
ATOM      2  N   UNL     1      -4.647  -0.149   0.915  0.00  0.00    -0.308 N 
ATOM      3  C   UNL     1      -5.643  -0.864   1.476  0.00  0.00    +0.224 C 
ATOM      4  O   UNL     1      -5.749  -2.048   1.237  0.00  0.00    -0.275 OA
ATOM      5  H   UNL     1      -4.552   0.925   1.132  0.00  0.00    +0.149 HD
BRANCH   2   6
ATOM      6  C   UNL     1      -3.692  -0.803   0.018  0.00  0.00    +0.106 C 
BRANCH   6   7
ATOM      7  C   UNL     1      -2.397  -0.033   0.016  0.00  0.00    -0.023 A 
ATOM      8  C   UNL     1      -2.415   1.349   0.026  0.00  0.00    +0.009 A 
ATOM      9  C   UNL     1      -1.229   2.059   0.019  0.00  0.00    +0.050 A 
ATOM     10  C   UNL     1      -0.017   1.385   0.010  0.00  0.00    +0.162 A 
ATOM     11  C   UNL     1       0.002  -0.004   0.002  0.00  0.00    +0.162 A 
ATOM     12  C   UNL     1      -1.192  -0.710   0.004  0.00  0.00    +0.055 A 
ATOM     13  O   UNL     1       1.181  -0.685  -0.007  0.00  0.00    -0.485 OA
ATOM     14  C   UNL     1       2.347   0.053  -0.387  0.00  0.00    +0.270 C 
ATOM     15  C   UNL     1       2.334   1.392   0.364  0.00  0.00    +0.270 C 
ATOM     16  O   UNL     1       1.143   2.098   0.002  0.00  0.00    -0.485 OA
ENDBRANCH   6   7
BRANCH   6  18
ATOM     17  C   UNL     1      -5.582  -1.620  -1.398  0.00  0.00    +0.009 C 
ATOM     18  C   UNL     1      -4.266  -0.838  -1.400  0.00  0.00    +0.008 C 
ATOM     19  C   UNL     1      -4.523   0.591  -1.882  0.00  0.00    +0.009 C 
ENDBRANCH   6  18
ENDBRANCH   2   6
ENDBRANCH   1   3
BRANCH   1  20
ATOM     20  S   UNL     1      -7.833  -1.406   2.984  0.00  0.00    -0.077 S 
BRANCH  20  21
ATOM     21  C   UNL     1      -8.828  -0.379   4.013  0.00  0.00    +0.192 A 
ATOM     22  N   UNL     1      -8.653   0.905   4.234  0.00  0.00    -0.122 NA
ATOM     23  N   UNL     1      -9.561   1.345   5.030  0.00  0.00    -0.125 NA
ATOM     24  C   UNL     1     -10.367   0.365   5.376  0.00  0.00    +0.200 A 
ATOM     25  N   UNL     1      -9.921  -0.769   4.734  0.00  0.00    -0.299 N 
BRANCH  24  26
ATOM     26  C   UNL     1     -11.525   0.462   6.278  0.00  0.00    +0.172 A 
ATOM     27  C   UNL     1     -11.793   1.492   7.130  0.00  0.00    +0.053 A 
ATOM     28  C   UNL     1     -12.993   1.170   7.791  0.00  0.00    +0.042 A 
ATOM     29  C   UNL     1     -13.393  -0.030   7.324  0.00  0.00    +0.196 A 
ATOM     30  O   UNL     1     -12.505  -0.455   6.410  0.00  0.00    -0.460 OA
ENDBRANCH  24  26
BRANCH  25  31
ATOM     31  C   UNL     1     -10.499  -2.114   4.808  0.00  0.00    +0.135 C 
BRANCH  31  32
ATOM     32  C   UNL     1      -9.850  -2.884   5.960  0.00  0.00    +0.117 C 
BRANCH  32  33
ATOM     33  C   UNL     1     -10.444  -4.267   6.036  0.00  0.00    +0.212 C 
ATOM     34  O   UNL     1     -11.302  -4.604   5.248  0.00  0.00    -0.276 OA
ATOM     35  N   UNL     1     -10.022  -5.131   6.981  0.00  0.00    -0.329 N 
ATOM     36  H   UNL     1     -10.455  -6.140   7.037  0.00  0.00    +0.145 HD
ATOM     37  H   UNL     1      -9.244  -4.826   7.697  0.00  0.00    +0.145 HD
ENDBRANCH  32  33
ENDBRANCH  31  32
ENDBRANCH  25  31
ENDBRANCH  20  21
ENDBRANCH   1  20
TORSDOF 10
