REMARK  Name = ZINC59922373
REMARK  5 active torsions:
REMARK  status: ('A' for Active; 'I' for Inactive)
REMARK    1  A    between atoms: C_1  and  C_2
REMARK    2  A    between atoms: C_4  and  C_7
REMARK    3  A    between atoms: C_7  and  N_14
REMARK    4  A    between atoms: C_15  and  C_17
REMARK    5  A    between atoms: C_17  and  C_18
REMARK                            x       y       z     vdW  Elec       q    Type
REMARK                         _______ _______ _______ _____ _____    ______ ____
ROOT
ATOM      1  N   UNL     1      -2.409  -3.215  -1.221  0.00  0.00    -0.303 N 
ATOM      2  C   UNL     1      -3.217  -2.162  -1.453  0.00  0.00    +0.215 C 
ATOM      3  O   UNL     1      -3.266  -1.247  -0.657  0.00  0.00    -0.276 OA
ATOM      4  H   UNL     1      -2.370  -3.946  -1.857  0.00  0.00    +0.150 HD
ENDROOT
BRANCH   1   5
ATOM      5  C   UNL     1      -1.588  -3.254  -0.008  0.00  0.00    +0.097 C 
ATOM      6  C   UNL     1      -2.514  -3.169   1.223  0.00  0.00    +0.034 C 
ATOM      7  C   UNL     1      -3.729  -4.018   0.966  0.00  0.00    +0.003 C 
ATOM      8  C   UNL     1      -3.582  -5.443   1.533  0.00  0.00    +0.000 C 
ATOM      9  C   UNL     1      -2.183  -6.041   1.292  0.00  0.00    +0.000 C 
ATOM     10  C   UNL     1      -1.660  -5.744  -0.088  0.00  0.00    +0.003 C 
ATOM     11  C   UNL     1      -0.790  -4.472  -0.018  0.00  0.00    +0.034 C 
BRANCH   5  15
ATOM     12  C   UNL     1      -0.018   1.503   0.010  0.00  0.00    +0.112 C 
ATOM     13  C   UNL     1       0.002  -0.004   0.002  0.00  0.00    +0.224 A 
ATOM     14  N   UNL     1      -1.044  -0.783   0.003  0.00  0.00    -0.194 NA
ATOM     15  C   UNL     1      -0.663  -2.065  -0.006  0.00  0.00    +0.195 A 
ATOM     16  N   UNL     1       0.638  -2.118  -0.012  0.00  0.00    -0.059 NA
ATOM     17  O   UNL     1       1.097  -0.774  -0.013  0.00  0.00    -0.338 OA
ENDBRANCH   5  15
ENDBRANCH   1   5
BRANCH   2  18
ATOM     18  C   UNL     1      -4.062  -2.121  -2.700  0.00  0.00    +0.119 C 
BRANCH  18  19
ATOM     19  C   UNL     1      -4.880  -0.828  -2.720  0.00  0.00    +0.146 C 
ATOM     20  C   UNL     1      -5.640  -0.730  -4.017  0.00  0.00    +0.231 C 
ATOM     21  O   UNL     1      -5.177  -0.047  -4.907  0.00  0.00    -0.274 OA
ATOM     22  N   UNL     1      -6.793  -1.354  -4.235  0.00  0.00    -0.284 N 
ATOM     23  C   UNL     1      -7.532  -2.081  -3.306  0.00  0.00    +0.048 A 
ATOM     24  C   UNL     1      -8.520  -2.951  -3.756  0.00  0.00    +0.044 A 
ATOM     25  C   UNL     1      -9.261  -3.691  -2.854  0.00  0.00    +0.043 A 
ATOM     26  C   UNL     1      -9.029  -3.575  -1.495  0.00  0.00    +0.021 A 
ATOM     27  C   UNL     1      -8.053  -2.711  -1.034  0.00  0.00    +0.018 A 
ATOM     28  C   UNL     1      -7.311  -1.964  -1.934  0.00  0.00    +0.030 A 
ATOM     29  S   UNL     1      -6.074  -0.840  -1.347  0.00  0.00    -0.110 S 
ATOM     30 CL   UNL     1     -10.490  -4.772  -3.431  0.00  0.00    -0.083 Cl
ATOM     31  H   UNL     1      -7.157  -1.298  -5.132  0.00  0.00    +0.155 HD
ENDBRANCH  18  19
ENDBRANCH   2  18
TORSDOF 4
