REMARK  Name = ZINC25148717
REMARK  11 active torsions:
REMARK  status: ('A' for Active; 'I' for Inactive)
REMARK    1  A    between atoms: C_1  and  C_2
REMARK    2  A    between atoms: C_2  and  C_33
REMARK    3  A    between atoms: C_3  and  C_4
REMARK    4  A    between atoms: C_6  and  C_11
REMARK    5  A    between atoms: C_8  and  C_9
REMARK    6  A    between atoms: C_8  and  C_10
REMARK    7  A    between atoms: N_13  and  C_14
REMARK    8  A    between atoms: N_17  and  S_20
REMARK    9  A    between atoms: S_20  and  C_23
REMARK   10  A    between atoms: C_26  and  N_29
REMARK   11  A    between atoms: C_30  and  C_32
REMARK                            x       y       z     vdW  Elec       q    Type
REMARK                         _______ _______ _______ _____ _____    ______ ____
ROOT
ATOM      1  C   UNL     1      -0.801  10.577   3.289  0.00  0.00    +0.075 C 
ATOM      2  C   UNL     1       0.405  10.321   2.381  0.00  0.00    +0.039 C 
ATOM      3  C   UNL     1       0.352   8.880   1.864  0.00  0.00    +0.111 C 
ATOM      4  N   UNL     1      -0.948   8.657   1.217  0.00  0.00    -0.176 NA
ATOM      5  C   UNL     1      -2.172   8.963   1.969  0.00  0.00    +0.111 C 
ATOM      6  C   UNL     1      -2.092  10.398   2.487  0.00  0.00    +0.039 C 
ENDROOT
BRANCH   1   9
ATOM      7  C   UNL     1      -1.349  12.251   4.972  0.00  0.00    +0.217 C 
ATOM      8  O   UNL     1      -1.953  11.395   5.584  0.00  0.00    -0.275 OA
ATOM      9  N   UNL     1      -0.737  11.944   3.812  0.00  0.00    -0.312 N 
ATOM     10  H   UNL     1      -0.189  12.720   3.257  0.00  0.00    +0.149 HD
BRANCH   7  12
ATOM     11  C   UNL     1      -0.371  13.912   6.712  0.00  0.00    +0.030 C 
ATOM     12  C   UNL     1      -1.283  13.657   5.510  0.00  0.00    +0.089 C 
ATOM     13  C   UNL     1      -1.890  13.915   6.891  0.00  0.00    -0.016 C 
ATOM     14  C   UNL     1      -2.572  15.265   7.122  0.00  0.00    +0.012 C 
ATOM     15  C   UNL     1      -2.518  12.725   7.620  0.00  0.00    +0.012 C 
BRANCH  11  18
ATOM     16  C   UNL     1       1.605  14.319   8.678  0.00  0.00    +0.038 C 
ATOM     17  C   UNL     1       1.312  12.927   8.181  0.00  0.00    -0.079 C 
ATOM     18  C   UNL     1       0.393  12.737   7.267  0.00  0.00    -0.023 C 
ATOM     19  C   UNL     1       2.076  11.752   8.736  0.00  0.00    +0.038 C 
ENDBRANCH  11  18
ENDBRANCH   7  12
ENDBRANCH   1   9
BRANCH   4  20
ATOM     20  S   UNL     1      -1.031   8.077  -0.332  0.00  0.00    +0.061 S 
ATOM     21  O   UNL     1       0.199   8.412  -0.958  0.00  0.00    -0.153 OA
ATOM     22  O   UNL     1      -2.288   8.488  -0.852  0.00  0.00    -0.153 OA
BRANCH  20  23
ATOM     23  C   UNL     1      -1.081   6.318  -0.228  0.00  0.00    +0.106 A 
ATOM     24  C   UNL     1      -2.297   5.667  -0.136  0.00  0.00    +0.030 A 
ATOM     25  C   UNL     1      -2.339   4.288  -0.054  0.00  0.00    +0.025 A 
ATOM     26  C   UNL     1      -1.158   3.557  -0.064  0.00  0.00    +0.033 A 
ATOM     27  C   UNL     1       0.062   4.215  -0.150  0.00  0.00    +0.025 A 
ATOM     28  C   UNL     1       0.097   5.593  -0.238  0.00  0.00    +0.030 A 
BRANCH  26  29
ATOM     29  N   UNL     1      -1.198   2.161   0.018  0.00  0.00    -0.286 N 
ATOM     30  C   UNL     1      -2.200   1.479  -0.571  0.00  0.00    +0.214 C 
ATOM     31  O   UNL     1      -3.112   2.078  -1.099  0.00  0.00    -0.276 OA
ATOM     32  C   UNL     1      -2.189  -0.028  -0.568  0.00  0.00    +0.109 C 
ATOM     33  H   UNL     1      -0.411   1.620   0.564  0.00  0.00    +0.155 HD
ENDBRANCH  26  29
ENDBRANCH  20  23
ENDBRANCH   4  20
TORSDOF 6
