REMARK  Name = ZINC15636345
REMARK  13 active torsions:
REMARK  status: ('A' for Active; 'I' for Inactive)
REMARK    1  A    between atoms: C_1  and  C_2
REMARK    2  A    between atoms: C_2  and  N_3
REMARK    3  A    between atoms: N_3  and  C_4
REMARK    4  A    between atoms: N_3  and  C_6
REMARK    5  A    between atoms: C_4  and  C_5
REMARK    6  A    between atoms: C_6  and  C_7
REMARK    7  A    between atoms: C_12  and  C_13
REMARK    8  A    between atoms: C_13  and  N_14
REMARK    9  A    between atoms: C_15  and  C_17
REMARK   10  A    between atoms: C_21  and  S_23
REMARK   11  A    between atoms: S_23  and  N_26
REMARK   12  A    between atoms: C_28  and  C_35
REMARK   13  A    between atoms: C_31  and  C_34
REMARK                            x       y       z     vdW  Elec       q    Type
REMARK                         _______ _______ _______ _____ _____    ______ ____
ROOT
ATOM      1  N   UNL     1      -0.338  -2.438  -4.647  0.00  0.00    -0.307 N 
ATOM      2  C   UNL     1       0.407  -2.184  -5.741  0.00  0.00    +0.244 C 
ATOM      3  O   UNL     1       0.496  -1.049  -6.167  0.00  0.00    -0.270 OA
ATOM      4  H   UNL     1      -0.408  -3.344  -4.308  0.00  0.00    +0.149 HD
ENDROOT
BRANCH   2   5
ATOM      5  C   UNL     1       1.117  -3.287  -6.424  0.00  0.00    +0.039 A 
ATOM      6  C   UNL     1       1.013  -4.593  -5.942  0.00  0.00    +0.013 A 
ATOM      7  C   UNL     1       1.677  -5.617  -6.584  0.00  0.00    +0.003 A 
ATOM      8  C   UNL     1       2.446  -5.352  -7.703  0.00  0.00    +0.028 A 
ATOM      9  C   UNL     1       2.554  -4.061  -8.187  0.00  0.00    +0.106 A 
ATOM     10  C   UNL     1       1.890  -3.028  -7.557  0.00  0.00    +0.041 A 
BRANCH   9  11
ATOM     11  S   UNL     1       3.536  -3.735  -9.613  0.00  0.00    +0.061 S 
ATOM     12  O   UNL     1       3.914  -2.366  -9.541  0.00  0.00    -0.153 OA
ATOM     13  O   UNL     1       4.490  -4.785  -9.698  0.00  0.00    -0.153 OA
BRANCH  11  14
ATOM     14  N   UNL     1       2.548  -3.885 -10.933  0.00  0.00    -0.172 NA
ATOM     15  C   UNL     1       2.382  -5.179 -11.612  0.00  0.00    +0.140 C 
ATOM     16  C   UNL     1       2.610  -4.970 -13.113  0.00  0.00    +0.131 C 
ATOM     17  O   UNL     1       1.778  -3.902 -13.572  0.00  0.00    -0.371 OA
ATOM     18  C   UNL     1       2.064  -2.637 -12.970  0.00  0.00    +0.131 C 
ATOM     19  C   UNL     1       1.804  -2.728 -11.457  0.00  0.00    +0.140 C 
ATOM     20  C   UNL     1       1.159  -1.565 -13.579  0.00  0.00    +0.039 C 
ATOM     21  C   UNL     1       2.258  -6.254 -13.868  0.00  0.00    +0.039 C 
ENDBRANCH  11  14
ENDBRANCH   9  11
ENDBRANCH   2   5
BRANCH   1  22
ATOM     22  C   UNL     1      -1.041  -1.345  -3.971  0.00  0.00    +0.140 C 
BRANCH  22  28
ATOM     23  C   UNL     1      -1.130  -2.149  -1.602  0.00  0.00    -0.059 A 
ATOM     24  C   UNL     1      -1.823  -2.645  -0.514  0.00  0.00    +0.002 A 
ATOM     25  C   UNL     1      -3.181  -2.887  -0.611  0.00  0.00    +0.000 A 
ATOM     26  C   UNL     1      -3.845  -2.633  -1.796  0.00  0.00    +0.000 A 
ATOM     27  C   UNL     1      -3.152  -2.137  -2.884  0.00  0.00    +0.005 A 
ATOM     28  C   UNL     1      -1.796  -1.891  -2.786  0.00  0.00    -0.029 A 
BRANCH  23  29
ATOM     29  C   UNL     1       0.350  -1.885  -1.497  0.00  0.00    -0.043 C 
BRANCH  29  30
ATOM     30  N   UNL     1       0.577  -0.452  -1.269  0.00  0.00    +0.382 N 
ATOM     31  H   UNL     1       0.124   0.080  -1.997  0.00  0.00    -0.081 HD
BRANCH  30  33
ATOM     32  C   UNL     1       0.124   1.447   0.210  0.00  0.00    -0.017 C 
ATOM     33  C   UNL     1       0.019  -0.070   0.036  0.00  0.00    -0.082 C 
ENDBRANCH  30  33
BRANCH  30  34
ATOM     34  C   UNL     1       2.019  -0.176  -1.285  0.00  0.00    -0.082 C 
ATOM     35  C   UNL     1       2.573  -0.440  -2.687  0.00  0.00    -0.017 C 
ENDBRANCH  30  34
ENDBRANCH  29  30
ENDBRANCH  23  29
ENDBRANCH  22  28
ENDBRANCH   1  22
TORSDOF 9
