REMARK  Name = ZINC22793282
REMARK  6 active torsions:
REMARK  status: ('A' for Active; 'I' for Inactive)
REMARK    1  A    between atoms: C_1  and  C_2
REMARK    2  A    between atoms: C_2  and  C_4
REMARK    3  A    between atoms: C_2  and  N_21
REMARK    4  A    between atoms: C_10  and  C_15
REMARK    5  A    between atoms: N_24  and  C_27
REMARK    6  A    between atoms: C_27  and  C_28
REMARK                            x       y       z     vdW  Elec       q    Type
REMARK                         _______ _______ _______ _____ _____    ______ ____
ROOT
ATOM      1  C   UNL     1       0.868  -0.417  -1.190  0.00  0.00    -0.005 C 
ATOM      2  C   UNL     1       0.002  -0.004   0.002  0.00  0.00    -0.004 C 
ENDROOT
BRANCH   2   3
ATOM      3  C   UNL     1      -0.085   1.499   0.063  0.00  0.00    +0.097 A 
ATOM      4  N   UNL     1       1.057   2.234   0.071  0.00  0.00    -0.312 N 
ATOM      5  H   UNL     1       1.914   1.781   0.036  0.00  0.00    +0.170 HD
ATOM      6  C   UNL     1       1.023   3.578   0.124  0.00  0.00    +0.260 A 
ATOM      7  O   UNL     1       2.057   4.224   0.129  0.00  0.00    -0.267 OA
ATOM      8  C   UNL     1      -0.246   4.239   0.174  0.00  0.00    +0.080 A 
ATOM      9  C   UNL     1      -0.542   5.665   0.236  0.00  0.00    +0.004 A 
ATOM     10  C   UNL     1      -1.838   6.061   0.276  0.00  0.00    +0.056 A 
ATOM     11  S   UNL     1      -2.740   4.524   0.233  0.00  0.00    -0.076 S 
ATOM     12  C   UNL     1      -1.371   3.397   0.163  0.00  0.00    +0.116 A 
ATOM     13  N   UNL     1      -1.258   2.073   0.103  0.00  0.00    -0.228 NA
BRANCH   9  14
ATOM     14  C   UNL     1       0.553   6.663   0.254  0.00  0.00    -0.017 A 
ATOM     15  C   UNL     1       1.612   6.524   1.150  0.00  0.00    +0.008 A 
ATOM     16  C   UNL     1       2.630   7.456   1.162  0.00  0.00    +0.001 A 
ATOM     17  C   UNL     1       2.600   8.528   0.288  0.00  0.00    +0.000 A 
ATOM     18  C   UNL     1       1.551   8.672  -0.603  0.00  0.00    +0.001 A 
ATOM     19  C   UNL     1       0.531   7.743  -0.628  0.00  0.00    +0.008 A 
ENDBRANCH   9  14
ENDBRANCH   2   3
BRANCH   2  20
ATOM     20  N   UNL     1      -1.346  -0.567  -0.154  0.00  0.00    +0.388 N 
ATOM     21  C   UNL     1      -1.279  -2.031  -0.059  0.00  0.00    -0.062 C 
ATOM     22  C   UNL     1      -2.686  -2.616  -0.202  0.00  0.00    +0.066 C 
ATOM     23  N   UNL     1      -3.249  -2.217  -1.500  0.00  0.00    -0.298 NA
ATOM     24  C   UNL     1      -3.300  -0.753  -1.619  0.00  0.00    +0.066 C 
ATOM     25  C   UNL     1      -1.888  -0.183  -1.464  0.00  0.00    -0.062 C 
ATOM     26  H   UNL     1      -1.945  -0.210   0.576  0.00  0.00    -0.081 HD
BRANCH  23  27
ATOM     27  C   UNL     1      -4.580  -2.808  -1.699  0.00  0.00    +0.180 C 
BRANCH  27  28
ATOM     28  C   UNL     1      -5.020  -2.584  -3.123  0.00  0.00    +0.230 C 
ATOM     29  O   UNL     1      -4.296  -1.991  -3.896  0.00  0.00    -0.274 OA
ATOM     30  N   UNL     1      -6.217  -3.043  -3.539  0.00  0.00    -0.300 N 
ATOM     31  C   UNL     1      -7.058  -3.740  -2.592  0.00  0.00    +0.108 C 
ATOM     32  C   UNL     1      -6.730  -5.254  -2.622  0.00  0.00    +0.019 C 
ATOM     33  C   UNL     1      -7.215  -5.857  -3.873  0.00  0.00    +0.002 C 
ATOM     34  C   UNL     1      -6.558  -5.303  -5.133  0.00  0.00    +0.002 C 
ATOM     35  C   UNL     1      -7.282  -4.052  -5.566  0.00  0.00    +0.019 C 
ATOM     36  C   UNL     1      -6.618  -2.807  -4.939  0.00  0.00    +0.108 C 
ENDBRANCH  27  28
ENDBRANCH  23  27
ENDBRANCH   2  20
TORSDOF 5
