REMARK  Name = ZINC59248741
REMARK  4 active torsions:
REMARK  status: ('A' for Active; 'I' for Inactive)
REMARK    1  A    between atoms: C_3  and  N_9
REMARK    2  A    between atoms: C_6  and  C_7
REMARK    3  A    between atoms: C_10  and  C_11
REMARK    4  A    between atoms: C_14  and  N_16
REMARK                            x       y       z     vdW  Elec       q    Type
REMARK                         _______ _______ _______ _____ _____    ______ ____
ROOT
ATOM      1  C   UNL     1       5.742   2.469   0.764  0.00  0.00    +0.149 A 
ATOM      2  C   UNL     1       6.856   2.198   1.539  0.00  0.00    +0.068 A 
ATOM      3  C   UNL     1       7.817   3.157   1.208  0.00  0.00    +0.079 A 
ATOM      4  C   UNL     1       7.268   3.968   0.258  0.00  0.00    +0.204 A 
ATOM      5  O   UNL     1       6.023   3.544  -0.007  0.00  0.00    -0.439 OA
ATOM      6 BR   UNL     1       9.555   3.303   1.941  0.00  0.00    -0.045 Br
ENDROOT
BRANCH   4   7
ATOM      7  N   UNL     1       7.894   5.046  -0.338  0.00  0.00    -0.301 N 
ATOM      8  C   UNL     1       9.262   5.505  -0.057  0.00  0.00    +0.108 C 
ATOM      9  C   UNL     1       9.517   6.748  -0.934  0.00  0.00    +0.020 C 
ATOM     10  C   UNL     1       8.084   7.257  -1.241  0.00  0.00    +0.020 C 
ATOM     11  C   UNL     1       7.302   5.923  -1.365  0.00  0.00    +0.108 C 
ENDBRANCH   4   7
BRANCH   1  13
ATOM     12  N   UNL     1       3.548   2.107  -0.021  0.00  0.00    -0.252 NA
ATOM     13  C   UNL     1       4.532   1.748   0.772  0.00  0.00    +0.157 C 
BRANCH  12  16
ATOM     14  C   UNL     1      -0.017   1.395   0.010  0.00  0.00    +0.021 A 
ATOM     15  C   UNL     1       1.155   2.094   0.002  0.00  0.00    +0.029 A 
ATOM     16  C   UNL     1       2.377   1.410  -0.013  0.00  0.00    +0.064 A 
ATOM     17  C   UNL     1       2.396   0.010  -0.021  0.00  0.00    +0.029 A 
ATOM     18  C   UNL     1       1.223  -0.688  -0.013  0.00  0.00    +0.021 A 
ATOM     19  C   UNL     1       0.002  -0.004   0.002  0.00  0.00    +0.052 A 
BRANCH  19  20
ATOM     20  C   UNL     1      -1.228  -0.737   0.010  0.00  0.00    +0.099 C 
ATOM     21  N   UNL     1      -2.204  -1.318   0.016  0.00  0.00    -0.191 NA
ENDBRANCH  19  20
ENDBRANCH  12  16
ENDBRANCH   1  13
TORSDOF 4
