REMARK  Name = ZINC12499850
REMARK  11 active torsions:
REMARK  status: ('A' for Active; 'I' for Inactive)
REMARK    1  A    between atoms: C_1  and  C_2
REMARK    2  A    between atoms: C_2  and  C_3
REMARK    3  A    between atoms: C_2  and  C_4
REMARK    4  A    between atoms: C_2  and  C_5
REMARK    5  A    between atoms: C_8  and  O_11
REMARK    6  A    between atoms: O_11  and  C_12
REMARK    7  A    between atoms: C_12  and  C_13
REMARK    8  A    between atoms: N_15  and  C_16
REMARK    9  A    between atoms: C_16  and  N_18
REMARK   10  A    between atoms: N_18  and  C_19
REMARK   11  A    between atoms: C_20  and  C_28
REMARK                            x       y       z     vdW  Elec       q    Type
REMARK                         _______ _______ _______ _____ _____    ______ ____
ROOT
ATOM      1  C   UNL     1      -0.021   1.708   0.011  0.00  0.00    +0.141 C 
ATOM      2  S   UNL     1       0.002  -0.004   0.002  0.00  0.00    -0.018 S 
ENDROOT
BRANCH   1   5
ATOM      3  C   UNL     1      -2.355   1.676   0.022  0.00  0.00    +0.256 C 
ATOM      4  O   UNL     1      -2.339   0.464   0.016  0.00  0.00    -0.272 OA
ATOM      5  N   UNL     1      -1.197   2.366   0.021  0.00  0.00    -0.265 N 
ATOM      6  H   UNL     1      -1.210   3.336   0.026  0.00  0.00    +0.157 HD
BRANCH   3   7
ATOM      7  C   UNL     1      -3.671   2.412   0.033  0.00  0.00    +0.324 C 
BRANCH   7   8
ATOM      8  O   UNL     1      -4.744   1.468   0.033  0.00  0.00    -0.483 OA
BRANCH   8  12
ATOM      9  C   UNL     1      -8.577   2.993   0.059  0.00  0.00    -0.042 A 
ATOM     10  C   UNL     1      -8.379   1.625   0.051  0.00  0.00    +0.008 A 
ATOM     11  C   UNL     1      -7.096   1.112   0.042  0.00  0.00    +0.046 A 
ATOM     12  C   UNL     1      -6.007   1.971   0.041  0.00  0.00    +0.121 A 
ATOM     13  C   UNL     1      -6.208   3.343   0.055  0.00  0.00    +0.046 A 
ATOM     14  C   UNL     1      -7.493   3.851   0.058  0.00  0.00    +0.008 A 
BRANCH   9  16
ATOM     15  C   UNL     1     -10.712   3.062   1.319  0.00  0.00    +0.015 C 
ATOM     16  C   UNL     1      -9.977   3.550   0.069  0.00  0.00    -0.013 C 
ATOM     17  C   UNL     1      -9.918   5.079   0.076  0.00  0.00    +0.015 C 
ATOM     18  C   UNL     1     -10.724   3.075  -1.180  0.00  0.00    +0.015 C 
ENDBRANCH   9  16
ENDBRANCH   8  12
ENDBRANCH   7   8
ENDBRANCH   3   7
ENDBRANCH   1   5
BRANCH   1  19
ATOM     19  N   UNL     1       1.137   2.397   0.004  0.00  0.00    -0.291 N 
ATOM     20  H   UNL     1       1.124   3.367   0.009  0.00  0.00    +0.154 HD
BRANCH  19  21
ATOM     21  C   UNL     1       2.346   1.721  -0.011  0.00  0.00    +0.084 A 
ATOM     22  C   UNL     1       3.630   2.249  -0.026  0.00  0.00    +0.068 A 
ATOM     23  C   UNL     1       4.741   1.313  -0.036  0.00  0.00    -0.023 A 
ATOM     24  C   UNL     1       4.393   0.008  -0.041  0.00  0.00    -0.004 A 
ATOM     25  S   UNL     1       2.623   0.011  -0.024  0.00  0.00    -0.077 S 
ATOM     26  C   UNL     1       5.315  -1.173  -0.058  0.00  0.00    +0.043 C 
ATOM     27  C   UNL     1       6.718  -0.685  -0.447  0.00  0.00    +0.005 C 
ATOM     28  C   UNL     1       7.063   0.548   0.394  0.00  0.00    +0.005 C 
ATOM     29  C   UNL     1       6.205   1.735  -0.048  0.00  0.00    +0.037 C 
BRANCH  22  30
ATOM     30  C   UNL     1       3.856   3.697  -0.027  0.00  0.00    +0.244 C 
ATOM     31  O   UNL     1       3.963   4.298   1.026  0.00  0.00    -0.270 OA
ATOM     32  N   UNL     1       3.945   4.365  -1.195  0.00  0.00    -0.325 N 
ATOM     33  H   UNL     1       3.860   3.886  -2.035  0.00  0.00    +0.145 HD
ATOM     34  H   UNL     1       4.095   5.323  -1.196  0.00  0.00    +0.145 HD
ENDBRANCH  22  30
ENDBRANCH  19  21
ENDBRANCH   1  19
TORSDOF 8
