REMARK  Name = ZINC39447810
REMARK  8 active torsions:
REMARK  status: ('A' for Active; 'I' for Inactive)
REMARK    1  A    between atoms: C_1  and  C_2
REMARK    2  A    between atoms: C_10  and  C_15
REMARK    3  A    between atoms: C_12  and  C_14
REMARK    4  A    between atoms: N_17  and  C_18
REMARK    5  A    between atoms: C_18  and  C_20
REMARK    6  A    between atoms: C_18  and  C_21
REMARK    7  A    between atoms: C_22  and  C_28
REMARK    8  A    between atoms: C_25  and  C_27
REMARK                            x       y       z     vdW  Elec       q    Type
REMARK                         _______ _______ _______ _____ _____    ______ ____
ROOT
ATOM      1  C   UNL     1      -1.906  -5.774  -1.374  0.00  0.00    +0.255 C 
ATOM      2  O   UNL     1      -2.623  -5.801  -0.396  0.00  0.00    -0.272 OA
ATOM      3  N   UNL     1      -2.450  -5.752  -2.607  0.00  0.00    -0.306 N 
ATOM      4  H   UNL     1      -1.877  -5.731  -3.390  0.00  0.00    +0.149 HD
ENDROOT
BRANCH   1  14
ATOM      5  C   UNL     1       0.529  -0.491   1.729  0.00  0.00    +0.044 C 
ATOM      6  C   UNL     1       0.362  -1.945   1.371  0.00  0.00    -0.049 A 
ATOM      7  C   UNL     1       0.376  -2.340   0.045  0.00  0.00    +0.011 A 
ATOM      8  C   UNL     1       0.224  -3.670  -0.280  0.00  0.00    +0.003 A 
ATOM      9  C   UNL     1       0.063  -4.630   0.711  0.00  0.00    +0.143 A 
ATOM     10  C   UNL     1       0.047  -4.224   2.044  0.00  0.00    +0.083 A 
ATOM     11  C   UNL     1       0.202  -2.891   2.367  0.00  0.00    +0.027 A 
ATOM     12 CL   UNL     1      -0.163  -5.400   3.304  0.00  0.00    -0.080 Cl
ATOM     13  O   UNL     1      -0.046  -5.877   0.176  0.00  0.00    -0.477 OA
ATOM     14  C   UNL     1      -0.408  -5.767  -1.211  0.00  0.00    +0.266 C 
ATOM     15  C   UNL     1       0.184  -4.394  -1.611  0.00  0.00    +0.069 C 
ATOM     16  C   UNL     1       1.591  -4.554  -2.189  0.00  0.00    +0.017 C 
ENDBRANCH   1  14
BRANCH   3  17
ATOM     17  C   UNL     1      -3.906  -5.760  -2.766  0.00  0.00    +0.100 C 
ATOM     18  C   UNL     1      -4.444  -4.336  -2.609  0.00  0.00    +0.033 C 
BRANCH  17  19
ATOM     19  C   UNL     1      -4.260  -6.282  -4.135  0.00  0.00    -0.001 C 
ATOM     20  C   UNL     1      -5.029  -7.328  -4.442  0.00  0.00    +0.063 C 
ATOM     21  N   UNL     1      -5.112  -7.486  -5.782  0.00  0.00    -0.159 NA
ATOM     22  N   UNL     1      -4.478  -6.654  -6.436  0.00  0.00    -0.180 NA
ATOM     23  C   UNL     1      -3.828  -5.736  -5.485  0.00  0.00    +0.154 C 
ATOM     24  C   UNL     1      -2.306  -5.797  -5.631  0.00  0.00    +0.039 C 
ATOM     25  C   UNL     1      -5.713  -8.213  -3.433  0.00  0.00    +0.067 C 
ENDBRANCH  17  19
ENDBRANCH   3  17
TORSDOF 3
