REMARK  Name = ZINC29315125
REMARK  10 active torsions:
REMARK  status: ('A' for Active; 'I' for Inactive)
REMARK    1  A    between atoms: C_1  and  C_2
REMARK    2  A    between atoms: C_5  and  N_23
REMARK    3  A    between atoms: N_8  and  C_9
REMARK    4  A    between atoms: C_9  and  C_10
REMARK    5  A    between atoms: N_12  and  C_13
REMARK    6  A    between atoms: C_13  and  C_14
REMARK    7  A    between atoms: C_24  and  C_26
REMARK    8  A    between atoms: C_26  and  C_27
REMARK    9  A    between atoms: C_27  and  C_28
REMARK   10  A    between atoms: C_27  and  C_34
REMARK                            x       y       z     vdW  Elec       q    Type
REMARK                         _______ _______ _______ _____ _____    ______ ____
ROOT
ATOM      1  C   UNL     1      -5.123  -1.407  -3.365  0.00  0.00    +0.063 C 
ATOM      2  C   UNL     1      -3.966  -0.720  -2.686  0.00  0.00    +0.020 A 
ATOM      3  C   UNL     1      -2.945  -0.238  -3.430  0.00  0.00    +0.023 A 
ATOM      4  C   UNL     1      -1.865   0.403  -2.809  0.00  0.00    +0.030 A 
ATOM      5  C   UNL     1      -1.859   0.533  -1.447  0.00  0.00    +0.099 A 
ATOM      6  C   UNL     1      -2.938   0.012  -0.700  0.00  0.00    +0.273 A 
ATOM      7  O   UNL     1      -2.946   0.115   0.516  0.00  0.00    -0.266 OA
ATOM      8  N   UNL     1      -3.962  -0.593  -1.332  0.00  0.00    -0.302 N 
ENDROOT
BRANCH   5   9
ATOM      9  N   UNL     1      -0.791   1.169  -0.800  0.00  0.00    -0.281 N 
ATOM     10  C   UNL     1      -1.022   2.236  -0.008  0.00  0.00    +0.218 C 
ATOM     11  O   UNL     1      -2.160   2.592   0.213  0.00  0.00    -0.275 OA
ATOM     12  H   UNL     1       0.236   0.799  -0.938  0.00  0.00    +0.155 HD
BRANCH  10  13
ATOM     13  C   UNL     1       0.135   2.985   0.603  0.00  0.00    +0.109 C 
BRANCH  13  14
ATOM     14  C   UNL     1      -0.398   4.142   1.450  0.00  0.00    +0.058 C 
BRANCH  14  15
ATOM     15  C   UNL     1       0.757   4.964   1.961  0.00  0.00    -0.040 A 
ATOM     16  C   UNL     1       0.796   6.325   1.719  0.00  0.00    +0.004 A 
ATOM     17  C   UNL     1       1.854   7.080   2.192  0.00  0.00    +0.000 A 
ATOM     18  C   UNL     1       2.876   6.473   2.897  0.00  0.00    +0.000 A 
ATOM     19  C   UNL     1       2.839   5.111   3.134  0.00  0.00    +0.000 A 
ATOM     20  C   UNL     1       1.779   4.357   2.666  0.00  0.00    +0.004 A 
ENDBRANCH  14  15
BRANCH  14  21
ATOM     21  C   UNL     1      -1.178   3.593   2.617  0.00  0.00    -0.040 A 
ATOM     22  C   UNL     1      -0.613   2.632   3.435  0.00  0.00    +0.004 A 
ATOM     23  C   UNL     1      -1.327   2.132   4.508  0.00  0.00    +0.000 A 
ATOM     24  C   UNL     1      -2.609   2.584   4.757  0.00  0.00    +0.000 A 
ATOM     25  C   UNL     1      -3.176   3.541   3.935  0.00  0.00    +0.000 A 
ATOM     26  C   UNL     1      -2.461   4.045   2.865  0.00  0.00    +0.004 A 
ENDBRANCH  14  21
ENDBRANCH  13  14
ENDBRANCH  10  13
ENDBRANCH   5   9
BRANCH   8  27
ATOM     27  C   UNL     1      -5.081  -1.125  -0.551  0.00  0.00    +0.220 C 
BRANCH  27  28
ATOM     28  C   UNL     1      -4.792  -2.554  -0.168  0.00  0.00    +0.233 C 
ATOM     29  O   UNL     1      -3.753  -3.075  -0.513  0.00  0.00    -0.274 OA
ATOM     30  N   UNL     1      -5.688  -3.251   0.558  0.00  0.00    -0.314 N 
ATOM     31  H   UNL     1      -6.630  -2.777   0.871  0.00  0.00    +0.149 HD
BRANCH  30  32
ATOM     32  C   UNL     1      -5.407  -4.640   0.931  0.00  0.00    +0.107 C 
BRANCH  32  33
ATOM     33  C   UNL     1      -6.576  -5.196   1.746  0.00  0.00    +0.009 C 
ATOM     34  C   UNL     1      -6.683  -4.434   3.069  0.00  0.00    +0.024 C 
ATOM     35  C   UNL     1      -7.875  -4.969   3.868  0.00  0.00    +0.108 C 
ATOM     36  N   UNL     1      -7.728  -6.423   4.019  0.00  0.00    -0.305 N 
ATOM     37  C   UNL     1      -7.529  -7.242   2.816  0.00  0.00    +0.108 C 
ATOM     38  C   UNL     1      -6.340  -6.681   2.029  0.00  0.00    +0.024 C 
ATOM     39  C   UNL     1      -7.776  -7.006   5.263  0.00  0.00    +0.151 C 
ATOM     40  N   UNL     1      -7.537  -8.281   5.395  0.00  0.00    -0.375 N 
ATOM     41  N   UNL     1      -8.076  -6.245   6.368  0.00  0.00    -0.333 N 
ATOM     42  H   UNL     1      -7.575  -8.748   6.390  0.00  0.00    +0.158 HD
ATOM     43  H   UNL     1      -8.114  -6.712   7.363  0.00  0.00    +0.145 HD
ATOM     44  H   UNL     1      -8.278  -5.170   6.257  0.00  0.00    +0.145 HD
ATOM     45  H   UNL     1      -7.297  -8.890   4.511  0.00  0.00    +0.158 HD
ENDBRANCH  32  33
ENDBRANCH  30  32
ENDBRANCH  27  28
ENDBRANCH   8  27
TORSDOF 9
