REMARK  Name = ZINC38702817
REMARK  3 active torsions:
REMARK  status: ('A' for Active; 'I' for Inactive)
REMARK    1  A    between atoms: C_1  and  C_2
REMARK    2  A    between atoms: C_2  and  C_3
REMARK    3  A    between atoms: C_17  and  C_19
REMARK                            x       y       z     vdW  Elec       q    Type
REMARK                         _______ _______ _______ _____ _____    ______ ____
ROOT
ATOM      1  C   UNL     1      -1.412  -0.526   0.013  0.00  0.00    -0.047 A 
ATOM      2  C   UNL     1      -2.051  -0.766   1.221  0.00  0.00    +0.007 A 
ATOM      3  C   UNL     1      -3.341  -1.246   1.253  0.00  0.00    +0.047 A 
ATOM      4  C   UNL     1      -4.024  -1.495   0.062  0.00  0.00    +0.139 A 
ATOM      5  C   UNL     1      -3.369  -1.242  -1.154  0.00  0.00    +0.065 A 
ATOM      6  C   UNL     1      -2.062  -0.755  -1.168  0.00  0.00    +0.019 A 
ATOM      7  C   UNL     1      -4.093  -1.489  -2.426  0.00  0.00    +0.199 A 
ATOM      8  O   UNL     1      -3.553  -1.459  -3.518  0.00  0.00    -0.287 OA
ATOM      9  C   UNL     1      -5.521  -1.774  -2.244  0.00  0.00    +0.072 A 
ATOM     10  C   UNL     1      -6.041  -1.994  -1.000  0.00  0.00    +0.199 A 
ATOM     11  O   UNL     1      -5.288  -1.972   0.117  0.00  0.00    -0.450 OA
ATOM     12  C   UNL     1      -7.487  -2.241  -1.141  0.00  0.00    +0.281 C 
ATOM     13  O   UNL     1      -8.247  -2.468  -0.221  0.00  0.00    -0.267 OA
ATOM     14  N   UNL     1      -7.843  -2.178  -2.441  0.00  0.00    -0.298 N 
ATOM     15  C   UNL     1      -6.636  -1.882  -3.230  0.00  0.00    +0.141 C 
ATOM     16  H   UNL     1      -8.738  -2.305  -2.793  0.00  0.00    +0.150 HD
ENDROOT
BRANCH  15  17
ATOM     17  C   UNL     1      -6.805  -0.580  -3.970  0.00  0.00    -0.021 A 
ATOM     18  C   UNL     1      -7.483   0.469  -3.376  0.00  0.00    +0.007 A 
ATOM     19  C   UNL     1      -7.638   1.663  -4.053  0.00  0.00    +0.022 A 
ATOM     20  C   UNL     1      -7.116   1.811  -5.326  0.00  0.00    +0.059 A 
ATOM     21  C   UNL     1      -6.437   0.760  -5.920  0.00  0.00    +0.060 A 
ATOM     22  C   UNL     1      -6.277  -0.433  -5.239  0.00  0.00    +0.027 A 
ATOM     23 CL   UNL     1      -5.781   0.943  -7.517  0.00  0.00    -0.082 Cl
ATOM     24 CL   UNL     1      -7.312   3.311  -6.177  0.00  0.00    -0.082 Cl
ENDBRANCH  15  17
BRANCH   1  26
ATOM     25  C   UNL     1      -0.019   1.526   0.010  0.00  0.00    +0.009 C 
ATOM     26  C   UNL     1       0.002  -0.004   0.002  0.00  0.00    +0.032 C 
ENDBRANCH   1  26
TORSDOF 2
