REMARK  Name = ZINC21973338
REMARK  11 active torsions:
REMARK  status: ('A' for Active; 'I' for Inactive)
REMARK    1  A    between atoms: C_1  and  C_2
REMARK    2  A    between atoms: C_6  and  N_9
REMARK    3  A    between atoms: C_7  and  C_8
REMARK    4  A    between atoms: C_10  and  C_12
REMARK    5  A    between atoms: C_12  and  O_13
REMARK    6  A    between atoms: O_13  and  C_14
REMARK    7  A    between atoms: C_14  and  C_16
REMARK    8  A    between atoms: C_16  and  N_17
REMARK    9  A    between atoms: C_22  and  C_29
REMARK   10  A    between atoms: C_25  and  C_27
REMARK   11  A    between atoms: C_25  and  C_28
REMARK                            x       y       z     vdW  Elec       q    Type
REMARK                         _______ _______ _______ _____ _____    ______ ____
ROOT
ATOM      1  C   UNL     1       1.410   3.877   3.328  0.00  0.00    +0.238 C 
ENDROOT
BRANCH   1   2
ATOM      2  N   UNL     1       0.624   2.807   2.710  0.00  0.00    -0.213 N 
ATOM      3  C   UNL     1      -0.208   2.986   1.661  0.00  0.00    +0.247 C 
ATOM      4  O   UNL     1      -0.523   4.051   1.173  0.00  0.00    -0.273 OA
ATOM      5  C   UNL     1      -0.670   1.605   1.263  0.00  0.00    +0.113 C 
ATOM      6  C   UNL     1      -2.190   1.527   1.248  0.00  0.00    +0.038 C 
ATOM      7  C   UNL     1      -2.744   2.249   0.019  0.00  0.00    -0.011 C 
ATOM      8  C   UNL     1      -2.220   1.546  -1.232  0.00  0.00    +0.009 C 
ATOM      9  C   UNL     1      -0.699   1.641  -1.303  0.00  0.00    -0.032 C 
ATOM     10  C   UNL     1      -0.033   1.143  -0.031  0.00  0.00    +0.041 C 
ATOM     11  C   UNL     1      -0.273   3.077  -1.617  0.00  0.00    +0.011 C 
ATOM     12  C   UNL     1      -0.226   0.750  -2.471  0.00  0.00    +0.011 C 
ATOM     13  C   UNL     1      -4.274   2.177   0.038  0.00  0.00    +0.007 C 
ATOM     14  N   UNL     1      -0.163   0.753   2.364  0.00  0.00    -0.285 N 
ATOM     15  C   UNL     1       0.636   1.532   3.112  0.00  0.00    +0.310 C 
ATOM     16  O   UNL     1       1.297   1.124   4.047  0.00  0.00    -0.252 OA
ATOM     17  H   UNL     1      -0.470  -0.301   2.428  0.00  0.00    +0.151 HD
ENDBRANCH   1   2
BRANCH   1  18
ATOM     18  C   UNL     1       2.751   3.972   2.647  0.00  0.00    +0.326 C 
ATOM     19  O   UNL     1       3.022   3.223   1.738  0.00  0.00    -0.249 OA
BRANCH  18  20
ATOM     20  O   UNL     1       3.645   4.889   3.050  0.00  0.00    -0.454 OA
BRANCH  20  21
ATOM     21  C   UNL     1       4.916   4.924   2.348  0.00  0.00    +0.328 C 
BRANCH  21  23
ATOM     22  N   UNL     1       7.017   6.225   2.437  0.00  0.00    -0.282 N 
ATOM     23  C   UNL     1       5.784   6.008   2.933  0.00  0.00    +0.255 C 
ATOM     24  O   UNL     1       5.372   6.684   3.852  0.00  0.00    -0.272 OA
ATOM     25  H   UNL     1       7.426   5.554   1.666  0.00  0.00    +0.155 HD
BRANCH  22  31
ATOM     26  C   UNL     1      11.416   8.288   3.188  0.00  0.00    +0.044 C 
ATOM     27  C   UNL     1       9.912   8.330   3.277  0.00  0.00    -0.046 A 
ATOM     28  C   UNL     1       9.283   9.437   3.817  0.00  0.00    +0.004 A 
ATOM     29  C   UNL     1       7.904   9.479   3.901  0.00  0.00    +0.002 A 
ATOM     30  C   UNL     1       7.150   8.416   3.444  0.00  0.00    +0.023 A 
ATOM     31  C   UNL     1       7.778   7.304   2.901  0.00  0.00    +0.037 A 
ATOM     32  C   UNL     1       9.165   7.261   2.824  0.00  0.00    -0.026 A 
ATOM     33  C   UNL     1       9.851   6.053   2.241  0.00  0.00    +0.046 C 
ENDBRANCH  22  31
ENDBRANCH  21  23
ENDBRANCH  20  21
ENDBRANCH  18  20
ENDBRANCH   1  18
TORSDOF 6
