REMARK  Name = ZINC35757058
REMARK  9 active torsions:
REMARK  status: ('A' for Active; 'I' for Inactive)
REMARK    1  A    between atoms: C_1  and  C_2
REMARK    2  A    between atoms: C_7  and  C_8
REMARK    3  A    between atoms: C_8  and  N_9
REMARK    4  A    between atoms: C_10  and  C_32
REMARK    5  A    between atoms: C_12  and  C_17
REMARK    6  A    between atoms: C_20  and  N_23
REMARK    7  A    between atoms: C_24  and  C_26
REMARK    8  A    between atoms: N_34  and  C_35
REMARK    9  A    between atoms: C_35  and  C_36
REMARK                            x       y       z     vdW  Elec       q    Type
REMARK                         _______ _______ _______ _____ _____    ______ ____
ROOT
ATOM      1  N   UNL     1      -1.508   0.555   2.721  0.00  0.00    -0.248 N 
ATOM      2  C   UNL     1      -2.407   1.651   2.308  0.00  0.00    +0.210 C 
ATOM      3  C   UNL     1      -3.646   1.413   3.204  0.00  0.00    +0.238 C 
ATOM      4  O   UNL     1      -3.537   0.008   3.500  0.00  0.00    -0.440 OA
ATOM      5  C   UNL     1      -2.241  -0.338   3.412  0.00  0.00    +0.405 C 
ATOM      6  O   UNL     1      -1.780  -1.347   3.907  0.00  0.00    -0.226 OA
ENDROOT
BRANCH   3   7
ATOM      7  C   UNL     1      -4.918   1.708   2.452  0.00  0.00    -0.005 A 
ATOM      8  C   UNL     1      -5.495   0.731   1.661  0.00  0.00    +0.009 A 
ATOM      9  C   UNL     1      -6.661   0.998   0.971  0.00  0.00    +0.024 A 
ATOM     10  C   UNL     1      -7.254   2.249   1.071  0.00  0.00    +0.034 A 
ATOM     11  C   UNL     1      -6.673   3.229   1.866  0.00  0.00    +0.024 A 
ATOM     12  C   UNL     1      -5.510   2.954   2.558  0.00  0.00    +0.009 A 
BRANCH  10  13
ATOM     13  N   UNL     1      -8.435   2.523   0.373  0.00  0.00    -0.282 N 
ATOM     14  C   UNL     1      -9.340   1.545   0.171  0.00  0.00    +0.248 C 
ATOM     15  O   UNL     1      -9.174   0.450   0.672  0.00  0.00    -0.270 OA
ATOM     16  H   UNL     1      -8.602   3.416   0.035  0.00  0.00    +0.155 HD
BRANCH  14  17
ATOM     17  C   UNL     1     -10.535   1.805  -0.659  0.00  0.00    +0.037 A 
ATOM     18  C   UNL     1     -10.726   3.060  -1.240  0.00  0.00    +0.013 A 
ATOM     19  C   UNL     1     -11.843   3.295  -2.015  0.00  0.00    +0.001 A 
ATOM     20  C   UNL     1     -12.774   2.291  -2.216  0.00  0.00    +0.000 A 
ATOM     21  C   UNL     1     -12.591   1.045  -1.642  0.00  0.00    +0.001 A 
ATOM     22  C   UNL     1     -11.475   0.794  -0.871  0.00  0.00    +0.013 A 
ENDBRANCH  14  17
ENDBRANCH  10  13
ENDBRANCH   3   7
BRANCH   2  23
ATOM     23  C   UNL     1      -2.764   1.531   0.849  0.00  0.00    +0.238 C 
ATOM     24  O   UNL     1      -2.614   0.475   0.272  0.00  0.00    -0.274 OA
ATOM     25  N   UNL     1      -3.250   2.598   0.184  0.00  0.00    -0.311 N 
ATOM     26  H   UNL     1      -3.370   3.443   0.645  0.00  0.00    +0.149 HD
BRANCH  25  27
ATOM     27  C   UNL     1      -3.597   2.482  -1.235  0.00  0.00    +0.135 C 
BRANCH  27  28
ATOM     28  C   UNL     1      -4.121   3.826  -1.743  0.00  0.00    +0.135 C 
ATOM     29  C   UNL     1      -4.602   3.682  -3.203  0.00  0.00    +0.035 C 
ATOM     30  C   UNL     1      -4.124   5.015  -3.841  0.00  0.00    +0.031 C 
ATOM     31  C   UNL     1      -2.805   5.256  -3.064  0.00  0.00    +0.160 C 
ATOM     32  O   UNL     1      -3.068   4.796  -1.727  0.00  0.00    -0.375 OA
ENDBRANCH  27  28
ENDBRANCH  25  27
ENDBRANCH   2  23
BRANCH   1  33
ATOM     33  C   UNL     1      -0.077   0.454   2.425  0.00  0.00    +0.147 C 
BRANCH  33  40
ATOM     34  C   UNL     1      -0.198  -2.413   2.090  0.00  0.00    +0.044 C 
ATOM     35  C   UNL     1       0.054  -1.526   0.899  0.00  0.00    -0.046 A 
ATOM     36  C   UNL     1       0.223  -2.083  -0.355  0.00  0.00    +0.003 A 
ATOM     37  C   UNL     1       0.454  -1.268  -1.448  0.00  0.00    +0.000 A 
ATOM     38  C   UNL     1       0.517   0.103  -1.286  0.00  0.00    +0.000 A 
ATOM     39  C   UNL     1       0.348   0.660  -0.033  0.00  0.00    +0.005 A 
ATOM     40  C   UNL     1       0.112  -0.154   1.059  0.00  0.00    -0.027 A 
ENDBRANCH  33  40
ENDBRANCH   1  33
TORSDOF 8
