REMARK  Name = ZINC20207515
REMARK  9 active torsions:
REMARK  status: ('A' for Active; 'I' for Inactive)
REMARK    1  A    between atoms: C_1  and  C_2
REMARK    2  A    between atoms: C_7  and  O_8
REMARK    3  A    between atoms: O_8  and  C_9
REMARK    4  A    between atoms: C_9  and  C_10
REMARK    5  A    between atoms: C_10  and  O_11
REMARK    6  A    between atoms: O_11  and  C_12
REMARK    7  A    between atoms: C_15  and  C_18
REMARK    8  A    between atoms: C_28  and  S_30
REMARK    9  A    between atoms: S_30  and  C_33
REMARK                            x       y       z     vdW  Elec       q    Type
REMARK                         _______ _______ _______ _____ _____    ______ ____
ROOT
ATOM      1  C   UNL     1      -1.571   1.793   5.918  0.00  0.00    +0.121 A 
ATOM      2  C   UNL     1      -0.669   1.754   6.977  0.00  0.00    +0.046 A 
ATOM      3  C   UNL     1      -0.760   2.666   7.990  0.00  0.00    +0.011 A 
ATOM      4  C   UNL     1      -1.766   3.643   7.962  0.00  0.00    -0.024 A 
ATOM      5  C   UNL     1      -2.672   3.677   6.892  0.00  0.00    +0.011 A 
ATOM      6  C   UNL     1      -2.567   2.764   5.882  0.00  0.00    +0.046 A 
ENDROOT
BRANCH   4   7
ATOM      7  C   UNL     1      -1.869   4.623   9.045  0.00  0.00    +0.024 C 
ATOM      8  C   UNL     1      -0.733   5.065   9.684  0.00  0.00    +0.081 C 
ATOM      9  C   UNL     1       0.630   4.717   9.193  0.00  0.00    +0.153 C 
ATOM     10  N   UNL     1       0.918   4.559   7.928  0.00  0.00    -0.283 NA
ATOM     11  N   UNL     1       1.580   4.576  10.227  0.00  0.00    -0.150 N 
ATOM     12  C   UNL     1       1.323   5.220  11.419  0.00  0.00    +0.182 C 
ATOM     13  N   UNL     1       0.244   5.883  11.752  0.00  0.00    -0.152 NA
ATOM     14  C   UNL     1      -0.800   5.918  10.897  0.00  0.00    +0.273 C 
ATOM     15  O   UNL     1      -1.770   6.625  11.115  0.00  0.00    -0.268 OA
ATOM     16  S   UNL     1       2.799   4.889  12.345  0.00  0.00    -0.015 S 
ATOM     17  C   UNL     1       3.604   3.845  11.138  0.00  0.00    +0.235 C 
ATOM     18  N   UNL     1       2.754   3.857  10.151  0.00  0.00    -0.145 NA
ATOM     19  H   UNL     1       1.823   4.334   7.662  0.00  0.00    +0.188 HD
BRANCH  17  20
ATOM     20  S   UNL     1       5.152   3.011  11.253  0.00  0.00    +0.019 S 
ATOM     21  O   UNL     1       5.298   2.707  12.634  0.00  0.00    -0.168 OA
ATOM     22  O   UNL     1       5.077   1.972  10.287  0.00  0.00    -0.168 OA
ATOM     23  C   UNL     1       6.384   4.244  10.752  0.00  0.00    +0.202 C 
ENDBRANCH  17  20
ENDBRANCH   4   7
BRANCH   1  24
ATOM     24  O   UNL     1      -1.476   0.885   4.915  0.00  0.00    -0.489 OA
BRANCH  24  25
ATOM     25  C   UNL     1      -0.430  -0.084   5.015  0.00  0.00    +0.270 C 
BRANCH  25  26
ATOM     26  C   UNL     1      -0.481  -1.016   3.802  0.00  0.00    +0.270 C 
BRANCH  26  27
ATOM     27  O   UNL     1      -0.194  -0.271   2.617  0.00  0.00    -0.488 OA
BRANCH  27  34
ATOM     28  C   UNL     1       0.369   1.184   0.262  0.00  0.00    +0.047 C 
ATOM     29  C   UNL     1       0.071  -0.293   0.253  0.00  0.00    -0.009 A 
ATOM     30  C   UNL     1       0.071  -0.992  -0.939  0.00  0.00    +0.007 A 
ATOM     31  C   UNL     1      -0.203  -2.347  -0.948  0.00  0.00    +0.000 A 
ATOM     32  C   UNL     1      -0.478  -3.007   0.235  0.00  0.00    +0.004 A 
ATOM     33  C   UNL     1      -0.479  -2.313   1.430  0.00  0.00    +0.046 A 
ATOM     34  C   UNL     1      -0.199  -0.954   1.442  0.00  0.00    +0.124 A 
ENDBRANCH  27  34
ENDBRANCH  26  27
ENDBRANCH  25  26
ENDBRANCH  24  25
ENDBRANCH   1  24
TORSDOF 7
