REMARK  Name = ZINC03415644
REMARK  8 active torsions:
REMARK  status: ('A' for Active; 'I' for Inactive)
REMARK    1  A    between atoms: C_1  and  N_49
REMARK    2  A    between atoms: C_2  and  C_3
REMARK    3  A    between atoms: C_2  and  N_49
REMARK    4  A    between atoms: C_3  and  O_4
REMARK    5  A    between atoms: O_4  and  C_5
REMARK    6  A    between atoms: C_11  and  C_12
REMARK    7  A    between atoms: C_11  and  N_49
REMARK    8  A    between atoms: C_18  and  C_23
REMARK                            x       y       z     vdW  Elec       q    Type
REMARK                         _______ _______ _______ _____ _____    ______ ____
ROOT
ATOM      1  C   UNL     1      -4.299   1.135   2.282  0.00  0.00    +0.094 A 
ATOM      2  N   UNL     1      -5.221   1.588   3.170  0.00  0.00    -0.312 N 
ATOM      3  H   UNL     1      -4.947   2.205   3.867  0.00  0.00    +0.170 HD
ATOM      4  C   UNL     1      -6.509   1.202   3.099  0.00  0.00    +0.260 A 
ATOM      5  O   UNL     1      -7.325   1.621   3.901  0.00  0.00    -0.267 OA
ATOM      6  C   UNL     1      -6.903   0.286   2.072  0.00  0.00    +0.080 A 
ATOM      7  C   UNL     1      -8.218  -0.279   1.794  0.00  0.00    +0.004 A 
ATOM      8  C   UNL     1      -8.352  -1.136   0.754  0.00  0.00    +0.056 A 
ATOM      9  S   UNL     1      -6.704  -1.234   0.084  0.00  0.00    -0.076 S 
ATOM     10  C   UNL     1      -5.880  -0.132   1.204  0.00  0.00    +0.116 A 
ATOM     11  N   UNL     1      -4.628   0.299   1.334  0.00  0.00    -0.229 NA
ENDROOT
BRANCH   7  12
ATOM     12  C   UNL     1      -9.386   0.078   2.635  0.00  0.00    -0.016 A 
ATOM     13  C   UNL     1      -9.301  -0.010   4.024  0.00  0.00    +0.010 A 
ATOM     14  C   UNL     1     -10.390   0.328   4.801  0.00  0.00    +0.020 A 
ATOM     15  C   UNL     1     -11.568   0.744   4.204  0.00  0.00    +0.041 A 
ATOM     16  C   UNL     1     -11.659   0.828   2.825  0.00  0.00    +0.020 A 
ATOM     17  C   UNL     1     -10.575   0.497   2.039  0.00  0.00    +0.010 A 
ATOM     18 CL   UNL     1     -12.936   1.161   5.188  0.00  0.00    -0.084 Cl
ENDBRANCH   7  12
BRANCH   1  19
ATOM     19  C   UNL     1      -2.870   1.600   2.396  0.00  0.00    -0.003 C 
BRANCH  19  21
ATOM     20  C   UNL     1      -1.977  -0.478   1.534  0.00  0.00    -0.095 C 
ATOM     21  N   UNL     1      -2.079   0.980   1.313  0.00  0.00    +0.385 N 
ATOM     22  H   UNL     1      -2.550   1.149   0.417  0.00  0.00    -0.081 HD
BRANCH  21  23
ATOM     23  C   UNL     1      -0.729   1.579   1.267  0.00  0.00    -0.037 C 
BRANCH  23  24
ATOM     24  C   UNL     1      -0.013   1.086   0.008  0.00  0.00    +0.210 C 
BRANCH  24  25
ATOM     25  O   UNL     1      -0.704   1.559  -1.150  0.00  0.00    -0.494 OA
BRANCH  25  26
ATOM     26  C   UNL     1      -0.194   1.208  -2.359  0.00  0.00    +0.120 A 
ATOM     27  C   UNL     1       0.951   0.428  -2.431  0.00  0.00    +0.045 A 
ATOM     28  C   UNL     1       1.464   0.067  -3.662  0.00  0.00    +0.004 A 
ATOM     29  C   UNL     1       0.844   0.492  -4.822  0.00  0.00    +0.000 A 
ATOM     30  C   UNL     1      -0.294   1.274  -4.753  0.00  0.00    +0.004 A 
ATOM     31  C   UNL     1      -0.815   1.633  -3.525  0.00  0.00    +0.045 A 
ENDBRANCH  25  26
ENDBRANCH  24  25
ENDBRANCH  23  24
ENDBRANCH  21  23
ENDBRANCH  19  21
ENDBRANCH   1  19
TORSDOF 7
