REMARK  Name = ZINC11424092
REMARK  7 active torsions:
REMARK  status: ('A' for Active; 'I' for Inactive)
REMARK    1  A    between atoms: C_1  and  C_2
REMARK    2  A    between atoms: C_2  and  C_30
REMARK    3  A    between atoms: C_4  and  N_9
REMARK    4  A    between atoms: C_6  and  C_7
REMARK    5  A    between atoms: C_6  and  C_8
REMARK    6  A    between atoms: C_10  and  C_12
REMARK    7  A    between atoms: C_19  and  C_24
REMARK                            x       y       z     vdW  Elec       q    Type
REMARK                         _______ _______ _______ _____ _____    ______ ____
ROOT
ATOM      1  C   UNL     1      -0.421   9.437   2.644  0.00  0.00    +0.037 A 
ATOM      2  C   UNL     1      -0.962  10.071   1.524  0.00  0.00    +0.014 A 
ATOM      3  C   UNL     1      -1.249   9.338   0.392  0.00  0.00    +0.016 A 
ATOM      4  C   UNL     1      -0.997   7.967   0.369  0.00  0.00    +0.062 A 
ATOM      5  C   UNL     1      -0.459   7.330   1.488  0.00  0.00    -0.029 A 
ATOM      6  C   UNL     1      -0.172   8.065   2.620  0.00  0.00    +0.017 A 
ATOM      7  C   UNL     1      -0.190   5.848   1.470  0.00  0.00    +0.085 C 
ATOM      8  C   UNL     1      -0.070   5.347   0.031  0.00  0.00    +0.211 C 
ATOM      9  O   UNL     1      -1.212   5.822  -0.741  0.00  0.00    -0.453 OA
ATOM     10  C   UNL     1      -1.294   7.173  -0.848  0.00  0.00    +0.340 C 
ATOM     11  O   UNL     1      -1.596   7.708  -1.895  0.00  0.00    -0.245 OA
ENDROOT
BRANCH   8  12
ATOM     12  C   UNL     1      -0.050   3.840   0.022  0.00  0.00    -0.007 A 
ATOM     13  C   UNL     1       1.156   3.165   0.008  0.00  0.00    +0.007 A 
ATOM     14  C   UNL     1       1.175   1.783   0.000  0.00  0.00    +0.000 A 
ATOM     15  C   UNL     1      -0.013   1.076   0.008  0.00  0.00    +0.000 A 
ATOM     16  C   UNL     1      -1.219   1.751   0.017  0.00  0.00    +0.000 A 
ATOM     17  C   UNL     1      -1.238   3.133   0.029  0.00  0.00    +0.007 A 
ENDBRANCH   8  12
BRANCH   1  19
ATOM     18  N   UNL     1      -0.353  11.549   3.885  0.00  0.00    -0.309 N 
ATOM     19  C   UNL     1      -0.113  10.223   3.860  0.00  0.00    +0.244 C 
ATOM     20  O   UNL     1       0.358   9.673   4.836  0.00  0.00    -0.270 OA
ATOM     21  H   UNL     1      -0.729  11.988   3.106  0.00  0.00    +0.149 HD
BRANCH  18  25
ATOM     22  C   UNL     1       1.910  14.363   6.409  0.00  0.00    -0.010 C 
ATOM     23  C   UNL     1       0.474  14.630   5.942  0.00  0.00    -0.072 C 
ATOM     24  C   UNL     1       0.176  13.790   4.702  0.00  0.00    +0.009 C 
ATOM     25  C   UNL     1      -0.047  12.328   5.091  0.00  0.00    +0.071 C 
ATOM     26  C   UNL     1      -1.233  12.256   6.051  0.00  0.00    +0.009 C 
ATOM     27  C   UNL     1      -0.950  13.077   7.307  0.00  0.00    -0.072 C 
ATOM     28  C   UNL     1       0.038  12.320   8.202  0.00  0.00    -0.010 C 
ATOM     29  C   UNL     1      -2.276  13.199   8.092  0.00  0.00    -0.010 C 
ATOM     30  C   UNL     1       0.399  16.116   5.525  0.00  0.00    -0.010 C 
ATOM     31  N   UNL     1      -0.499  14.472   7.056  0.00  0.00    +0.386 N 
ATOM     32  H   UNL     1      -1.326  15.039   6.838  0.00  0.00    -0.084 HD
ATOM     33  H   UNL     1      -0.059  14.823   7.914  0.00  0.00    -0.084 HD
ENDBRANCH  18  25
ENDBRANCH   1  19
TORSDOF 3
