REMARK  Name = ZINC21866012
REMARK  12 active torsions:
REMARK  status: ('A' for Active; 'I' for Inactive)
REMARK    1  A    between atoms: C_1  and  C_2
REMARK    2  A    between atoms: N_4  and  C_5
REMARK    3  A    between atoms: C_8  and  O_34
REMARK    4  A    between atoms: N_16  and  C_29
REMARK    5  A    between atoms: C_17  and  C_19
REMARK    6  A    between atoms: C_17  and  C_20
REMARK    7  A    between atoms: N_22  and  C_23
REMARK    8  A    between atoms: C_29  and  C_30
REMARK    9  A    between atoms: C_30  and  N_31
REMARK   10  A    between atoms: N_31  and  C_32
REMARK   11  A    between atoms: N_31  and  C_33
REMARK   12  A    between atoms: O_34  and  C_35
REMARK                            x       y       z     vdW  Elec       q    Type
REMARK                         _______ _______ _______ _____ _____    ______ ____
ROOT
ATOM      1  C   UNL     1       0.550   5.396   1.301  0.00  0.00    +0.072 A 
ATOM      2  C   UNL     1      -0.698   5.251   0.566  0.00  0.00    +0.025 A 
ATOM      3  C   UNL     1      -1.228   5.963  -0.517  0.00  0.00    +0.057 A 
ATOM      4  C   UNL     1      -2.464   5.551  -0.990  0.00  0.00    +0.121 A 
ATOM      5  C   UNL     1      -3.147   4.484  -0.418  0.00  0.00    +0.047 A 
ATOM      6  C   UNL     1      -2.641   3.771   0.652  0.00  0.00    +0.030 A 
ATOM      7  C   UNL     1      -1.398   4.164   1.152  0.00  0.00    +0.052 A 
ATOM      8  N   UNL     1      -0.644   3.683   2.175  0.00  0.00    -0.332 N 
ATOM      9  C   UNL     1       0.546   4.420   2.261  0.00  0.00    +0.127 A 
ATOM     10  C   UNL     1       1.558   4.097   3.272  0.00  0.00    +0.266 C 
ATOM     11  O   UNL     1       2.512   4.825   3.479  0.00  0.00    -0.268 OA
ATOM     12  N   UNL     1       1.379   2.946   3.961  0.00  0.00    -0.282 N 
ATOM     13  C   UNL     1       0.387   1.955   3.560  0.00  0.00    +0.128 C 
ATOM     14  C   UNL     1      -0.929   2.589   3.113  0.00  0.00    +0.157 C 
ATOM     15  C   UNL     1       0.112   1.026   4.744  0.00  0.00    +0.043 C 
ENDROOT
BRANCH   1  19
ATOM     16  C   UNL     1       2.463   8.629   1.262  0.00  0.00    +0.109 C 
ATOM     17  C   UNL     1       1.444   7.573   1.605  0.00  0.00    +0.214 C 
ATOM     18  O   UNL     1       0.530   7.833   2.358  0.00  0.00    -0.276 OA
ATOM     19  N   UNL     1       1.548   6.339   1.073  0.00  0.00    -0.283 N 
ATOM     20  H   UNL     1       2.422   6.076   0.459  0.00  0.00    +0.155 HD
ENDBRANCH   1  19
BRANCH  13  21
ATOM     21  C   UNL     1       0.945   1.141   2.421  0.00  0.00    +0.238 C 
ATOM     22  O   UNL     1       0.697  -0.044   2.345  0.00  0.00    -0.273 OA
ATOM     23  N   UNL     1       1.719   1.729   1.488  0.00  0.00    -0.311 N 
ATOM     24  H   UNL     1       1.944   2.804   1.558  0.00  0.00    +0.149 HD
BRANCH  23  25
ATOM     25  C   UNL     1       2.261   0.938   0.381  0.00  0.00    +0.073 C 
ATOM     26  C   UNL     1       3.562   0.264   0.825  0.00  0.00    +0.022 C 
ATOM     27  C   UNL     1       4.128  -0.563  -0.331  0.00  0.00    +0.002 C 
ATOM     28  C   UNL     1       4.409   0.354  -1.524  0.00  0.00    +0.000 C 
ATOM     29  C   UNL     1       3.109   1.027  -1.967  0.00  0.00    +0.002 C 
ATOM     30  C   UNL     1       2.543   1.854  -0.811  0.00  0.00    +0.022 C 
ENDBRANCH  23  25
ENDBRANCH  13  21
BRANCH   4  31
ATOM     31  O   UNL     1      -3.024   6.209  -2.041  0.00  0.00    -0.495 OA
ATOM     32  C   UNL     1      -4.299   5.747  -2.491  0.00  0.00    +0.277 C 
ENDBRANCH   4  31
BRANCH  12  33
ATOM     33  C   UNL     1       2.205   2.689   5.143  0.00  0.00    +0.091 C 
BRANCH  33  34
ATOM     34  C   UNL     1       3.477   1.949   4.725  0.00  0.00    -0.060 C 
BRANCH  34  35
ATOM     35  N   UNL     1       4.306   1.691   5.910  0.00  0.00    +0.377 N 
ATOM     36  C   UNL     1       5.414   0.781   5.590  0.00  0.00    -0.097 C 
ATOM     37  C   UNL     1       4.805   2.946   6.487  0.00  0.00    -0.097 C 
ATOM     38  H   UNL     1       3.673   1.200   6.665  0.00  0.00    -0.083 HD
ENDBRANCH  34  35
ENDBRANCH  33  34
ENDBRANCH  12  33
TORSDOF 7
