REMARK  Name = ZINC62725385
REMARK  5 active torsions:
REMARK  status: ('A' for Active; 'I' for Inactive)
REMARK    1  A    between atoms: C_1  and  C_2
REMARK    2  A    between atoms: C_3  and  N_20
REMARK    3  A    between atoms: C_7  and  N_8
REMARK    4  A    between atoms: N_8  and  C_9
REMARK    5  A    between atoms: C_9  and  C_10
REMARK                            x       y       z     vdW  Elec       q    Type
REMARK                         _______ _______ _______ _____ _____    ______ ____
ROOT
ATOM      1  N   UNL     1       0.026  -0.016   2.413  0.00  0.00    -0.340 N 
ATOM      2  H   UNL     1       0.013   0.954   2.421  0.00  0.00    +0.146 HD
ENDROOT
BRANCH   1   9
ATOM      3  C   UNL     1      -0.018   1.503   0.010  0.00  0.00    +0.047 C 
ATOM      4  C   UNL     1       0.002  -0.004   0.002  0.00  0.00    -0.009 A 
ATOM      5  C   UNL     1       0.006  -0.693  -1.203  0.00  0.00    +0.029 A 
ATOM      6  C   UNL     1       0.025  -2.082  -1.207  0.00  0.00    +0.023 A 
ATOM      7  C   UNL     1       0.040  -2.778  -0.013  0.00  0.00    +0.004 A 
ATOM      8  C   UNL     1       0.035  -2.096   1.188  0.00  0.00    +0.023 A 
ATOM      9  C   UNL     1       0.023  -0.706   1.199  0.00  0.00    +0.032 A 
BRANCH   5  10
ATOM     10  N   UNL     1      -0.010   0.009  -2.410  0.00  0.00    -0.358 N 
ATOM     11  H   UNL     1      -0.023   0.979  -2.406  0.00  0.00    +0.142 HD
ATOM     12  H   UNL     1      -0.007  -0.472  -3.252  0.00  0.00    +0.142 HD
ENDBRANCH   5  10
ENDBRANCH   1   9
BRANCH   1  13
ATOM     13  C   UNL     1       0.048  -0.758   3.677  0.00  0.00    +0.146 C 
BRANCH  13  14
ATOM     14  C   UNL     1       0.046   0.228   4.847  0.00  0.00    +0.195 C 
ATOM     15  C   UNL     1       0.133  -0.524   6.197  0.00  0.00    +0.085 C 
ATOM     16  C   UNL     1       1.002   0.408   7.019  0.00  0.00    -0.002 A 
ATOM     17  C   UNL     1       1.248   0.490   8.371  0.00  0.00    +0.007 A 
ATOM     18  C   UNL     1       2.098   1.465   8.862  0.00  0.00    +0.000 A 
ATOM     19  C   UNL     1       2.699   2.354   7.989  0.00  0.00    +0.004 A 
ATOM     20  C   UNL     1       2.457   2.271   6.634  0.00  0.00    +0.046 A 
ATOM     21  C   UNL     1       1.605   1.290   6.132  0.00  0.00    +0.124 A 
ATOM     22  O   UNL     1       1.243   1.024   4.844  0.00  0.00    -0.487 OA
ENDBRANCH  13  14
ENDBRANCH   1  13
TORSDOF 4
