REMARK  Name = ZINC42096911
REMARK  9 active torsions:
REMARK  status: ('A' for Active; 'I' for Inactive)
REMARK    1  A    between atoms: C_1  and  C_2
REMARK    2  A    between atoms: C_2  and  C_3
REMARK    3  A    between atoms: C_2  and  C_4
REMARK    4  A    between atoms: C_4  and  C_6
REMARK    5  A    between atoms: C_4  and  N_13
REMARK    6  A    between atoms: N_13  and  C_14
REMARK    7  A    between atoms: C_17  and  S_23
REMARK    8  A    between atoms: C_19  and  N_20
REMARK    9  A    between atoms: S_23  and  N_26
REMARK                            x       y       z     vdW  Elec       q    Type
REMARK                         _______ _______ _______ _____ _____    ______ ____
ROOT
ATOM      1  C   UNL     1      -2.496  -2.749   0.690  0.00  0.00    +0.058 A 
ATOM      2  C   UNL     1      -3.605  -2.061   1.166  0.00  0.00    +0.027 A 
ATOM      3  C   UNL     1      -4.682  -2.760   1.676  0.00  0.00    +0.030 A 
ATOM      4  C   UNL     1      -4.656  -4.142   1.714  0.00  0.00    +0.107 A 
ATOM      5  C   UNL     1      -3.553  -4.829   1.242  0.00  0.00    +0.063 A 
ATOM      6  C   UNL     1      -2.475  -4.137   0.725  0.00  0.00    +0.149 A 
ENDROOT
BRANCH   6   7
ATOM      7  N   UNL     1      -1.297  -4.873   0.214  0.00  0.00    +0.058 N 
ATOM      8  O   UNL     1      -1.323  -6.080   0.144  0.00  0.00    -0.126 OA
ATOM      9  O   UNL     1      -0.310  -4.269  -0.133  0.00  0.00    -0.126 OA
ENDBRANCH   6   7
BRANCH   4  10
ATOM     10  S   UNL     1      -6.032  -5.029   2.365  0.00  0.00    +0.056 S 
ATOM     11  O   UNL     1      -5.536  -6.291   2.792  0.00  0.00    -0.153 OA
ATOM     12  O   UNL     1      -6.709  -4.141   3.243  0.00  0.00    -0.153 OA
BRANCH  10  13
ATOM     13  N   UNL     1      -7.064  -5.328   1.105  0.00  0.00    -0.204 NA
ATOM     14  H   UNL     1      -6.841  -5.019   0.213  0.00  0.00    +0.144 HD
ATOM     15  H   UNL     1      -7.890  -5.811   1.259  0.00  0.00    +0.144 HD
ENDBRANCH  10  13
ENDBRANCH   4  10
BRANCH   1  16
ATOM     16  N   UNL     1      -1.405  -2.045   0.173  0.00  0.00    -0.335 N 
ATOM     17  H   UNL     1      -0.598  -2.520  -0.081  0.00  0.00    +0.147 HD
BRANCH  16  18
ATOM     18  C   UNL     1      -1.480  -0.591   0.015  0.00  0.00    +0.103 C 
BRANCH  18  19
ATOM     19  C   UNL     1      -2.230  -0.261  -1.251  0.00  0.00    -0.027 A 
ATOM     20  C   UNL     1      -2.028  -1.018  -2.390  0.00  0.00    +0.008 A 
ATOM     21  C   UNL     1      -2.715  -0.717  -3.551  0.00  0.00    +0.038 A 
ATOM     22  C   UNL     1      -3.606   0.343  -3.572  0.00  0.00    +0.123 A 
ATOM     23  C   UNL     1      -3.807   1.100  -2.430  0.00  0.00    +0.038 A 
ATOM     24  C   UNL     1      -3.123   0.794  -1.269  0.00  0.00    +0.008 A 
ATOM     25  F   UNL     1      -4.278   0.638  -4.706  0.00  0.00    -0.205 F 
ENDBRANCH  18  19
BRANCH  18  27
ATOM     26  C   UNL     1      -0.141   1.514  -0.119  0.00  0.00    +0.009 C 
ATOM     27  C   UNL     1      -0.066  -0.013  -0.065  0.00  0.00    +0.007 C 
ATOM     28  C   UNL     1       0.730  -0.441   1.169  0.00  0.00    +0.009 C 
ENDBRANCH  18  27
ENDBRANCH  16  18
ENDBRANCH   1  16
TORSDOF 7
