REMARK  Name = ZINC67446755
REMARK  7 active torsions:
REMARK  status: ('A' for Active; 'I' for Inactive)
REMARK    1  A    between atoms: C_3  and  C_8
REMARK    2  A    between atoms: C_5  and  O_7
REMARK    3  A    between atoms: N_18  and  C_19
REMARK    4  A    between atoms: C_19  and  C_20
REMARK    5  A    between atoms: C_22  and  C_25
REMARK    6  A    between atoms: C_26  and  C_27
REMARK    7  A    between atoms: C_27  and  O_28
REMARK                            x       y       z     vdW  Elec       q    Type
REMARK                         _______ _______ _______ _____ _____    ______ ____
ROOT
ATOM      1  C   UNL     1       3.671   2.190  -0.021  0.00  0.00    +0.015 C 
ATOM      2  C   UNL     1       3.960   2.679  -1.418  0.00  0.00    +0.053 A 
ATOM      3  C   UNL     1       4.412   3.925  -1.688  0.00  0.00    +0.035 A 
ATOM      4  N   UNL     1       4.557   4.017  -3.035  0.00  0.00    -0.348 N 
ATOM      5  H   UNL     1       4.864   4.792  -3.531  0.00  0.00    +0.166 HD
ATOM      6  C   UNL     1       4.191   2.821  -3.554  0.00  0.00    +0.196 A 
ATOM      7  N   UNL     1       3.836   2.028  -2.576  0.00  0.00    -0.242 NA
ATOM      8  C   UNL     1       4.683   4.954  -0.621  0.00  0.00    +0.036 C 
ATOM      9  C   UNL     1       4.731   4.224   0.729  0.00  0.00    -0.071 C 
ATOM     10  N   UNL     1       3.554   3.356   0.870  0.00  0.00    +0.391 N 
ATOM     11  H   UNL     1       2.726   3.880   0.628  0.00  0.00    -0.080 HD
ENDROOT
BRANCH   1  14
ATOM     12  C   UNL     1      -0.017   1.377   0.010  0.00  0.00    +0.004 A 
ATOM     13  C   UNL     1       1.171   2.086   0.002  0.00  0.00    +0.002 A 
ATOM     14  C   UNL     1       2.379   1.415  -0.013  0.00  0.00    -0.052 A 
ATOM     15  C   UNL     1       2.403   0.033  -0.021  0.00  0.00    +0.047 A 
ATOM     16  C   UNL     1       1.214  -0.680  -0.013  0.00  0.00    +0.117 A 
ATOM     17  C   UNL     1       0.002  -0.004   0.002  0.00  0.00    +0.045 A 
BRANCH  16  18
ATOM     18  O   UNL     1       1.235  -2.039  -0.021  0.00  0.00    -0.507 OA
ATOM     19  H   UNL     1       1.249  -2.437   0.860  0.00  0.00    +0.292 HD
ENDBRANCH  16  18
ENDBRANCH   1  14
BRANCH  10  20
ATOM     20  C   UNL     1       3.446   2.897   2.261  0.00  0.00    -0.034 C 
BRANCH  20  21
ATOM     21  C   UNL     1       3.202   4.079   3.163  0.00  0.00    -0.026 A 
ATOM     22  C   UNL     1       2.027   4.620   3.554  0.00  0.00    +0.026 A 
ATOM     23  C   UNL     1       2.040   5.724   4.402  0.00  0.00    +0.032 A 
ATOM     24  C   UNL     1       3.250   6.220   4.808  0.00  0.00    +0.062 A 
ATOM     25  S   UNL     1       4.393   5.117   3.993  0.00  0.00    -0.102 S 
BRANCH  23  26
ATOM     26  C   UNL     1       0.817   6.327   4.840  0.00  0.00    -0.063 C 
ATOM     27  C   UNL     1      -0.186   6.822   5.198  0.00  0.00    -0.069 C 
BRANCH  27  28
ATOM     28  C   UNL     1      -1.443   7.441   5.648  0.00  0.00    +0.244 C 
BRANCH  28  29
ATOM     29  O   UNL     1      -1.149   8.548   6.504  0.00  0.00    -0.383 OA
ATOM     30  H   UNL     1      -1.933   9.005   6.838  0.00  0.00    +0.211 HD
ENDBRANCH  28  29
ENDBRANCH  27  28
ENDBRANCH  23  26
ENDBRANCH  20  21
ENDBRANCH  10  20
TORSDOF 7
