REMARK  Name = ZINC66248794
REMARK  5 active torsions:
REMARK  status: ('A' for Active; 'I' for Inactive)
REMARK    1  A    between atoms: C_1  and  C_2
REMARK    2  A    between atoms: C_5  and  S_7
REMARK    3  A    between atoms: S_7  and  N_10
REMARK    4  A    between atoms: N_10  and  C_11
REMARK    5  A    between atoms: N_15  and  C_16
REMARK                            x       y       z     vdW  Elec       q    Type
REMARK                         _______ _______ _______ _____ _____    ______ ____
ROOT
ATOM      1  N   UNL     1       1.300  -4.748  -1.614  0.00  0.00    -0.199 N 
ATOM      2  H   UNL     1       0.759  -5.468  -1.974  0.00  0.00    +0.175 HD
ENDROOT
BRANCH   1   3
ATOM      3  C   UNL     1       2.218  -4.093  -2.430  0.00  0.00    +0.136 A 
ATOM      4  C   UNL     1       3.043  -3.075  -2.058  0.00  0.00    +0.066 A 
ATOM      5  C   UNL     1       3.799  -2.708  -3.174  0.00  0.00    +0.136 A 
ATOM      6  N   UNL     1       3.448  -3.469  -4.178  0.00  0.00    -0.178 NA
ATOM      7  N   UNL     1       2.456  -4.354  -3.736  0.00  0.00    -0.246 N 
BRANCH   7   8
ATOM      8  C   UNL     1       1.793  -5.379  -4.545  0.00  0.00    +0.109 C 
ATOM      9  C   UNL     1       1.127  -4.732  -5.776  0.00  0.00    +0.027 C 
ATOM     10  C   UNL     1       2.172  -4.902  -6.907  0.00  0.00    +0.002 C 
ATOM     11  C   UNL     1       2.759  -6.306  -6.621  0.00  0.00    +0.002 C 
ATOM     12  C   UNL     1       2.830  -6.380  -5.082  0.00  0.00    +0.027 C 
ENDBRANCH   7   8
ENDBRANCH   1   3
BRANCH   1  13
ATOM     13  S   UNL     1       1.134  -4.300  -0.029  0.00  0.00    +0.080 S 
ATOM     14  O   UNL     1       2.445  -4.240   0.516  0.00  0.00    -0.149 OA
ATOM     15  O   UNL     1       0.117  -5.126   0.522  0.00  0.00    -0.149 OA
BRANCH  13  20
ATOM     16  C   UNL     1      -0.018   1.503   0.010  0.00  0.00    +0.051 C 
ATOM     17  C   UNL     1       0.002  -0.004   0.002  0.00  0.00    -0.011 A 
ATOM     18  C   UNL     1      -1.039  -0.872   0.002  0.00  0.00    +0.013 A 
ATOM     19  C   UNL     1      -0.780  -2.230  -0.007  0.00  0.00    +0.037 A 
ATOM     20  C   UNL     1       0.507  -2.653  -0.016  0.00  0.00    +0.146 A 
ATOM     21  S   UNL     1       1.404  -1.109  -0.018  0.00  0.00    -0.074 S 
ENDBRANCH  13  20
ENDBRANCH   1  13
TORSDOF 4
