REMARK  Name = ZINC08412470
REMARK  8 active torsions:
REMARK  status: ('A' for Active; 'I' for Inactive)
REMARK    1  A    between atoms: C_1  and  C_2
REMARK    2  A    between atoms: C_2  and  C_38
REMARK    3  A    between atoms: C_6  and  C_26
REMARK    4  A    between atoms: C_8  and  C_18
REMARK    5  A    between atoms: C_9  and  N_17
REMARK    6  A    between atoms: N_10  and  C_11
REMARK    7  A    between atoms: C_18  and  C_20
REMARK    8  A    between atoms: C_29  and  N_32
REMARK                            x       y       z     vdW  Elec       q    Type
REMARK                         _______ _______ _______ _____ _____    ______ ____
ROOT
ATOM      1  C   UNL     1       1.587   2.449   1.270  0.00  0.00    +0.011 C 
ATOM      2  C   UNL     1       1.569   2.699  -0.239  0.00  0.00    -0.023 C 
ATOM      3  C   UNL     1       0.381   3.594  -0.599  0.00  0.00    +0.058 C 
ATOM      4  C   UNL     1      -0.907   2.903  -0.221  0.00  0.00    +0.025 C 
ATOM      5  C   UNL     1      -1.007   1.558  -0.248  0.00  0.00    +0.025 C 
ATOM      6  C   UNL     1      -2.293   0.866   0.127  0.00  0.00    +0.091 C 
ATOM      7  C   UNL     1      -3.455   1.815   0.075  0.00  0.00    +0.048 C 
ATOM      8  C   UNL     1      -3.256   3.174   0.083  0.00  0.00    +0.100 C 
ATOM      9  N   UNL     1      -1.977   3.679   0.142  0.00  0.00    -0.261 N 
ATOM     10  C   UNL     1       0.089   0.757  -0.618  0.00  0.00    +0.162 C 
ATOM     11  O   UNL     1      -0.039  -0.451  -0.648  0.00  0.00    -0.292 OA
ATOM     12  C   UNL     1       1.415   1.367  -0.981  0.00  0.00    +0.086 C 
ATOM     13  C   UNL     1       2.873   3.378  -0.664  0.00  0.00    +0.011 C 
ENDROOT
BRANCH   9  14
ATOM     14  C   UNL     1      -1.767   4.998   0.560  0.00  0.00    +0.040 A 
ATOM     15  C   UNL     1      -1.828   6.038  -0.359  0.00  0.00    +0.024 A 
ATOM     16  C   UNL     1      -1.625   7.339   0.057  0.00  0.00    +0.002 A 
ATOM     17  C   UNL     1      -1.352   7.606   1.386  0.00  0.00    +0.000 A 
ATOM     18  C   UNL     1      -1.286   6.573   2.303  0.00  0.00    +0.002 A 
ATOM     19  C   UNL     1      -1.492   5.271   1.894  0.00  0.00    +0.024 A 
ENDBRANCH   9  14
BRANCH   6  20
ATOM     20  C   UNL     1      -2.168   0.315   1.524  0.00  0.00    -0.035 A 
ATOM     21  C   UNL     1      -1.951   1.170   2.588  0.00  0.00    +0.007 A 
ATOM     22  C   UNL     1      -1.842   0.665   3.870  0.00  0.00    +0.033 A 
ATOM     23  C   UNL     1      -1.938  -0.697   4.086  0.00  0.00    +0.126 A 
ATOM     24  C   UNL     1      -2.150  -1.553   3.022  0.00  0.00    +0.033 A 
ATOM     25  C   UNL     1      -2.265  -1.047   1.740  0.00  0.00    +0.007 A 
BRANCH  23  26
ATOM     26  N   UNL     1      -1.815  -1.239   5.458  0.00  0.00    +0.056 N 
ATOM     27  O   UNL     1      -1.900  -2.439   5.649  0.00  0.00    -0.126 OA
ATOM     28  O   UNL     1      -1.629  -0.484   6.396  0.00  0.00    -0.126 OA
ENDBRANCH  23  26
ENDBRANCH   6  20
BRANCH   8  29
ATOM     29  N   UNL     1      -4.330   4.024   0.043  0.00  0.00    -0.346 N 
ATOM     30  H   UNL     1      -5.231   3.670   0.095  0.00  0.00    +0.143 HD
ATOM     31  H   UNL     1      -4.189   4.981  -0.037  0.00  0.00    +0.143 HD
ENDBRANCH   8  29
BRANCH   7  32
ATOM     32  C   UNL     1      -4.760   1.306   0.017  0.00  0.00    +0.193 C 
ATOM     33  O   UNL     1      -5.524   1.480   0.952  0.00  0.00    -0.287 OA
BRANCH  32  34
ATOM     34  C   UNL     1      -5.212   0.559  -1.179  0.00  0.00    +0.022 A 
ATOM     35  C   UNL     1      -4.344   0.368  -2.255  0.00  0.00    +0.012 A 
ATOM     36  C   UNL     1      -4.769  -0.334  -3.364  0.00  0.00    +0.001 A 
ATOM     37  C   UNL     1      -6.056  -0.838  -3.416  0.00  0.00    +0.000 A 
ATOM     38  C   UNL     1      -6.923  -0.647  -2.355  0.00  0.00    +0.001 A 
ATOM     39  C   UNL     1      -6.509   0.048  -1.238  0.00  0.00    +0.012 A 
ENDBRANCH  32  34
ENDBRANCH   7  32
TORSDOF 6
