REMARK  Name = ZINC13131168
REMARK  10 active torsions:
REMARK  status: ('A' for Active; 'I' for Inactive)
REMARK    1  A    between atoms: C_1  and  N_2
REMARK    2  A    between atoms: N_2  and  C_3
REMARK    3  A    between atoms: N_2  and  C_4
REMARK    4  A    between atoms: C_4  and  C_6
REMARK    5  A    between atoms: C_4  and  C_26
REMARK    6  A    between atoms: C_6  and  N_7
REMARK    7  A    between atoms: C_8  and  C_10
REMARK    8  A    between atoms: C_13  and  S_19
REMARK    9  A    between atoms: C_14  and  N_16
REMARK   10  A    between atoms: S_19  and  C_20
REMARK                            x       y       z     vdW  Elec       q    Type
REMARK                         _______ _______ _______ _____ _____    ______ ____
ROOT
ATOM      1  C   UNL     1      -1.157   3.673   2.798  0.00  0.00    +0.039 A 
ATOM      2  C   UNL     1      -0.701   4.292   1.630  0.00  0.00    +0.014 A 
ATOM      3  C   UNL     1      -0.893   5.631   1.446  0.00  0.00    +0.018 A 
ATOM      4  C   UNL     1      -1.543   6.386   2.419  0.00  0.00    +0.043 A 
ATOM      5  C   UNL     1      -2.000   5.778   3.586  0.00  0.00    +0.141 A 
ATOM      6  C   UNL     1      -1.815   4.427   3.775  0.00  0.00    +0.047 A 
ENDROOT
BRANCH   1   8
ATOM      7  N   UNL     1      -0.316   1.501   2.054  0.00  0.00    -0.313 N 
ATOM      8  C   UNL     1      -0.950   2.226   2.996  0.00  0.00    +0.244 C 
ATOM      9  O   UNL     1      -1.352   1.688   4.010  0.00  0.00    -0.270 OA
ATOM     10  H   UNL     1       0.004   1.930   1.245  0.00  0.00    +0.149 HD
BRANCH   7  11
ATOM     11  C   UNL     1      -0.111   0.064   2.251  0.00  0.00    +0.094 C 
BRANCH  11  12
ATOM     12  C   UNL     1       0.526  -0.537   0.996  0.00  0.00    -0.014 C 
BRANCH  12  13
ATOM     13  C   UNL     1       1.899   0.051   0.799  0.00  0.00    -0.022 A 
ATOM     14  C   UNL     1       2.288   1.048  -0.032  0.00  0.00    +0.009 A 
ATOM     15  C   UNL     1       3.617   1.429  -0.046  0.00  0.00    +0.008 A 
ATOM     16  C   UNL     1       4.492   0.793   0.771  0.00  0.00    +0.045 A 
ATOM     17  S   UNL     1       3.433  -0.380   1.604  0.00  0.00    -0.103 S 
ENDBRANCH  12  13
BRANCH  12  19
ATOM     18  C   UNL     1      -0.706  -2.571   1.317  0.00  0.00    -0.096 C 
ATOM     19  N   UNL     1       0.635  -1.994   1.153  0.00  0.00    +0.382 N 
ATOM     20  C   UNL     1       1.272  -2.568  -0.040  0.00  0.00    -0.096 C 
ATOM     21  H   UNL     1       1.194  -2.204   1.966  0.00  0.00    -0.082 HD
ENDBRANCH  12  19
ENDBRANCH  11  12
ENDBRANCH   7  11
ENDBRANCH   1   8
BRANCH   5  22
ATOM     22  N   UNL     1      -2.690   6.582   4.620  0.00  0.00    +0.058 N 
ATOM     23  O   UNL     1      -3.087   6.053   5.632  0.00  0.00    -0.126 OA
ATOM     24  O   UNL     1      -2.858   7.768   4.451  0.00  0.00    -0.126 OA
ENDBRANCH   5  22
BRANCH   4  25
ATOM     25  S   UNL     1      -1.788   8.114   2.175  0.00  0.00    -0.087 S 
BRANCH  25  26
ATOM     26  C   UNL     1      -1.197   8.401   0.540  0.00  0.00    +0.013 A 
ATOM     27  C   UNL     1      -2.080   8.377  -0.533  0.00  0.00    +0.015 A 
ATOM     28  C   UNL     1      -1.614   8.602  -1.814  0.00  0.00    +0.001 A 
ATOM     29  C   UNL     1      -0.271   8.851  -2.029  0.00  0.00    +0.000 A 
ATOM     30  C   UNL     1       0.611   8.876  -0.963  0.00  0.00    +0.001 A 
ATOM     31  C   UNL     1       0.151   8.658   0.321  0.00  0.00    +0.015 A 
ENDBRANCH  25  26
ENDBRANCH   4  25
TORSDOF 8
