REMARK  Name = ZINC00725040
REMARK  8 active torsions:
REMARK  status: ('A' for Active; 'I' for Inactive)
REMARK    1  A    between atoms: C_1  and  C_2
REMARK    2  A    between atoms: C_7  and  C_8
REMARK    3  A    between atoms: C_10  and  C_12
REMARK    4  A    between atoms: C_10  and  C_13
REMARK    5  A    between atoms: N_14  and  C_15
REMARK    6  A    between atoms: C_16  and  C_28
REMARK    7  A    between atoms: N_17  and  C_27
REMARK    8  A    between atoms: N_18  and  C_21
REMARK                            x       y       z     vdW  Elec       q    Type
REMARK                         _______ _______ _______ _____ _____    ______ ____
ROOT
ATOM      1  C   UNL     1      -1.124   1.816  -5.685  0.00  0.00    +0.044 C 
ATOM      2  C   UNL     1      -1.661   1.594  -4.295  0.00  0.00    -0.047 A 
ATOM      3  C   UNL     1      -0.829   1.095  -3.307  0.00  0.00    +0.008 A 
ATOM      4  C   UNL     1      -1.318   0.892  -2.036  0.00  0.00    -0.035 A 
ATOM      5  C   UNL     1      -2.652   1.191  -1.746  0.00  0.00    +0.016 A 
ATOM      6  C   UNL     1      -3.484   1.692  -2.741  0.00  0.00    +0.015 A 
ATOM      7  C   UNL     1      -2.982   1.892  -4.013  0.00  0.00    -0.047 A 
ATOM      8  C   UNL     1      -3.878   2.434  -5.097  0.00  0.00    +0.044 C 
ATOM      9  C   UNL     1      -3.147   0.961  -0.370  0.00  0.00    +0.105 C 
ATOM     10  C   UNL     1      -0.856   0.964   0.398  0.00  0.00    +0.038 C 
ATOM     11  C   UNL     1      -0.441   0.351  -0.939  0.00  0.00    +0.063 C 
ATOM     12  C   UNL     1      -0.124   0.242   1.530  0.00  0.00    +0.034 C 
ATOM     13  C   UNL     1      -0.466   2.443   0.413  0.00  0.00    +0.034 C 
ATOM     14  N   UNL     1      -4.498   0.869  -0.126  0.00  0.00    -0.295 N 
ATOM     15  H   UNL     1      -5.132   1.013  -0.847  0.00  0.00    +0.154 HD
ATOM     16  N   UNL     1      -2.326   0.832   0.685  0.00  0.00    -0.367 N 
ATOM     17  H   UNL     1      -2.682   0.653   1.632  0.00  0.00    +0.161 HD
ENDROOT
BRANCH  14  18
ATOM     18  C   UNL     1      -4.962   0.565   1.169  0.00  0.00    +0.120 A 
ATOM     19  C   UNL     1      -5.789   1.323   1.923  0.00  0.00    +0.059 A 
ATOM     20  N   UNL     1      -6.002   0.683   3.117  0.00  0.00    -0.282 N 
ATOM     21  N   UNL     1      -5.288  -0.520   3.126  0.00  0.00    -0.216 N 
ATOM     22  C   UNL     1      -4.642  -0.632   1.947  0.00  0.00    +0.293 A 
ATOM     23  O   UNL     1      -3.925  -1.553   1.598  0.00  0.00    -0.264 OA
ATOM     24  C   UNL     1      -6.843   1.181   4.208  0.00  0.00    +0.171 C 
ATOM     25  C   UNL     1      -6.379   2.650   1.519  0.00  0.00    +0.067 C 
BRANCH  21  26
ATOM     26  C   UNL     1      -5.257  -1.448   4.171  0.00  0.00    +0.067 A 
ATOM     27  C   UNL     1      -5.055  -1.019   5.477  0.00  0.00    +0.028 A 
ATOM     28  C   UNL     1      -5.030  -1.938   6.508  0.00  0.00    +0.002 A 
ATOM     29  C   UNL     1      -5.193  -3.284   6.240  0.00  0.00    +0.000 A 
ATOM     30  C   UNL     1      -5.388  -3.716   4.941  0.00  0.00    +0.002 A 
ATOM     31  C   UNL     1      -5.420  -2.802   3.906  0.00  0.00    +0.028 A 
ENDBRANCH  21  26
ENDBRANCH  14  18
TORSDOF 2
