REMARK  Name = ZINC28082912
REMARK  5 active torsions:
REMARK  status: ('A' for Active; 'I' for Inactive)
REMARK    1  A    between atoms: C_1  and  C_2
REMARK    2  A    between atoms: C_2  and  C_4
REMARK    3  A    between atoms: C_2  and  S_20
REMARK    4  A    between atoms: C_10  and  C_15
REMARK    5  A    between atoms: S_20  and  C_21
REMARK                            x       y       z     vdW  Elec       q    Type
REMARK                         _______ _______ _______ _____ _____    ______ ____
ROOT
ATOM      1  C   UNL     1      -1.412  -0.526   0.013  0.00  0.00    +0.124 A 
ATOM      2  N   UNL     1      -1.993  -0.855   1.195  0.00  0.00    -0.309 N 
ATOM      3  H   UNL     1      -1.490  -0.749   2.018  0.00  0.00    +0.170 HD
ATOM      4  C   UNL     1      -3.253  -1.323   1.248  0.00  0.00    +0.260 A 
ATOM      5  O   UNL     1      -3.761  -1.613   2.318  0.00  0.00    -0.267 OA
ATOM      6  C   UNL     1      -3.989  -1.476   0.030  0.00  0.00    +0.083 A 
ATOM      7  C   UNL     1      -5.351  -1.957  -0.172  0.00  0.00    +0.039 A 
ATOM      8  C   UNL     1      -5.841  -2.014  -1.436  0.00  0.00    +0.059 A 
ATOM      9  S   UNL     1      -4.487  -1.420  -2.431  0.00  0.00    -0.076 S 
ATOM     10  C   UNL     1      -3.307  -1.111  -1.142  0.00  0.00    +0.116 A 
ATOM     11  N   UNL     1      -2.059  -0.649  -1.115  0.00  0.00    -0.225 NA
ENDROOT
BRANCH   7  12
ATOM     12  C   UNL     1      -6.180  -2.374   0.977  0.00  0.00    +0.136 A 
ATOM     13  C   UNL     1      -7.453  -1.968   1.232  0.00  0.00    +0.050 A 
ATOM     14  C   UNL     1      -7.854  -2.609   2.422  0.00  0.00    +0.042 A 
ATOM     15  C   UNL     1      -6.818  -3.366   2.830  0.00  0.00    +0.196 A 
ATOM     16  O   UNL     1      -5.810  -3.227   1.952  0.00  0.00    -0.463 OA
ENDBRANCH   7  12
BRANCH   1  18
ATOM     17  C   UNL     1      -0.019   1.526   0.010  0.00  0.00    +0.027 C 
ATOM     18  C   UNL     1       0.002  -0.004   0.002  0.00  0.00    +0.117 C 
BRANCH  18  19
ATOM     19  S   UNL     1       0.879  -0.605   1.472  0.00  0.00    -0.077 S 
BRANCH  19  20
ATOM     20  C   UNL     1       2.533  -0.042   1.241  0.00  0.00    +0.168 A 
ATOM     21  N   UNL     1       3.567  -0.267   2.105  0.00  0.00    -0.333 N 
ATOM     22  H   UNL     1       3.522  -0.756   2.941  0.00  0.00    +0.168 HD
ATOM     23  C   UNL     1       4.692   0.335   1.565  0.00  0.00    +0.067 A 
ATOM     24  C   UNL     1       6.012   0.446   1.974  0.00  0.00    +0.028 A 
ATOM     25  C   UNL     1       6.918   1.131   1.190  0.00  0.00    +0.002 A 
ATOM     26  C   UNL     1       6.517   1.709  -0.005  0.00  0.00    +0.002 A 
ATOM     27  C   UNL     1       5.210   1.609  -0.426  0.00  0.00    +0.030 A 
ATOM     28  C   UNL     1       4.280   0.919   0.356  0.00  0.00    +0.090 A 
ATOM     29  N   UNL     1       2.956   0.650   0.211  0.00  0.00    -0.222 NA
ENDBRANCH  19  20
ENDBRANCH  18  19
ENDBRANCH   1  18
TORSDOF 4
