REMARK  Name = ZINC02756260
REMARK  6 active torsions:
REMARK  status: ('A' for Active; 'I' for Inactive)
REMARK    1  A    between atoms: C_1  and  C_2
REMARK    2  A    between atoms: C_9  and  C_11
REMARK    3  A    between atoms: C_14  and  N_18
REMARK    4  A    between atoms: C_16  and  O_17
REMARK    5  A    between atoms: C_19  and  C_20
REMARK    6  A    between atoms: C_25  and  O_26
REMARK                            x       y       z     vdW  Elec       q    Type
REMARK                         _______ _______ _______ _____ _____    ______ ____
ROOT
ATOM      1  C   UNL     1      -7.196  -0.454   0.026  0.00  0.00    +0.078 A 
ATOM      2  C   UNL     1      -6.157  -0.824  -0.833  0.00  0.00    +0.019 A 
ATOM      3  C   UNL     1      -4.983  -0.127  -0.831  0.00  0.00    +0.029 A 
ATOM      4  C   UNL     1      -4.812   0.963   0.031  0.00  0.00    +0.067 A 
ATOM      5  C   UNL     1      -5.841   1.338   0.898  0.00  0.00    +0.074 A 
ATOM      6  C   UNL     1      -7.032   0.636   0.894  0.00  0.00    +0.131 A 
ENDROOT
BRANCH   1  15
ATOM      7  C   UNL     1     -12.878  -5.039  -1.035  0.00  0.00    +0.044 C 
ATOM      8  C   UNL     1     -12.031  -3.916  -0.494  0.00  0.00    -0.048 A 
ATOM      9  C   UNL     1     -12.539  -3.084   0.493  0.00  0.00    +0.007 A 
ATOM     10  C   UNL     1     -11.776  -2.052   1.000  0.00  0.00    +0.049 A 
ATOM     11  C   UNL     1     -10.493  -1.842   0.520  0.00  0.00    +0.156 A 
ATOM     12  C   UNL     1      -9.975  -2.681  -0.479  0.00  0.00    +0.110 A 
ATOM     13  C   UNL     1     -10.759  -3.722  -0.982  0.00  0.00    +0.035 A 
ATOM     14  N   UNL     1      -8.718  -2.241  -0.746  0.00  0.00    -0.209 NA
ATOM     15  C   UNL     1      -8.461  -1.210   0.021  0.00  0.00    +0.232 A 
ATOM     16  O   UNL     1      -9.522  -0.946   0.808  0.00  0.00    -0.435 OA
ENDBRANCH   1  15
BRANCH   6  17
ATOM     17  O   UNL     1      -8.039   0.999   1.730  0.00  0.00    -0.506 OA
ATOM     18  H   UNL     1      -8.010   0.562   2.592  0.00  0.00    +0.292 HD
ENDBRANCH   6  17
BRANCH   4  19
ATOM     19  N   UNL     1      -3.635   1.656   0.029  0.00  0.00    -0.255 NA
ATOM     20  C   UNL     1      -2.499   1.014   0.020  0.00  0.00    +0.123 C 
BRANCH  20  21
ATOM     21  C   UNL     1      -1.233   1.760   0.017  0.00  0.00    +0.034 A 
ATOM     22  C   UNL     1      -0.013   1.076   0.008  0.00  0.00    +0.013 A 
ATOM     23  C   UNL     1       1.170   1.782   0.001  0.00  0.00    +0.001 A 
ATOM     24  C   UNL     1       1.158   3.167   0.007  0.00  0.00    +0.004 A 
ATOM     25  C   UNL     1      -0.040   3.856   0.022  0.00  0.00    +0.046 A 
ATOM     26  C   UNL     1      -1.240   3.164   0.031  0.00  0.00    +0.125 A 
BRANCH  26  27
ATOM     27  O   UNL     1      -2.417   3.839   0.047  0.00  0.00    -0.506 OA
ATOM     28  H   UNL     1      -2.767   4.040  -0.832  0.00  0.00    +0.292 HD
ENDBRANCH  26  27
ENDBRANCH  20  21
ENDBRANCH   4  19
TORSDOF 5
