REMARK  Name = ZINC33262724
REMARK  11 active torsions:
REMARK  status: ('A' for Active; 'I' for Inactive)
REMARK    1  A    between atoms: C_1  and  C_2
REMARK    2  A    between atoms: C_2  and  C_3
REMARK    3  A    between atoms: C_3  and  N_4
REMARK    4  A    between atoms: C_8  and  S_13
REMARK    5  A    between atoms: S_13  and  N_16
REMARK    6  A    between atoms: C_20  and  C_23
REMARK    7  A    between atoms: N_25  and  C_26
REMARK    8  A    between atoms: C_26  and  C_27
REMARK    9  A    between atoms: C_27  and  N_28
REMARK   10  A    between atoms: N_28  and  C_29
REMARK   11  A    between atoms: N_28  and  C_30
REMARK                            x       y       z     vdW  Elec       q    Type
REMARK                         _______ _______ _______ _____ _____    ______ ____
ROOT
ATOM      1  N   UNL     1       1.203  -2.909  -1.607  0.00  0.00    -0.176 NA
ATOM      2  C   UNL     1      -0.065  -3.146  -2.310  0.00  0.00    +0.109 C 
ATOM      3  C   UNL     1      -0.042  -4.545  -2.921  0.00  0.00    +0.018 C 
ATOM      4  C   UNL     1       1.202  -4.695  -3.800  0.00  0.00    +0.015 C 
ATOM      5  C   UNL     1       2.458  -4.518  -2.945  0.00  0.00    +0.091 C 
ATOM      6  C   UNL     1       2.463  -3.113  -2.335  0.00  0.00    +0.122 C 
ENDROOT
BRANCH   5   7
ATOM      7  C   UNL     1       3.683  -4.698  -3.805  0.00  0.00    +0.217 C 
ATOM      8  O   UNL     1       4.481  -3.792  -3.920  0.00  0.00    -0.275 OA
ATOM      9  N   UNL     1       3.890  -5.865  -4.446  0.00  0.00    -0.317 N 
ATOM     10  H   UNL     1       3.166  -6.687  -4.341  0.00  0.00    +0.149 HD
BRANCH   9  11
ATOM     11  C   UNL     1       5.081  -6.040  -5.282  0.00  0.00    +0.085 C 
BRANCH  11  12
ATOM     12  C   UNL     1       5.075  -7.444  -5.890  0.00  0.00    -0.060 C 
BRANCH  12  13
ATOM     13  N   UNL     1       6.269  -7.619  -6.728  0.00  0.00    +0.381 N 
ATOM     14  C   UNL     1       7.492  -7.595  -5.915  0.00  0.00    -0.096 C 
ATOM     15  H   UNL     1       6.314  -6.775  -7.432  0.00  0.00    -0.082 HD
BRANCH  13  16
ATOM     16  C   UNL     1       6.183  -8.857  -7.514  0.00  0.00    -0.069 C 
ATOM     17  C   UNL     1       6.194 -10.062  -6.571  0.00  0.00    -0.015 C 
ATOM     18  C   UNL     1       6.104 -11.351  -7.389  0.00  0.00    -0.002 C 
ATOM     19  C   UNL     1       7.301 -11.437  -8.338  0.00  0.00    -0.000 C 
ATOM     20  C   UNL     1       7.291 -10.232  -9.282  0.00  0.00    -0.002 C 
ATOM     21  C   UNL     1       7.380  -8.943  -8.463  0.00  0.00    -0.015 C 
ENDBRANCH  13  16
ENDBRANCH  12  13
ENDBRANCH  11  12
ENDBRANCH   9  11
ENDBRANCH   5   7
BRANCH   1  22
ATOM     22  S   UNL     1       1.213  -2.428  -0.023  0.00  0.00    +0.061 S 
ATOM     23  O   UNL     1       2.468  -2.824   0.514  0.00  0.00    -0.153 OA
ATOM     24  O   UNL     1      -0.022  -2.850   0.538  0.00  0.00    -0.153 OA
BRANCH  22  29
ATOM     25  N   UNL     1       0.872   3.433   0.012  0.00  0.00    -0.244 N 
ATOM     26  C   UNL     1       1.201   2.099   0.002  0.00  0.00    +0.089 A 
ATOM     27  C   UNL     1       2.403   1.400  -0.013  0.00  0.00    +0.031 A 
ATOM     28  C   UNL     1       2.395   0.034  -0.020  0.00  0.00    +0.031 A 
ATOM     29  C   UNL     1       1.195  -0.666  -0.013  0.00  0.00    +0.108 A 
ATOM     30  C   UNL     1       0.002  -0.004   0.002  0.00  0.00    +0.060 A 
ATOM     31  C   UNL     1      -0.017   1.397   0.010  0.00  0.00    +0.115 A 
ATOM     32  N   UNL     1      -1.013   2.306   0.019  0.00  0.00    -0.129 NA
ATOM     33  N   UNL     1      -0.529   3.498   0.026  0.00  0.00    -0.065 NA
BRANCH  25  34
ATOM     34  C   UNL     1       1.801   4.566   0.010  0.00  0.00    +0.145 C 
BRANCH  34  36
ATOM     35  C   UNL     1       3.083   6.151  -1.435  0.00  0.00    +0.005 C 
ATOM     36  C   UNL     1       2.112   4.968  -1.433  0.00  0.00    +0.020 C 
ENDBRANCH  34  36
ENDBRANCH  25  34
ENDBRANCH  22  29
ENDBRANCH   1  22
TORSDOF 9
