REMARK  Name = ZINC39498899
REMARK  9 active torsions:
REMARK  status: ('A' for Active; 'I' for Inactive)
REMARK    1  A    between atoms: C_1  and  C_2
REMARK    2  A    between atoms: C_2  and  C_3
REMARK    3  A    between atoms: C_2  and  S_4
REMARK    4  A    between atoms: S_4  and  C_7
REMARK    5  A    between atoms: C_12  and  C_13
REMARK    6  A    between atoms: C_13  and  C_14
REMARK    7  A    between atoms: N_21  and  C_30
REMARK    8  A    between atoms: C_23  and  C_24
REMARK    9  A    between atoms: C_30  and  C_31
REMARK                            x       y       z     vdW  Elec       q    Type
REMARK                         _______ _______ _______ _____ _____    ______ ____
ROOT
ATOM      1  C   UNL     1       1.748  -0.184  -1.593  0.00  0.00    +0.093 A 
ATOM      2  C   UNL     1       2.579  -1.122  -2.169  0.00  0.00    +0.037 A 
ATOM      3  C   UNL     1       3.878  -1.294  -1.682  0.00  0.00    +0.001 A 
ATOM      4  C   UNL     1       4.320  -0.510  -0.613  0.00  0.00    -0.022 A 
ATOM      5  C   UNL     1       3.480   0.423  -0.046  0.00  0.00    +0.011 A 
ATOM      6  C   UNL     1       2.197   0.591  -0.538  0.00  0.00    -0.018 A 
ATOM      7  C   UNL     1       5.741  -0.917  -0.315  0.00  0.00    +0.121 C 
ATOM      8  N   UNL     1       6.083  -1.977  -1.276  0.00  0.00    -0.386 NA
ATOM      9  C   UNL     1       4.968  -2.197  -2.087  0.00  0.00    +0.022 C 
ATOM     10  C   UNL     1       4.900  -3.094  -3.084  0.00  0.00    +0.030 C 
ATOM     11  H   UNL     1       6.317  -2.825  -0.781  0.00  0.00    +0.127 HD
ENDROOT
BRANCH  10  12
ATOM     12  C   UNL     1       6.063  -3.946  -3.389  0.00  0.00    -0.023 A 
ATOM     13  C   UNL     1       6.823  -4.494  -2.352  0.00  0.00    +0.008 A 
ATOM     14  C   UNL     1       7.910  -5.291  -2.645  0.00  0.00    +0.001 A 
ATOM     15  C   UNL     1       8.248  -5.549  -3.962  0.00  0.00    +0.000 A 
ATOM     16  C   UNL     1       7.500  -5.009  -4.994  0.00  0.00    +0.001 A 
ATOM     17  C   UNL     1       6.407  -4.215  -4.716  0.00  0.00    +0.008 A 
ENDBRANCH  10  12
BRANCH   1  18
ATOM     18  S   UNL     1       0.111   0.033  -2.207  0.00  0.00    -0.001 S 
ATOM     19  O   UNL     1      -0.541   0.830  -1.228  0.00  0.00    -0.169 OA
ATOM     20  O   UNL     1      -0.346  -1.282  -2.493  0.00  0.00    -0.169 OA
BRANCH  18  22
ATOM     21  C   UNL     1       1.131   0.151  -4.743  0.00  0.00    +0.032 C 
ATOM     22  C   UNL     1       0.312   0.973  -3.745  0.00  0.00    +0.130 C 
ATOM     23  C   UNL     1      -1.065   1.275  -4.342  0.00  0.00    +0.032 C 
ENDBRANCH  18  22
ENDBRANCH   1  18
BRANCH   6  24
ATOM     24  C   UNL     1       1.284   1.617   0.081  0.00  0.00    +0.072 C 
BRANCH  24  25
ATOM     25  C   UNL     1       0.628   1.034   1.306  0.00  0.00    -0.043 A 
ATOM     26  C   UNL     1      -0.206  -0.062   1.188  0.00  0.00    +0.004 A 
ATOM     27  C   UNL     1      -0.807  -0.598   2.311  0.00  0.00    +0.000 A 
ATOM     28  C   UNL     1      -0.573  -0.038   3.553  0.00  0.00    +0.000 A 
ATOM     29  C   UNL     1       0.262   1.057   3.672  0.00  0.00    +0.000 A 
ATOM     30  C   UNL     1       0.866   1.590   2.549  0.00  0.00    +0.004 A 
ENDBRANCH  24  25
ENDBRANCH   6  24
BRANCH   8  31
ATOM     31  C   UNL     1       7.222  -1.552  -2.101  0.00  0.00    +0.121 C 
BRANCH  31  32
ATOM     32  C   UNL     1       8.409  -1.277  -1.215  0.00  0.00    -0.032 A 
ATOM     33  C   UNL     1       8.675   0.014  -0.797  0.00  0.00    +0.005 A 
ATOM     34  C   UNL     1       9.764   0.267   0.016  0.00  0.00    +0.000 A 
ATOM     35  C   UNL     1      10.586  -0.771   0.412  0.00  0.00    +0.000 A 
ATOM     36  C   UNL     1      10.320  -2.062  -0.005  0.00  0.00    +0.000 A 
ATOM     37  C   UNL     1       9.229  -2.315  -0.815  0.00  0.00    +0.005 A 
ENDBRANCH  31  32
ENDBRANCH   8  31
TORSDOF 7
