REMARK  Name = ZINC38249511
REMARK  12 active torsions:
REMARK  status: ('A' for Active; 'I' for Inactive)
REMARK    1  A    between atoms: C_1  and  C_2
REMARK    2  A    between atoms: C_2  and  C_3
REMARK    3  A    between atoms: C_6  and  C_9
REMARK    4  A    between atoms: C_11  and  C_12
REMARK    5  A    between atoms: C_12  and  C_13
REMARK    6  A    between atoms: C_20  and  C_23
REMARK    7  A    between atoms: N_29  and  C_30
REMARK    8  A    between atoms: C_30  and  C_31
REMARK    9  A    between atoms: C_31  and  C_32
REMARK   10  A    between atoms: C_32  and  N_33
REMARK   11  A    between atoms: N_33  and  C_34
REMARK   12  A    between atoms: N_33  and  C_35
REMARK                            x       y       z     vdW  Elec       q    Type
REMARK                         _______ _______ _______ _____ _____    ______ ____
ROOT
ATOM      1  C   UNL     1       2.443  -1.539  -4.297  0.00  0.00    +0.145 C 
ATOM      2  C   UNL     1       3.152  -0.686  -5.324  0.00  0.00    +0.076 C 
ATOM      3  C   UNL     1       4.416  -1.161  -5.419  0.00  0.00    +0.249 C 
ATOM      4  O   UNL     1       5.378  -0.669  -6.233  0.00  0.00    -0.282 OA
ATOM      5  C   UNL     1       4.578  -2.301  -4.493  0.00  0.00    +0.288 C 
ATOM      6  O   UNL     1       5.600  -2.941  -4.347  0.00  0.00    -0.266 OA
ATOM      7  N   UNL     1       3.426  -2.525  -3.835  0.00  0.00    -0.284 N 
ENDROOT
BRANCH   1  11
ATOM      8  C   UNL     1       1.139   0.878  -1.025  0.00  0.00    -0.048 A 
ATOM      9  C   UNL     1       0.231   0.456  -1.977  0.00  0.00    +0.004 A 
ATOM     10  C   UNL     1       0.652  -0.327  -3.036  0.00  0.00    +0.006 A 
ATOM     11  C   UNL     1       1.983  -0.685  -3.143  0.00  0.00    -0.022 A 
ATOM     12  C   UNL     1       2.892  -0.262  -2.192  0.00  0.00    +0.006 A 
ATOM     13  C   UNL     1       2.471   0.524  -1.135  0.00  0.00    +0.004 A 
BRANCH   8  15
ATOM     14  C   UNL     1       0.776   3.208  -0.258  0.00  0.00    +0.009 C 
ATOM     15  C   UNL     1       0.680   1.731   0.129  0.00  0.00    +0.032 C 
ENDBRANCH   8  15
ENDBRANCH   1  11
BRANCH   2  16
ATOM     16  C   UNL     1       2.581   0.438  -6.072  0.00  0.00    +0.195 C 
ATOM     17  O   UNL     1       3.021   1.562  -5.911  0.00  0.00    -0.287 OA
BRANCH  16  18
ATOM     18  C   UNL     1       1.474   0.208  -7.020  0.00  0.00    +0.023 A 
ATOM     19  C   UNL     1       1.039  -1.093  -7.293  0.00  0.00    +0.015 A 
ATOM     20  C   UNL     1       0.005  -1.306  -8.173  0.00  0.00    +0.046 A 
ATOM     21  C   UNL     1      -0.621  -0.228  -8.803  0.00  0.00    +0.124 A 
ATOM     22  C   UNL     1      -0.178   1.064  -8.533  0.00  0.00    -0.002 A 
ATOM     23  C   UNL     1       0.846   1.289  -7.648  0.00  0.00    +0.019 A 
ATOM     24  C   UNL     1      -1.021   2.006  -9.372  0.00  0.00    +0.083 C 
ATOM     25  C   UNL     1      -1.667   1.035 -10.389  0.00  0.00    +0.175 C 
ATOM     26  O   UNL     1      -1.655  -0.218  -9.686  0.00  0.00    -0.488 OA
ATOM     27  C   UNL     1      -0.829   0.953 -11.666  0.00  0.00    +0.052 C 
ENDBRANCH  16  18
ENDBRANCH   2  16
BRANCH   7  28
ATOM     28  C   UNL     1       3.194  -3.569  -2.833  0.00  0.00    +0.107 C 
BRANCH  28  29
ATOM     29  C   UNL     1       2.694  -4.839  -3.526  0.00  0.00    +0.000 C 
BRANCH  29  30
ATOM     30  C   UNL     1       2.452  -5.929  -2.480  0.00  0.00    -0.078 C 
BRANCH  30  31
ATOM     31  N   UNL     1       1.972  -7.147  -3.146  0.00  0.00    +0.376 N 
ATOM     32  C   UNL     1       1.854  -8.230  -2.159  0.00  0.00    -0.097 C 
ATOM     33  C   UNL     1       0.658  -6.890  -3.750  0.00  0.00    -0.097 C 
ATOM     34  H   UNL     1       2.626  -7.418  -3.865  0.00  0.00    -0.083 HD
ENDBRANCH  30  31
ENDBRANCH  29  30
ENDBRANCH  28  29
ENDBRANCH   7  28
TORSDOF 8
