REMARK  Name = ZINC49124050
REMARK  3 active torsions:
REMARK  status: ('A' for Active; 'I' for Inactive)
REMARK    1  A    between atoms: C_1  and  C_2
REMARK    2  A    between atoms: C_2  and  N_7
REMARK    3  A    between atoms: C_8  and  C_10
REMARK                            x       y       z     vdW  Elec       q    Type
REMARK                         _______ _______ _______ _____ _____    ______ ____
ROOT
ATOM      1  C   UNL     1      -3.567  -0.722  -1.058  0.00  0.00    +0.121 A 
ATOM      2  C   UNL     1      -4.489  -0.472  -2.026  0.00  0.00    +0.078 A 
ATOM      3  C   UNL     1      -5.679  -1.158  -1.675  0.00  0.00    +0.020 A 
ATOM      4  C   UNL     1      -6.938  -1.269  -2.279  0.00  0.00    +0.031 A 
ATOM      5  C   UNL     1      -7.911  -2.022  -1.687  0.00  0.00    +0.042 A 
ATOM      6  C   UNL     1      -7.664  -2.681  -0.488  0.00  0.00    +0.022 A 
ATOM      7  C   UNL     1      -6.434  -2.586   0.124  0.00  0.00    +0.028 A 
ATOM      8  C   UNL     1      -5.426  -1.825  -0.461  0.00  0.00    +0.049 A 
ATOM      9  N   UNL     1      -4.127  -1.550  -0.102  0.00  0.00    -0.349 N 
ATOM     10  H   UNL     1      -3.678  -1.881   0.691  0.00  0.00    +0.166 HD
ATOM     11 CL   UNL     1      -9.471  -2.158  -2.437  0.00  0.00    -0.084 Cl
ATOM     12 CL   UNL     1      -4.253   0.510  -3.438  0.00  0.00    -0.081 Cl
ENDROOT
BRANCH   1  14
ATOM     13  N   UNL     1      -1.367  -0.524  -0.021  0.00  0.00    -0.305 N 
ATOM     14  C   UNL     1      -2.194  -0.200  -1.035  0.00  0.00    +0.262 C 
ATOM     15  O   UNL     1      -1.803   0.524  -1.931  0.00  0.00    -0.269 OA
ATOM     16  H   UNL     1      -1.679  -1.101   0.693  0.00  0.00    +0.150 HD
BRANCH  13  18
ATOM     17  C   UNL     1      -0.019   1.526   0.010  0.00  0.00    +0.031 C 
ATOM     18  C   UNL     1       0.002  -0.004   0.002  0.00  0.00    +0.032 C 
ATOM     19  C   UNL     1       0.781  -0.514  -1.223  0.00  0.00    +0.025 C 
ATOM     20  C   UNL     1       1.971  -1.331  -0.679  0.00  0.00    +0.002 C 
ATOM     21  C   UNL     1       1.516  -1.771   0.734  0.00  0.00    +0.002 C 
ATOM     22  C   UNL     1       0.746  -0.529   1.247  0.00  0.00    +0.025 C 
ENDBRANCH  13  18
ENDBRANCH   1  14
TORSDOF 2
