REMARK  Name = ZINC13065092
REMARK  14 active torsions:
REMARK  status: ('A' for Active; 'I' for Inactive)
REMARK    1  A    between atoms: C_1  and  C_2
REMARK    2  A    between atoms: C_2  and  C_3
REMARK    3  A    between atoms: C_3  and  C_5
REMARK    4  A    between atoms: C_3  and  N_71
REMARK    5  A    between atoms: N_9  and  C_10
REMARK    6  A    between atoms: C_10  and  C_11
REMARK    7  A    between atoms: C_11  and  O_13
REMARK    8  A    between atoms: O_13  and  C_14
REMARK    9  A    between atoms: C_14  and  C_15
REMARK   10  A    between atoms: C_16  and  C_17
REMARK   11  A    between atoms: C_16  and  N_71
REMARK   12  A    between atoms: C_22  and  C_30
REMARK   13  A    between atoms: C_23  and  C_29
REMARK   14  A    between atoms: C_31  and  N_71
REMARK                            x       y       z     vdW  Elec       q    Type
REMARK                         _______ _______ _______ _____ _____    ______ ____
ROOT
ATOM      1  N   UNL     1      -3.348  -0.452   1.281  0.00  0.00    +0.391 N 
ATOM      2  H   UNL     1      -4.320  -0.688   1.048  0.00  0.00    -0.080 HD
ENDROOT
BRANCH   1   3
ATOM      3  C   UNL     1      -2.828  -1.450   2.239  0.00  0.00    -0.067 C 
ATOM      4  C   UNL     1      -3.766  -1.512   3.446  0.00  0.00    -0.015 C 
ATOM      5  C   UNL     1      -3.253  -2.559   4.437  0.00  0.00    -0.002 C 
ATOM      6  C   UNL     1      -1.847  -2.175   4.903  0.00  0.00    -0.000 C 
ATOM      7  C   UNL     1      -0.909  -2.113   3.696  0.00  0.00    -0.002 C 
ATOM      8  C   UNL     1      -1.422  -1.066   2.705  0.00  0.00    -0.015 C 
ENDBRANCH   1   3
BRANCH   1   9
ATOM      9  C   UNL     1      -3.314   0.896   1.888  0.00  0.00    +0.003 C 
BRANCH   9  10
ATOM     10  C   UNL     1      -1.910   1.444   1.876  0.00  0.00    +0.139 A 
ATOM     11  N   UNL     1      -0.996   1.234   0.961  0.00  0.00    -0.115 NA
ATOM     12  N   UNL     1       0.068   1.873   1.308  0.00  0.00    -0.023 NA
ATOM     13  N   UNL     1      -0.144   2.485   2.420  0.00  0.00    -0.043 NA
ATOM     14  N   UNL     1      -1.354   2.250   2.800  0.00  0.00    -0.220 N 
BRANCH  14  15
ATOM     15  C   UNL     1      -2.001   2.761   4.011  0.00  0.00    +0.267 C 
BRANCH  15  16
ATOM     16  C   UNL     1      -1.625   1.895   5.185  0.00  0.00    +0.329 C 
ATOM     17  O   UNL     1      -0.803   1.019   5.051  0.00  0.00    -0.249 OA
BRANCH  16  18
ATOM     18  O   UNL     1      -2.204   2.095   6.380  0.00  0.00    -0.464 OA
BRANCH  18  19
ATOM     19  C   UNL     1      -1.793   1.223   7.465  0.00  0.00    +0.229 C 
ATOM     20  C   UNL     1      -2.554   1.600   8.738  0.00  0.00    +0.048 C 
ENDBRANCH  18  19
ENDBRANCH  16  18
ENDBRANCH  15  16
ENDBRANCH  14  15
ENDBRANCH   9  10
BRANCH   9  22
ATOM     21  C   UNL     1      -5.664   1.291   1.138  0.00  0.00    +0.002 C 
ATOM     22  C   UNL     1      -4.229   1.820   1.082  0.00  0.00    -0.011 C 
ENDBRANCH   9  22
ENDBRANCH   1   9
BRANCH   1  23
ATOM     23  C   UNL     1      -2.539  -0.469   0.044  0.00  0.00    -0.036 C 
BRANCH  23  24
ATOM     24  C   UNL     1      -2.913  -1.688  -0.760  0.00  0.00    +0.001 A 
ATOM     25  C   UNL     1      -3.877  -1.601  -1.710  0.00  0.00    +0.017 A 
ATOM     26  C   UNL     1      -4.216  -2.803  -2.474  0.00  0.00    -0.001 A 
ATOM     27  C   UNL     1      -5.202  -2.775  -3.466  0.00  0.00    +0.010 A 
ATOM     28  C   UNL     1      -5.495  -3.913  -4.161  0.00  0.00    +0.004 A 
ATOM     29  C   UNL     1      -4.823  -5.098  -3.892  0.00  0.00    -0.046 A 
ATOM     30  C   UNL     1      -3.849  -5.149  -2.919  0.00  0.00    -0.024 A 
ATOM     31  C   UNL     1      -3.533  -4.002  -2.198  0.00  0.00    +0.052 A 
ATOM     32  N   UNL     1      -2.562  -4.024  -1.220  0.00  0.00    -0.322 N 
ATOM     33  H   UNL     1      -2.092  -4.851  -1.031  0.00  0.00    +0.169 HD
ATOM     34  C   UNL     1      -2.253  -2.914  -0.527  0.00  0.00    +0.251 A 
ATOM     35  O   UNL     1      -1.386  -2.969   0.328  0.00  0.00    -0.268 OA
ATOM     36  C   UNL     1      -3.128  -6.442  -2.636  0.00  0.00    +0.046 C 
ATOM     37  C   UNL     1      -5.163  -6.342  -4.672  0.00  0.00    +0.044 C 
ENDBRANCH  23  24
ENDBRANCH   1  23
TORSDOF 10
