REMARK  Name = ZINC63350014
REMARK  14 active torsions:
REMARK  status: ('A' for Active; 'I' for Inactive)
REMARK    1  A    between atoms: CG1_1  and  CB_2
REMARK    2  A    between atoms: CB_2  and  CG2_3
REMARK    3  A    between atoms: CB_2  and  CA_4
REMARK    4  A    between atoms: CA_4  and  C_6
REMARK    5  A    between atoms: CA_4  and  N_28
REMARK    6  A    between atoms: N_8  and  CA_9
REMARK    7  A    between atoms: CA_9  and  C_10
REMARK    8  A    between atoms: N_12  and  CA_13
REMARK    9  A    between atoms: CA_13  and  CB_15
REMARK   10  A    between atoms: CA_13  and  C_25
REMARK   11  A    between atoms: CB_15  and  CG_16
REMARK   12  A    between atoms: C_29  and  O_31
REMARK   13  A    between atoms: O_31  and  C_32
REMARK   14  A    between atoms: C_32  and  C_33
REMARK                            x       y       z     vdW  Elec       q    Type
REMARK                         _______ _______ _______ _____ _____    ______ ____
ROOT
ATOM      1  C   GLY A   1      -1.241  -2.056   0.093  0.00  0.00    +0.234 C 
ATOM      2  O   GLY A   1      -1.649  -2.818  -0.757  0.00  0.00    -0.274 OA
ATOM      3  N   GLY A   1      -0.709  -2.540   1.233  0.00  0.00    -0.305 N 
ATOM      4  H   GLY A   1      -0.317  -1.933   1.881  0.00  0.00    +0.149 HD
ENDROOT
BRANCH   1   5
ATOM      5  CA  GLY A   1      -1.331  -0.567  -0.124  0.00  0.00    +0.165 C 
BRANCH   5   6
ATOM      6  N   GLY A   1      -2.352  -0.282  -1.135  0.00  0.00    -0.270 N 
ATOM      7  C   UNK A   0      -2.969   0.916  -1.150  0.00  0.00    +0.401 C 
ATOM      8  O   UNK A   0      -2.680   1.759  -0.325  0.00  0.00    -0.226 OA
ATOM      9  H   GLY A   1      -2.583  -0.955  -1.795  0.00  0.00    +0.153 HD
BRANCH   7  10
ATOM     10  O   UNK A   0      -3.907   1.178  -2.080  0.00  0.00    -0.446 OA
BRANCH  10  11
ATOM     11  C   UNK A   0      -4.521   2.468  -2.037  0.00  0.00    +0.269 C 
BRANCH  11  12
ATOM     12  C   UNK A   0      -5.537   2.578  -3.144  0.00  0.00    -0.010 A 
ATOM     13  C   UNK A   0      -5.156   3.050  -4.387  0.00  0.00    +0.007 A 
ATOM     14  C   UNK A   0      -6.088   3.152  -5.403  0.00  0.00    +0.000 A 
ATOM     15  C   UNK A   0      -7.400   2.781  -5.177  0.00  0.00    +0.000 A 
ATOM     16  C   UNK A   0      -7.780   2.308  -3.935  0.00  0.00    +0.000 A 
ATOM     17  C   UNK A   0      -6.848   2.202  -2.920  0.00  0.00    +0.007 A 
ENDBRANCH  11  12
ENDBRANCH  10  11
ENDBRANCH   7  10
ENDBRANCH   5   6
BRANCH   5  19
ATOM     18  CG1 GLY A   1       0.337  -0.618  -1.984  0.00  0.00    +0.009 C 
ATOM     19  CB  GLY A   1       0.023  -0.039  -0.603  0.00  0.00    +0.012 C 
ATOM     20  CG2 GLY A   1      -0.026   1.488  -0.689  0.00  0.00    +0.009 C 
ENDBRANCH   5  19
ENDBRANCH   1   5
BRANCH   3  21
ATOM     21  CA  GLY A   1      -0.721  -3.981   1.493  0.00  0.00    +0.200 C 
BRANCH  21  22
ATOM     22  C   GLY A   1      -0.070  -4.257   2.824  0.00  0.00    +0.231 C 
ATOM     23  O   GLY A   1       0.362  -3.340   3.489  0.00  0.00    -0.274 OA
ATOM     24  N   TRP A   2       0.033  -5.523   3.274  0.00  0.00    -0.301 N 
ATOM     25  H   TRP A   2      -0.313  -6.257   2.742  0.00  0.00    +0.150 HD
BRANCH  24  26
ATOM     26  CA  TRP A   2       0.666  -5.792   4.568  0.00  0.00    +0.190 C 
BRANCH  26  27
ATOM     27  C   TRP A   2       2.158  -5.889   4.386  0.00  0.00    +0.376 C 
ATOM     28  O   TRP A   2       2.648  -5.747   3.278  0.00  0.00    -0.244 OA
ATOM     29  OXT TRP A   2       2.876  -6.109   5.346  0.00  0.00    -0.244 OA
ENDBRANCH  26  27
BRANCH  26  30
ATOM     30  CB  TRP A   2       0.134  -7.111   5.132  0.00  0.00    +0.067 C 
BRANCH  30  31
ATOM     31  CG  TRP A   2      -1.337  -6.973   5.429  0.00  0.00    -0.039 C 
ATOM     32  CD2 TRP A   2      -2.366  -7.326   4.625  0.00  0.00    -0.001 A 
ATOM     33  CE3 TRP A   2      -2.421  -7.919   3.283  0.00  0.00    +0.010 A 
ATOM     34  CZ3 TRP A   2      -3.627  -8.163   2.723  0.00  0.00    +0.001 A 
ATOM     35  CH2 TRP A   2      -4.824  -7.863   3.388  0.00  0.00    +0.002 A 
ATOM     36  CZ2 TRP A   2      -4.854  -7.316   4.622  0.00  0.00    +0.026 A 
ATOM     37  CE2 TRP A   2      -3.643  -7.018   5.307  0.00  0.00    +0.043 A 
ATOM     38  NE1 TRP A   2      -3.414  -6.496   6.487  0.00  0.00    -0.380 N 
ATOM     39  CD1 TRP A   2      -1.963  -6.418   6.690  0.00  0.00    +0.144 C 
ATOM     40  HE1 TRP A   2      -4.090  -6.212   7.122  0.00  0.00    +0.160 HD
ENDBRANCH  30  31
ENDBRANCH  26  30
ENDBRANCH  24  26
ENDBRANCH  21  22
ENDBRANCH   3  21
TORSDOF 12
