REMARK  Name = ZINC12525804
REMARK  8 active torsions:
REMARK  status: ('A' for Active; 'I' for Inactive)
REMARK    1  A    between atoms: C_1  and  N_2
REMARK    2  A    between atoms: N_2  and  C_3
REMARK    3  A    between atoms: N_2  and  S_4
REMARK    4  A    between atoms: S_4  and  C_7
REMARK    5  A    between atoms: C_10  and  O_25
REMARK    6  A    between atoms: C_11  and  N_13
REMARK    7  A    between atoms: N_13  and  S_14
REMARK    8  A    between atoms: S_14  and  C_17
REMARK                            x       y       z     vdW  Elec       q    Type
REMARK                         _______ _______ _______ _____ _____    ______ ____
ROOT
ATOM      1  C   UNL     1      -3.486   5.320  -2.738  0.00  0.00    +0.107 A 
ATOM      2  C   UNL     1      -3.231   4.963  -4.049  0.00  0.00    +0.032 A 
ATOM      3  C   UNL     1      -1.937   4.982  -4.536  0.00  0.00    +0.049 A 
ATOM      4  C   UNL     1      -0.892   5.365  -3.711  0.00  0.00    +0.139 A 
ATOM      5  C   UNL     1      -1.148   5.719  -2.388  0.00  0.00    +0.091 A 
ATOM      6  C   UNL     1      -2.449   5.697  -1.907  0.00  0.00    +0.056 A 
ENDROOT
BRANCH   1   7
ATOM      7  S   UNL     1      -5.138   5.292  -2.125  0.00  0.00    +0.060 S 
ATOM      8  O   UNL     1      -5.859   4.380  -2.942  0.00  0.00    -0.153 OA
ATOM      9  O   UNL     1      -5.046   5.143  -0.715  0.00  0.00    -0.153 OA
BRANCH   7  11
ATOM     10  C   UNL     1      -6.490   7.064  -3.657  0.00  0.00    +0.131 C 
ATOM     11  N   UNL     1      -5.788   6.790  -2.401  0.00  0.00    -0.183 NA
ATOM     12  C   UNL     1      -5.661   7.841  -1.389  0.00  0.00    +0.131 C 
ENDBRANCH   7  11
ENDBRANCH   1   7
BRANCH   5  13
ATOM     13  N   UNL     1      -0.095   6.101  -1.548  0.00  0.00    -0.213 N 
ATOM     14  H   UNL     1       0.654   6.603  -1.907  0.00  0.00    +0.174 HD
BRANCH  13  15
ATOM     15  S   UNL     1      -0.129   5.697   0.058  0.00  0.00    +0.073 S 
ATOM     16  O   UNL     1      -1.371   6.162   0.568  0.00  0.00    -0.150 OA
ATOM     17  O   UNL     1       1.119   6.102   0.604  0.00  0.00    -0.150 OA
BRANCH  15  18
ATOM     18  C   UNL     1      -0.172   3.938   0.151  0.00  0.00    +0.111 A 
ATOM     19  C   UNL     1       1.007   3.220   0.206  0.00  0.00    +0.049 A 
ATOM     20  C   UNL     1       0.974   1.839   0.279  0.00  0.00    +0.044 A 
ATOM     21  C   UNL     1      -0.241   1.177   0.298  0.00  0.00    +0.040 A 
ATOM     22  C   UNL     1      -1.421   1.896   0.239  0.00  0.00    +0.044 A 
ATOM     23  C   UNL     1      -1.386   3.277   0.170  0.00  0.00    +0.049 A 
ATOM     24 CL   UNL     1      -2.946   1.065   0.255  0.00  0.00    -0.083 Cl
ATOM     25 CL   UNL     1       2.455   0.936   0.347  0.00  0.00    -0.083 Cl
ENDBRANCH  15  18
ENDBRANCH  13  15
ENDBRANCH   5  13
BRANCH   4  26
ATOM     26  O   UNL     1       0.380   5.390  -4.190  0.00  0.00    -0.505 OA
ATOM     27  H   UNL     1       0.857   4.556  -4.082  0.00  0.00    +0.292 HD
ENDBRANCH   4  26
TORSDOF 6
