REMARK  Name = ZINC00861342
REMARK  4 active torsions:
REMARK  status: ('A' for Active; 'I' for Inactive)
REMARK    1  A    between atoms: C_1  and  O_2
REMARK    2  A    between atoms: O_2  and  C_3
REMARK    3  A    between atoms: C_8  and  C_9
REMARK    4  A    between atoms: C_14  and  C_19
REMARK                            x       y       z     vdW  Elec       q    Type
REMARK                         _______ _______ _______ _____ _____    ______ ____
ROOT
ATOM      1  C   UNL     1       2.490   1.047  -0.015  0.00  0.00    +0.139 C 
ATOM      2  C   UNL     1       3.041   1.024   1.390  0.00  0.00    +0.037 C 
ATOM      3  C   UNL     1       3.132  -0.058   2.184  0.00  0.00    +0.017 C 
ATOM      4  C   UNL     1       3.722   0.057   3.579  0.00  0.00    +0.059 C 
ATOM      5  C   UNL     1       3.419   1.435   4.163  0.00  0.00    +0.032 C 
ATOM      6  C   UNL     1       4.040   2.483   3.231  0.00  0.00    +0.088 C 
ATOM      7  C   UNL     1       3.482   2.286   1.854  0.00  0.00    +0.163 C 
ATOM      8  O   UNL     1       3.406   3.243   1.109  0.00  0.00    -0.292 OA
ATOM      9  N   UNL     1       2.741  -1.309   1.831  0.00  0.00    -0.316 N 
ATOM     10  C   UNL     1       1.535  -1.622   1.216  0.00  0.00    +0.052 A 
ATOM     11  C   UNL     1       0.565  -2.392   1.835  0.00  0.00    +0.025 A 
ATOM     12  C   UNL     1      -0.593  -2.707   1.144  0.00  0.00    +0.002 A 
ATOM     13  C   UNL     1      -0.777  -2.260  -0.152  0.00  0.00    +0.002 A 
ATOM     14  C   UNL     1       0.185  -1.475  -0.765  0.00  0.00    +0.025 A 
ATOM     15  C   UNL     1       1.334  -1.140  -0.069  0.00  0.00    +0.049 A 
ATOM     16  N   UNL     1       2.277  -0.260  -0.600  0.00  0.00    -0.331 N 
ATOM     17  H   UNL     1       3.349  -2.039   2.024  0.00  0.00    +0.152 HD
ATOM     18  H   UNL     1       2.798  -0.528  -1.374  0.00  0.00    +0.147 HD
ENDROOT
BRANCH   5  19
ATOM     19  C   UNL     1       4.024   1.551   5.539  0.00  0.00    -0.043 A 
ATOM     20  C   UNL     1       5.388   1.410   5.708  0.00  0.00    +0.005 A 
ATOM     21  C   UNL     1       5.944   1.522   6.969  0.00  0.00    +0.020 A 
ATOM     22  C   UNL     1       5.133   1.764   8.063  0.00  0.00    +0.041 A 
ATOM     23  C   UNL     1       3.766   1.900   7.894  0.00  0.00    +0.020 A 
ATOM     24  C   UNL     1       3.212   1.794   6.632  0.00  0.00    +0.005 A 
ATOM     25 CL   UNL     1       5.829   1.898   9.647  0.00  0.00    -0.084 Cl
ENDBRANCH   5  19
BRANCH   1  31
ATOM     26  C   UNL     1       0.631   2.258  -1.184  0.00  0.00    +0.125 A 
ATOM     27  C   UNL     1      -0.579   2.935  -1.166  0.00  0.00    +0.046 A 
ATOM     28  C   UNL     1      -1.241   3.134   0.030  0.00  0.00    +0.004 A 
ATOM     29  C   UNL     1      -0.700   2.654   1.209  0.00  0.00    +0.001 A 
ATOM     30  C   UNL     1       0.509   1.984   1.194  0.00  0.00    +0.009 A 
ATOM     31  C   UNL     1       1.175   1.782   0.000  0.00  0.00    +0.019 A 
BRANCH  26  33
ATOM     32  C   UNL     1       0.666   2.578  -3.539  0.00  0.00    +0.277 C 
ATOM     33  O   UNL     1       1.284   2.061  -2.360  0.00  0.00    -0.495 OA
ENDBRANCH  26  33
ENDBRANCH   1  31
TORSDOF 3
