REMARK  Name = ZINC19266983
REMARK  4 active torsions:
REMARK  status: ('A' for Active; 'I' for Inactive)
REMARK    1  A    between atoms: C_1  and  C_2
REMARK    2  A    between atoms: C_4  and  N_22
REMARK    3  A    between atoms: C_7  and  N_8
REMARK    4  A    between atoms: C_9  and  C_11
REMARK                            x       y       z     vdW  Elec       q    Type
REMARK                         _______ _______ _______ _____ _____    ______ ____
ROOT
ATOM      1  N   UNL     1      -2.222   8.132   0.364  0.00  0.00    -0.282 N 
ATOM      2  C   UNL     1      -1.209   7.310   0.028  0.00  0.00    +0.261 C 
ATOM      3  O   UNL     1      -0.258   7.740  -0.590  0.00  0.00    -0.271 OA
ATOM      4  H   UNL     1      -3.125   7.725   0.844  0.00  0.00    +0.155 HD
ENDROOT
BRANCH   2   5
ATOM      5  C   UNL     1      -1.256   5.855   0.420  0.00  0.00    +0.296 C 
ATOM      6  C   UNL     1      -2.418   5.162  -0.305  0.00  0.00    +0.283 C 
ATOM      7  O   UNL     1      -2.426   3.783   0.079  0.00  0.00    -0.484 OA
ATOM      8  C   UNL     1      -1.228   3.137   0.062  0.00  0.00    +0.162 A 
ATOM      9  C   UNL     1      -1.203   1.750   0.059  0.00  0.00    +0.049 A 
ATOM     10  C   UNL     1       0.006   1.080   0.051  0.00  0.00    +0.004 A 
ATOM     11  C   UNL     1       1.192   1.789   0.035  0.00  0.00    +0.004 A 
ATOM     12  C   UNL     1       1.174   3.171   0.032  0.00  0.00    +0.049 A 
ATOM     13  C   UNL     1      -0.035   3.850   0.044  0.00  0.00    +0.163 A 
ATOM     14  O   UNL     1      -0.038   5.211   0.033  0.00  0.00    -0.473 OA
ENDBRANCH   2   5
BRANCH   1  21
ATOM     15  C   UNL     1      -4.632   9.615   0.078  0.00  0.00    +0.046 C 
ATOM     16  C   UNL     1      -3.279  10.266  -0.044  0.00  0.00    -0.028 A 
ATOM     17  C   UNL     1      -3.185  11.619  -0.301  0.00  0.00    +0.028 A 
ATOM     18  C   UNL     1      -1.938  12.220  -0.414  0.00  0.00    +0.025 A 
ATOM     19  C   UNL     1      -0.785  11.458  -0.268  0.00  0.00    +0.024 A 
ATOM     20  C   UNL     1      -0.879  10.107  -0.004  0.00  0.00    +0.025 A 
ATOM     21  C   UNL     1      -2.127   9.505   0.102  0.00  0.00    +0.037 A 
BRANCH  18  22
ATOM     22  N   UNL     1      -1.842  13.591  -0.674  0.00  0.00    -0.358 N 
ATOM     23  H   UNL     1      -0.854  14.066  -0.763  0.00  0.00    +0.142 HD
ATOM     24  H   UNL     1      -2.755  14.194  -0.789  0.00  0.00    +0.142 HD
ENDBRANCH  18  22
ENDBRANCH   1  21
TORSDOF 3
