REMARK  Name = ZINC12805430
REMARK  8 active torsions:
REMARK  status: ('A' for Active; 'I' for Inactive)
REMARK    1  A    between atoms: C_1  and  C_2
REMARK    2  A    between atoms: C_8  and  N_10
REMARK    3  A    between atoms: C_11  and  C_31
REMARK    4  A    between atoms: C_14  and  S_15
REMARK    5  A    between atoms: S_15  and  C_16
REMARK    6  A    between atoms: C_16  and  C_17
REMARK    7  A    between atoms: N_19  and  C_20
REMARK    8  A    between atoms: C_21  and  C_28
REMARK                            x       y       z     vdW  Elec       q    Type
REMARK                         _______ _______ _______ _____ _____    ______ ____
ROOT
ATOM      1  S   UNL     1       2.104   3.389  -2.446  0.00  0.00    -0.077 S 
ENDROOT
BRANCH   1   6
ATOM      2  N   UNL     1      -0.209   1.839  -2.712  0.00  0.00    -0.299 N 
ATOM      3  C   UNL     1      -0.561   0.689  -3.381  0.00  0.00    +0.167 A 
ATOM      4  N   UNL     1       0.507   0.274  -4.022  0.00  0.00    -0.128 NA
ATOM      5  N   UNL     1       1.488   1.074  -3.803  0.00  0.00    -0.122 NA
ATOM      6  C   UNL     1       1.106   2.053  -3.013  0.00  0.00    +0.193 A 
BRANCH   2  13
ATOM      7  C   UNL     1      -0.392   1.314   0.130  0.00  0.00    +0.009 C 
ATOM      8  C   UNL     1      -0.478   2.727  -0.449  0.00  0.00    +0.009 C 
ATOM      9  C   UNL     1       0.923   3.340  -0.509  0.00  0.00    +0.005 C 
ATOM     10  C   UNL     1       0.837   4.753  -1.089  0.00  0.00    +0.000 C 
ATOM     11  C   UNL     1       0.247   4.691  -2.499  0.00  0.00    +0.002 C 
ATOM     12  C   UNL     1      -1.154   4.078  -2.439  0.00  0.00    +0.025 C 
ATOM     13  C   UNL     1      -1.068   2.665  -1.860  0.00  0.00    +0.094 C 
ENDBRANCH   2  13
BRANCH   3  14
ATOM     14  C   UNL     1      -1.890   0.042  -3.377  0.00  0.00    +0.037 A 
ATOM     15  C   UNL     1      -2.343  -0.659  -4.501  0.00  0.00    +0.014 A 
ATOM     16  C   UNL     1      -3.595  -1.246  -4.447  0.00  0.00    +0.020 A 
ATOM     17  C   UNL     1      -4.352  -1.123  -3.295  0.00  0.00    +0.111 A 
ATOM     18  N   UNL     1      -3.899  -0.456  -2.251  0.00  0.00    -0.263 NA
ATOM     19  C   UNL     1      -2.712   0.116  -2.252  0.00  0.00    +0.122 A 
ENDBRANCH   3  14
ENDBRANCH   1   6
BRANCH   1  20
ATOM     20  C   UNL     1       3.669   2.978  -3.256  0.00  0.00    +0.173 C 
BRANCH  20  21
ATOM     21  C   UNL     1       4.705   4.015  -2.904  0.00  0.00    +0.228 C 
ATOM     22  O   UNL     1       4.413   4.941  -2.176  0.00  0.00    -0.275 OA
ATOM     23  N   UNL     1       5.955   3.914  -3.397  0.00  0.00    -0.279 N 
ATOM     24  H   UNL     1       6.188   3.174  -3.979  0.00  0.00    +0.155 HD
BRANCH  23  25
ATOM     25  C   UNL     1       6.907   4.868  -3.073  0.00  0.00    +0.084 A 
ATOM     26  C   UNL     1       8.231   4.933  -3.472  0.00  0.00    +0.068 A 
ATOM     27  C   UNL     1       9.031   6.058  -2.988  0.00  0.00    -0.023 A 
ATOM     28  C   UNL     1       8.380   6.916  -2.183  0.00  0.00    -0.004 A 
ATOM     29  S   UNL     1       6.732   6.264  -2.065  0.00  0.00    -0.077 S 
ATOM     30  C   UNL     1       9.268   8.038  -1.718  0.00  0.00    +0.043 C 
ATOM     31  C   UNL     1      10.704   7.538  -1.996  0.00  0.00    +0.010 C 
ATOM     32  C   UNL     1      10.472   6.543  -3.151  0.00  0.00    +0.037 C 
BRANCH  26  33
ATOM     33  C   UNL     1       8.810   3.912  -4.352  0.00  0.00    +0.244 C 
ATOM     34  O   UNL     1       8.769   4.056  -5.560  0.00  0.00    -0.270 OA
ATOM     35  N   UNL     1       9.387   2.815  -3.823  0.00  0.00    -0.325 N 
ATOM     36  H   UNL     1       9.420   2.701  -2.860  0.00  0.00    +0.145 HD
ATOM     37  H   UNL     1       9.770   2.140  -4.405  0.00  0.00    +0.145 HD
ENDBRANCH  26  33
ENDBRANCH  23  25
ENDBRANCH  20  21
ENDBRANCH   1  20
TORSDOF 7
