REMARK  Name = ZINC65201744
REMARK  7 active torsions:
REMARK  status: ('A' for Active; 'I' for Inactive)
REMARK    1  A    between atoms: C_1  and  C_2
REMARK    2  A    between atoms: C_3  and  C_13
REMARK    3  A    between atoms: C_6  and  C_8
REMARK    4  A    between atoms: N_15  and  N_16
REMARK    5  A    between atoms: N_19  and  C_20
REMARK    6  A    between atoms: C_20  and  C_21
REMARK    7  A    between atoms: C_21  and  C_22
REMARK                            x       y       z     vdW  Elec       q    Type
REMARK                         _______ _______ _______ _____ _____    ______ ____
ROOT
ATOM      1  C   UNL     1      -0.228   0.049  -2.480  0.00  0.00    +0.262 C 
ATOM      2  O   UNL     1      -0.154   1.262  -2.487  0.00  0.00    -0.269 OA
ATOM      3  N   UNL     1      -0.427  -0.621  -3.633  0.00  0.00    -0.229 N 
ATOM      4  H   UNL     1      -0.486  -1.589  -3.628  0.00  0.00    +0.173 HD
ENDROOT
BRANCH   1   7
ATOM      5  C   UNL     1      -0.074   1.502   0.015  0.00  0.00    +0.066 C 
ATOM      6  C   UNL     1      -0.024  -0.005   0.004  0.00  0.00    +0.051 A 
ATOM      7  C   UNL     1      -0.100  -0.691  -1.210  0.00  0.00    +0.059 A 
ATOM      8  C   UNL     1      -0.053  -2.094  -1.206  0.00  0.00    +0.017 A 
ATOM      9  C   UNL     1       0.066  -2.741  -0.006  0.00  0.00    +0.029 A 
ATOM     10  C   UNL     1       0.136  -1.991   1.172  0.00  0.00    +0.078 A 
ATOM     11  N   UNL     1       0.095  -0.661   1.137  0.00  0.00    -0.251 NA
BRANCH  10  12
ATOM     12  C   UNL     1       0.264  -2.681   2.468  0.00  0.00    +0.038 A 
ATOM     13  C   UNL     1       0.343  -2.146   3.729  0.00  0.00    +0.017 A 
ATOM     14  C   UNL     1       0.460  -2.998   4.802  0.00  0.00    +0.008 A 
ATOM     15  C   UNL     1       0.493  -4.340   4.583  0.00  0.00    +0.046 A 
ATOM     16  S   UNL     1       0.349  -4.433   2.806  0.00  0.00    -0.095 S 
ENDBRANCH  10  12
ENDBRANCH   1   7
BRANCH   3  17
ATOM     17  N   UNL     1      -0.549   0.082  -4.839  0.00  0.00    -0.218 N 
ATOM     18  C   UNL     1      -0.748  -0.587  -5.992  0.00  0.00    +0.316 C 
ATOM     19  O   UNL     1      -0.854   0.022  -7.038  0.00  0.00    -0.251 OA
ATOM     20  N   UNL     1      -0.830  -1.933  -5.984  0.00  0.00    -0.298 N 
ATOM     21  H   UNL     1      -0.490   1.050  -4.844  0.00  0.00    +0.174 HD
ATOM     22  H   UNL     1      -0.746  -2.419  -5.149  0.00  0.00    +0.150 HD
BRANCH  20  23
ATOM     23  C   UNL     1      -1.047  -2.660  -7.237  0.00  0.00    +0.111 C 
BRANCH  23  24
ATOM     24  C   UNL     1      -1.100  -4.162  -6.952  0.00  0.00    +0.061 C 
BRANCH  24  25
ATOM     25  C   UNL     1      -1.323  -4.911  -8.241  0.00  0.00    -0.009 A 
ATOM     26  C   UNL     1      -0.408  -5.404  -9.111  0.00  0.00    +0.011 A 
ATOM     27  C   UNL     1      -0.847  -6.065 -10.243  0.00  0.00    +0.008 A 
ATOM     28  C   UNL     1      -2.179  -6.200 -10.450  0.00  0.00    +0.045 A 
ATOM     29  S   UNL     1      -2.861  -5.385  -9.015  0.00  0.00    -0.102 S 
ENDBRANCH  24  25
ENDBRANCH  23  24
ENDBRANCH  20  23
ENDBRANCH   3  17
TORSDOF 6
