REMARK  Name = ZINC09339157
REMARK  12 active torsions:
REMARK  status: ('A' for Active; 'I' for Inactive)
REMARK    1  A    between atoms: C_1  and  C_2
REMARK    2  A    between atoms: C_4  and  C_35
REMARK    3  A    between atoms: C_6  and  N_13
REMARK    4  A    between atoms: C_14  and  C_16
REMARK    5  A    between atoms: C_16  and  S_17
REMARK    6  A    between atoms: S_17  and  C_18
REMARK    7  A    between atoms: C_21  and  C_30
REMARK    8  A    between atoms: N_22  and  C_23
REMARK    9  A    between atoms: C_30  and  C_32
REMARK   10  A    between atoms: C_30  and  N_58
REMARK   11  A    between atoms: C_33  and  N_58
REMARK   12  A    between atoms: C_34  and  N_58
REMARK                            x       y       z     vdW  Elec       q    Type
REMARK                         _______ _______ _______ _____ _____    ______ ____
ROOT
ATOM      1  S   UNL     1      -4.631   5.452  -1.593  0.00  0.00    -0.076 S 
ENDROOT
BRANCH   1   2
ATOM      2  C   UNL     1      -3.289   4.431  -1.081  0.00  0.00    +0.197 A 
ATOM      3  N   UNL     1      -2.626   3.580  -1.829  0.00  0.00    -0.122 NA
ATOM      4  N   UNL     1      -1.709   3.008  -1.134  0.00  0.00    -0.135 NA
ATOM      5  C   UNL     1      -1.735   3.449   0.092  0.00  0.00    +0.125 A 
ATOM      6  N   UNL     1      -2.741   4.375   0.171  0.00  0.00    -0.275 N 
BRANCH   6   7
ATOM      7  C   UNL     1      -3.128   5.112   1.300  0.00  0.00    +0.050 A 
ATOM      8  C   UNL     1      -3.666   4.463   2.403  0.00  0.00    +0.029 A 
ATOM      9  C   UNL     1      -4.041   5.189   3.516  0.00  0.00    +0.040 A 
ATOM     10  C   UNL     1      -3.892   6.566   3.527  0.00  0.00    +0.124 A 
ATOM     11  C   UNL     1      -3.361   7.216   2.426  0.00  0.00    +0.040 A 
ATOM     12  C   UNL     1      -2.980   6.492   1.313  0.00  0.00    +0.029 A 
ATOM     13  F   UNL     1      -4.265   7.276   4.615  0.00  0.00    -0.205 F 
ENDBRANCH   6   7
BRANCH   5  14
ATOM     14  C   UNL     1      -0.822   3.023   1.213  0.00  0.00    -0.003 C 
ATOM     15  C   UNL     1       0.559   3.650   1.013  0.00  0.00    -0.005 C 
BRANCH  14  18
ATOM     16  C   UNL     1      -0.013   1.086   0.008  0.00  0.00    -0.096 C 
ATOM     17  C   UNL     1      -0.016   1.091   2.429  0.00  0.00    -0.096 C 
ATOM     18  N   UNL     1      -0.727   1.548   1.217  0.00  0.00    +0.382 N 
ATOM     19  H   UNL     1      -1.674   1.153   1.216  0.00  0.00    -0.082 HD
ENDBRANCH  14  18
ENDBRANCH   5  14
ENDBRANCH   1   2
BRANCH   1  20
ATOM     20  C   UNL     1      -4.755   4.961  -3.330  0.00  0.00    +0.173 C 
BRANCH  20  22
ATOM     21  N   UNL     1      -6.149   5.527  -5.294  0.00  0.00    -0.255 N 
ATOM     22  C   UNL     1      -5.871   5.729  -3.991  0.00  0.00    +0.230 C 
ATOM     23  O   UNL     1      -6.519   6.529  -3.350  0.00  0.00    -0.274 OA
ATOM     24  H   UNL     1      -5.631   4.887  -5.807  0.00  0.00    +0.158 HD
BRANCH  21  30
ATOM     25  C   UNL     1     -10.461   8.115  -8.931  0.00  0.00    +0.068 C 
ATOM     26  C   UNL     1      -9.311   7.168  -8.703  0.00  0.00    +0.070 A 
ATOM     27  C   UNL     1      -8.689   7.071  -7.379  0.00  0.00    +0.053 A 
ATOM     28  C   UNL     1      -8.865   7.645  -6.170  0.00  0.00    +0.114 A 
ATOM     29  O   UNL     1      -7.967   7.137  -5.306  0.00  0.00    -0.445 OA
ATOM     30  C   UNL     1      -7.174   6.232  -5.901  0.00  0.00    +0.206 A 
ATOM     31  C   UNL     1      -7.560   6.122  -7.215  0.00  0.00    +0.110 A 
ATOM     32  C   UNL     1      -7.150   5.352  -8.384  0.00  0.00    +0.277 A 
ATOM     33  O   UNL     1      -6.230   4.557  -8.313  0.00  0.00    -0.266 OA
ATOM     34  N   UNL     1      -7.809   5.539  -9.547  0.00  0.00    -0.242 N 
ATOM     35  H   UNL     1      -7.535   5.027 -10.324  0.00  0.00    +0.192 HD
ATOM     36  N   UNL     1      -8.866   6.436  -9.677  0.00  0.00    -0.175 NA
ATOM     37  C   UNL     1      -9.904   8.685  -5.839  0.00  0.00    +0.087 C 
ENDBRANCH  21  30
ENDBRANCH  20  22
ENDBRANCH   1  20
TORSDOF 7
