REMARK  Name = ZINC16809793
REMARK  10 active torsions:
REMARK  status: ('A' for Active; 'I' for Inactive)
REMARK    1  A    between atoms: C_1  and  C_2
REMARK    2  A    between atoms: C_2  and  N_3
REMARK    3  A    between atoms: N_5  and  C_28
REMARK    4  A    between atoms: C_8  and  C_11
REMARK    5  A    between atoms: C_11  and  C_12
REMARK    6  A    between atoms: N_14  and  C_15
REMARK    7  A    between atoms: C_16  and  C_24
REMARK    8  A    between atoms: C_24  and  O_26
REMARK    9  A    between atoms: O_26  and  C_27
REMARK   10  A    between atoms: C_28  and  C_29
REMARK                            x       y       z     vdW  Elec       q    Type
REMARK                         _______ _______ _______ _____ _____    ______ ____
ROOT
ATOM      1  C   UNL     1      -1.006  -4.061  -4.727  0.00  0.00    +0.219 C 
ATOM      2  O   UNL     1      -0.639  -3.051  -5.289  0.00  0.00    -0.275 OA
ATOM      3  N   UNL     1      -0.539  -5.261  -5.125  0.00  0.00    -0.279 N 
ATOM      4  H   UNL     1      -0.832  -6.069  -4.675  0.00  0.00    +0.155 HD
ENDROOT
BRANCH   3   5
ATOM      5  C   UNL     1       0.361  -5.341  -6.177  0.00  0.00    +0.086 A 
ATOM      6  C   UNL     1       0.938  -6.479  -6.721  0.00  0.00    +0.091 A 
ATOM      7  C   UNL     1       1.858  -6.290  -7.830  0.00  0.00    -0.021 A 
ATOM      8  C   UNL     1       2.032  -5.001  -8.190  0.00  0.00    -0.004 A 
ATOM      9  S   UNL     1       0.996  -4.082  -7.089  0.00  0.00    -0.077 S 
ATOM     10  C   UNL     1       2.911  -4.484  -9.287  0.00  0.00    +0.043 C 
ATOM     11  C   UNL     1       3.876  -5.606  -9.700  0.00  0.00    +0.005 C 
ATOM     12  C   UNL     1       3.079  -6.897  -9.901  0.00  0.00    +0.005 C 
ATOM     13  C   UNL     1       2.582  -7.418  -8.551  0.00  0.00    +0.037 C 
BRANCH   6  14
ATOM     14  C   UNL     1       0.633  -7.813  -6.200  0.00  0.00    +0.342 C 
ATOM     15  O   UNL     1      -0.295  -8.449  -6.662  0.00  0.00    -0.245 OA
BRANCH  14  16
ATOM     16  O   UNL     1       1.381  -8.336  -5.207  0.00  0.00    -0.464 OA
ATOM     17  C   UNL     1       1.027  -9.642  -4.748  0.00  0.00    +0.280 C 
ENDBRANCH  14  16
ENDBRANCH   6  14
ENDBRANCH   3   5
BRANCH   1  18
ATOM     18  C   UNL     1      -1.984  -3.974  -3.584  0.00  0.00    +0.120 C 
BRANCH  18  24
ATOM     19  N   UNL     1      -1.372  -0.511   0.012  0.00  0.00    -0.263 NA
ATOM     20  C   UNL     1      -1.828  -1.179  -1.009  0.00  0.00    +0.159 C 
ATOM     21  N   UNL     1      -3.086  -1.724  -1.180  0.00  0.00    -0.250 N 
ATOM     22  C   UNL     1      -3.429  -2.385  -2.272  0.00  0.00    +0.235 C 
ATOM     23  O   UNL     1      -4.535  -2.861  -2.416  0.00  0.00    -0.274 OA
ATOM     24  C   UNL     1      -2.352  -2.510  -3.337  0.00  0.00    +0.149 C 
ATOM     25  S   UNL     1      -0.976  -1.597  -2.523  0.00  0.00    -0.077 S 
BRANCH  19  27
ATOM     26  C   UNL     1      -0.019   1.526   0.010  0.00  0.00    +0.029 C 
ATOM     27  C   UNL     1       0.002  -0.004   0.002  0.00  0.00    +0.141 C 
ENDBRANCH  19  27
BRANCH  21  28
ATOM     28  C   UNL     1      -4.075  -1.564  -0.111  0.00  0.00    +0.112 C 
ATOM     29  C   UNL     1      -4.872  -0.278  -0.342  0.00  0.00    +0.025 C 
ENDBRANCH  21  28
ENDBRANCH  18  24
ENDBRANCH   1  18
TORSDOF 7
