REMARK  Name = ZINC03229069
REMARK  5 active torsions:
REMARK  status: ('A' for Active; 'I' for Inactive)
REMARK    1  A    between atoms: C_12  and  S_13
REMARK    2  A    between atoms: S_13  and  C_14
REMARK    3  A    between atoms: C_14  and  C_15
REMARK    4  A    between atoms: N_17  and  C_18
REMARK    5  A    between atoms: C_23  and  C_24
REMARK                            x       y       z     vdW  Elec       q    Type
REMARK                         _______ _______ _______ _____ _____    ______ ____
ROOT
ATOM      1  C   UNL     1      -2.395   1.385  -0.081  0.00  0.00    +0.227 C 
ATOM      2  O   UNL     1      -2.383   0.172  -0.088  0.00  0.00    -0.275 OA
ATOM      3  N   UNL     1      -1.238   2.069   0.019  0.00  0.00    -0.284 N 
ATOM      4  H   UNL     1      -1.251   3.037   0.090  0.00  0.00    +0.155 HD
ENDROOT
BRANCH   3   5
ATOM      5  C   UNL     1      -0.017   1.384   0.020  0.00  0.00    +0.045 A 
ATOM      6  C   UNL     1       0.078   0.134   0.619  0.00  0.00    +0.025 A 
ATOM      7  C   UNL     1       1.282  -0.542   0.613  0.00  0.00    +0.022 A 
ATOM      8  C   UNL     1       2.393   0.024   0.012  0.00  0.00    +0.042 A 
ATOM      9  C   UNL     1       2.300   1.269  -0.584  0.00  0.00    +0.034 A 
ATOM     10  C   UNL     1       1.099   1.950  -0.582  0.00  0.00    +0.077 A 
ATOM     11 CL   UNL     1       3.905  -0.830   0.007  0.00  0.00    -0.084 Cl
BRANCH  10  12
ATOM     12  C   UNL     1       0.999   3.305  -1.232  0.00  0.00    +0.419 C 
ATOM     13  F   UNL     1       2.243   3.660  -1.765  0.00  0.00    -0.166 F 
ATOM     14  F   UNL     1       0.048   3.261  -2.257  0.00  0.00    -0.166 F 
ATOM     15  F   UNL     1       0.613   4.253  -0.278  0.00  0.00    -0.166 F 
ENDBRANCH  10  12
ENDBRANCH   3   5
BRANCH   1  16
ATOM     16  C   UNL     1      -3.702   2.127  -0.184  0.00  0.00    +0.173 C 
BRANCH  16  17
ATOM     17  S   UNL     1      -5.065   0.936  -0.304  0.00  0.00    -0.076 S 
BRANCH  17  29
ATOM     18  C   UNL     1      -8.543  -2.181  -0.612  0.00  0.00    +0.002 A 
ATOM     19  C   UNL     1      -9.923  -2.150  -0.726  0.00  0.00    +0.001 A 
ATOM     20  C   UNL     1     -10.569  -0.927  -0.771  0.00  0.00    +0.017 A 
ATOM     21  C   UNL     1      -9.831   0.232  -0.703  0.00  0.00    +0.040 A 
ATOM     22  C   UNL     1      -8.437   0.233  -0.587  0.00  0.00    +0.065 A 
ATOM     23  C   UNL     1      -7.808  -1.021  -0.544  0.00  0.00    +0.027 A 
ATOM     24  N   UNL     1      -7.808   1.486  -0.527  0.00  0.00    -0.264 N 
ATOM     25  C   UNL     1      -8.595   2.606  -0.585  0.00  0.00    +0.202 A 
ATOM     26  S   UNL     1     -10.244   1.959  -0.725  0.00  0.00    -0.048 S 
ATOM     27  N   UNL     1      -7.855   3.671  -0.517  0.00  0.00    -0.121 NA
ATOM     28  N   UNL     1      -6.521   3.254  -0.404  0.00  0.00    -0.121 NA
ATOM     29  C   UNL     1      -6.505   1.946  -0.417  0.00  0.00    +0.197 A 
ENDBRANCH  17  29
ENDBRANCH  16  17
ENDBRANCH   1  16
TORSDOF 5
