REMARK  Name = ZINC04180856
REMARK  4 active torsions:
REMARK  status: ('A' for Active; 'I' for Inactive)
REMARK    1  A    between atoms: C_1  and  C_2
REMARK    2  A    between atoms: C_2  and  C_29
REMARK    3  A    between atoms: C_6  and  C_20
REMARK    4  A    between atoms: C_11  and  C_13
REMARK                            x       y       z     vdW  Elec       q    Type
REMARK                         _______ _______ _______ _____ _____    ______ ____
ROOT
ATOM      1  C   UNL     1      -0.019   1.526   0.010  0.00  0.00    +0.011 C 
ATOM      2  C   UNL     1       0.002  -0.004   0.002  0.00  0.00    -0.023 C 
ATOM      3  C   UNL     1       0.742  -0.503  -1.241  0.00  0.00    +0.058 C 
ATOM      4  C   UNL     1       2.168  -0.005  -1.216  0.00  0.00    +0.020 C 
ATOM      5  C   UNL     1       2.816   0.183  -0.046  0.00  0.00    +0.041 C 
ATOM      6  C   UNL     1       4.249   0.663   0.011  0.00  0.00    +0.175 C 
ATOM      7  N   UNL     1       4.651   1.190  -1.287  0.00  0.00    -0.220 N 
ATOM      8  C   UNL     1       3.944   0.982  -2.428  0.00  0.00    +0.219 A 
ATOM      9  N   UNL     1       4.569   1.574  -3.407  0.00  0.00    -0.193 NA
ATOM     10  C   UNL     1       5.675   2.175  -2.936  0.00  0.00    +0.183 A 
ATOM     11  N   UNL     1       5.758   1.961  -1.638  0.00  0.00    -0.147 NA
ATOM     12  N   UNL     1       2.767   0.251  -2.425  0.00  0.00    -0.287 N 
ATOM     13  C   UNL     1       2.173  -0.060   1.181  0.00  0.00    +0.164 C 
ATOM     14  O   UNL     1       2.788   0.103   2.216  0.00  0.00    -0.292 OA
ATOM     15  C   UNL     1       0.742  -0.517   1.242  0.00  0.00    +0.086 C 
ATOM     16  C   UNL     1      -1.431  -0.539  -0.001  0.00  0.00    +0.011 C 
ATOM     17  H   UNL     1       2.378  -0.071  -3.254  0.00  0.00    +0.155 HD
ENDROOT
BRANCH  10  18
ATOM     18  C   UNL     1       6.645   2.953  -3.745  0.00  0.00    +0.021 A 
ATOM     19  C   UNL     1       7.762   3.524  -3.139  0.00  0.00    +0.011 A 
ATOM     20  C   UNL     1       8.661   4.247  -3.897  0.00  0.00    +0.001 A 
ATOM     21  C   UNL     1       8.455   4.404  -5.255  0.00  0.00    +0.000 A 
ATOM     22  C   UNL     1       7.348   3.839  -5.862  0.00  0.00    +0.001 A 
ATOM     23  C   UNL     1       6.446   3.109  -5.115  0.00  0.00    +0.011 A 
ENDBRANCH  10  18
BRANCH   6  24
ATOM     24  C   UNL     1       5.148  -0.488   0.382  0.00  0.00    -0.018 A 
ATOM     25  C   UNL     1       5.207  -1.607  -0.428  0.00  0.00    +0.006 A 
ATOM     26  C   UNL     1       6.032  -2.663  -0.088  0.00  0.00    +0.000 A 
ATOM     27  C   UNL     1       6.798  -2.600   1.061  0.00  0.00    +0.000 A 
ATOM     28  C   UNL     1       6.740  -1.480   1.869  0.00  0.00    +0.000 A 
ATOM     29  C   UNL     1       5.919  -0.422   1.528  0.00  0.00    +0.006 A 
ENDBRANCH   6  24
TORSDOF 2
