REMARK  Name = ZINC45673921
REMARK  8 active torsions:
REMARK  status: ('A' for Active; 'I' for Inactive)
REMARK    1  A    between atoms: C_1  and  C_2
REMARK    2  A    between atoms: C_2  and  C_3
REMARK    3  A    between atoms: C_2  and  C_4
REMARK    4  A    between atoms: C_4  and  C_6
REMARK    5  A    between atoms: C_4  and  N_16
REMARK    6  A    between atoms: C_17  and  C_19
REMARK    7  A    between atoms: C_20  and  C_21
REMARK    8  A    between atoms: C_26  and  N_27
REMARK                            x       y       z     vdW  Elec       q    Type
REMARK                         _______ _______ _______ _____ _____    ______ ____
ROOT
ATOM      1  N   UNL     1      -1.466   0.430  -1.383  0.00  0.00    -0.302 N 
ATOM      2  C   UNL     1      -2.086   1.626  -1.401  0.00  0.00    +0.237 C 
ATOM      3  O   UNL     1      -1.886   2.428  -0.507  0.00  0.00    -0.271 OA
ATOM      4  H   UNL     1      -1.624  -0.209  -2.095  0.00  0.00    +0.150 HD
ENDROOT
BRANCH   2   5
ATOM      5  C   UNL     1      -2.999   1.961  -2.495  0.00  0.00    +0.068 C 
ATOM      6  C   UNL     1      -3.619   3.158  -2.513  0.00  0.00    +0.015 C 
BRANCH   6   7
ATOM      7  C   UNL     1      -4.537   3.495  -3.613  0.00  0.00    +0.005 A 
ATOM      8  C   UNL     1      -4.526   2.744  -4.792  0.00  0.00    +0.010 A 
ATOM      9  C   UNL     1      -5.390   3.066  -5.818  0.00  0.00    +0.001 A 
ATOM     10  C   UNL     1      -6.265   4.129  -5.683  0.00  0.00    +0.002 A 
ATOM     11  C   UNL     1      -6.282   4.878  -4.519  0.00  0.00    +0.033 A 
ATOM     12  C   UNL     1      -5.429   4.564  -3.481  0.00  0.00    +0.133 A 
BRANCH  12  13
ATOM     13  N   UNL     1      -5.452   5.362  -2.235  0.00  0.00    +0.057 N 
ATOM     14  O   UNL     1      -5.294   4.819  -1.166  0.00  0.00    -0.126 OA
ATOM     15  O   UNL     1      -5.629   6.557  -2.285  0.00  0.00    -0.126 OA
ENDBRANCH  12  13
ENDBRANCH   6   7
ENDBRANCH   2   5
BRANCH   1  16
ATOM     16  C   UNL     1      -0.552   0.094  -0.288  0.00  0.00    +0.142 C 
BRANCH  16  17
ATOM     17  C   UNL     1      -0.476  -1.403  -0.138  0.00  0.00    +0.129 A 
ATOM     18  N   UNL     1      -0.910  -2.101   0.946  0.00  0.00    -0.340 N 
ATOM     19  H   UNL     1      -1.316  -1.728   1.745  0.00  0.00    +0.167 HD
ATOM     20  C   UNL     1      -0.666  -3.437   0.700  0.00  0.00    +0.066 A 
ATOM     21  C   UNL     1      -0.883  -4.608   1.414  0.00  0.00    +0.028 A 
ATOM     22  C   UNL     1      -0.514  -5.819   0.869  0.00  0.00    +0.002 A 
ATOM     23  C   UNL     1       0.073  -5.875  -0.387  0.00  0.00    +0.002 A 
ATOM     24  C   UNL     1       0.294  -4.734  -1.105  0.00  0.00    +0.030 A 
ATOM     25  C   UNL     1      -0.072  -3.495  -0.573  0.00  0.00    +0.089 A 
ATOM     26  N   UNL     1       0.009  -2.218  -1.029  0.00  0.00    -0.231 NA
ENDBRANCH  16  17
BRANCH  16  28
ATOM     27  C   UNL     1       0.764   2.167  -0.751  0.00  0.00    +0.009 C 
ATOM     28  C   UNL     1       0.841   0.646  -0.599  0.00  0.00    +0.011 C 
ATOM     29  C   UNL     1       1.795   0.296   0.545  0.00  0.00    +0.009 C 
ENDBRANCH  16  28
ENDBRANCH   1  16
TORSDOF 6
