REMARK  Name = ZINC15988669
REMARK  9 active torsions:
REMARK  status: ('A' for Active; 'I' for Inactive)
REMARK    1  A    between atoms: C_1  and  N_2
REMARK    2  A    between atoms: N_2  and  C_3
REMARK    3  A    between atoms: N_2  and  S_9
REMARK    4  A    between atoms: S_9  and  C_12
REMARK    5  A    between atoms: C_16  and  C_18
REMARK    6  A    between atoms: N_20  and  C_21
REMARK    7  A    between atoms: C_21  and  C_22
REMARK    8  A    between atoms: C_22  and  C_24
REMARK    9  A    between atoms: C_22  and  N_29
REMARK                            x       y       z     vdW  Elec       q    Type
REMARK                         _______ _______ _______ _____ _____    ______ ____
ROOT
ATOM      1  C   UNL     1      -0.383   1.136  -0.636  0.00  0.00    +0.244 C 
ATOM      2  O   UNL     1       0.591   1.848  -0.786  0.00  0.00    -0.270 OA
ATOM      3  N   UNL     1      -0.224  -0.163  -0.312  0.00  0.00    -0.312 N 
ATOM      4  H   UNL     1      -1.105  -0.807  -0.175  0.00  0.00    +0.149 HD
ENDROOT
BRANCH   1   9
ATOM      5  C   UNL     1      -3.177   3.551  -1.315  0.00  0.00    +0.106 A 
ATOM      6  C   UNL     1      -4.284   2.737  -1.149  0.00  0.00    +0.028 A 
ATOM      7  C   UNL     1      -4.125   1.403  -0.816  0.00  0.00    +0.003 A 
ATOM      8  C   UNL     1      -2.860   0.876  -0.653  0.00  0.00    +0.013 A 
ATOM      9  C   UNL     1      -1.740   1.693  -0.814  0.00  0.00    +0.039 A 
ATOM     10  C   UNL     1      -1.908   3.038  -1.150  0.00  0.00    +0.041 A 
BRANCH   5  11
ATOM     11  S   UNL     1      -3.391   5.248  -1.739  0.00  0.00    +0.061 S 
ATOM     12  O   UNL     1      -4.692   5.615  -1.302  0.00  0.00    -0.153 OA
ATOM     13  O   UNL     1      -2.221   5.926  -1.302  0.00  0.00    -0.153 OA
BRANCH  11  15
ATOM     14  C   UNL     1      -4.667   5.225  -4.124  0.00  0.00    +0.132 C 
ATOM     15  N   UNL     1      -3.403   5.342  -3.393  0.00  0.00    -0.177 NA
BRANCH  15  16
ATOM     16  C   UNL     1      -2.149   5.542  -4.124  0.00  0.00    +0.080 C 
ATOM     17  C   UNL     1      -2.231   6.840  -4.930  0.00  0.00    +0.020 C 
ATOM     18  C   UNL     1      -0.922   7.049  -5.694  0.00  0.00    +0.002 C 
ATOM     19  C   UNL     1      -0.692   5.872  -6.644  0.00  0.00    +0.000 C 
ATOM     20  C   UNL     1      -0.610   4.574  -5.837  0.00  0.00    +0.002 C 
ATOM     21  C   UNL     1      -1.919   4.365  -5.073  0.00  0.00    +0.020 C 
ENDBRANCH  15  16
ENDBRANCH  11  15
ENDBRANCH   5  11
ENDBRANCH   1   9
BRANCH   3  22
ATOM     22  C   UNL     1       1.121  -0.716  -0.141  0.00  0.00    +0.097 C 
BRANCH  22  23
ATOM     23  C   UNL     1       1.025  -2.223   0.106  0.00  0.00    +0.016 C 
BRANCH  23  24
ATOM     24  N   UNL     1       0.122  -2.478   1.236  0.00  0.00    +0.387 N 
ATOM     25  C   UNL     1       0.601  -1.809   2.453  0.00  0.00    -0.078 C 
ATOM     26  C   UNL     1      -0.435  -1.974   3.568  0.00  0.00    -0.019 C 
ATOM     27  C   UNL     1      -0.656  -3.465   3.836  0.00  0.00    -0.004 C 
ATOM     28  C   UNL     1      -1.107  -4.147   2.542  0.00  0.00    -0.019 C 
ATOM     29  C   UNL     1      -0.052  -3.919   1.456  0.00  0.00    -0.078 C 
ATOM     30  H   UNL     1      -0.862  -2.055   0.987  0.00  0.00    -0.081 HD
ENDBRANCH  23  24
BRANCH  23  31
ATOM     31  C   UNL     1       0.489  -2.901  -1.128  0.00  0.00    +0.093 A 
ATOM     32  C   UNL     1       1.222  -3.542  -2.056  0.00  0.00    +0.043 A 
ATOM     33  C   UNL     1       0.319  -4.025  -3.030  0.00  0.00    +0.041 A 
ATOM     34  C   UNL     1      -0.911  -3.643  -2.645  0.00  0.00    +0.195 A 
ATOM     35  O   UNL     1      -0.803  -2.962  -1.492  0.00  0.00    -0.469 OA
ENDBRANCH  23  31
ENDBRANCH  22  23
ENDBRANCH   3  22
TORSDOF 8
