REMARK  Name = ZINC09682046
REMARK  10 active torsions:
REMARK  status: ('A' for Active; 'I' for Inactive)
REMARK    1  A    between atoms: C_1  and  C_2
REMARK    2  A    between atoms: C_5  and  N_8
REMARK    3  A    between atoms: N_19  and  C_20
REMARK    4  A    between atoms: C_21  and  C_23
REMARK    5  A    between atoms: N_25  and  C_26
REMARK    6  A    between atoms: C_26  and  C_27
REMARK    7  A    between atoms: C_27  and  C_28
REMARK    8  A    between atoms: C_28  and  N_71
REMARK    9  A    between atoms: C_30  and  C_37
REMARK   10  A    between atoms: C_33  and  C_36
REMARK                            x       y       z     vdW  Elec       q    Type
REMARK                         _______ _______ _______ _____ _____    ______ ____
ROOT
ATOM      1  N   UNL     1       5.246   3.917   0.003  0.00  0.00    -0.194 N 
ATOM      2  C   UNL     1       4.724   2.714   0.303  0.00  0.00    +0.296 A 
ATOM      3  O   UNL     1       5.457   1.780   0.583  0.00  0.00    -0.264 OA
ATOM      4  C   UNL     1       3.320   2.537   0.293  0.00  0.00    +0.119 A 
ATOM      5  C   UNL     1       2.538   3.646  -0.036  0.00  0.00    +0.045 A 
ATOM      6  C   UNL     1       1.142   3.209   0.024  0.00  0.00    +0.010 A 
ATOM      7  C   UNL     1      -0.082   3.844  -0.196  0.00  0.00    +0.011 A 
ATOM      8  C   UNL     1      -1.247   3.145  -0.056  0.00  0.00    +0.001 A 
ATOM      9  C   UNL     1      -1.226   1.803   0.298  0.00  0.00    +0.002 A 
ATOM     10  C   UNL     1      -0.031   1.158   0.525  0.00  0.00    +0.026 A 
ATOM     11  C   UNL     1       1.170   1.850   0.389  0.00  0.00    +0.050 A 
ATOM     12  N   UNL     1       2.487   1.472   0.544  0.00  0.00    -0.339 N 
ATOM     13  C   UNL     1       2.935   0.129   0.923  0.00  0.00    +0.149 C 
ATOM     14  C   UNL     1       3.221   4.903  -0.344  0.00  0.00    +0.156 A 
ATOM     15  N   UNL     1       4.536   4.939  -0.301  0.00  0.00    -0.158 NA
ENDROOT
BRANCH   1  20
ATOM     16  C   UNL     1      10.889   4.493   0.080  0.00  0.00    +0.044 C 
ATOM     17  C   UNL     1       9.390   4.340   0.059  0.00  0.00    -0.050 A 
ATOM     18  C   UNL     1       8.666   4.787  -1.031  0.00  0.00    +0.005 A 
ATOM     19  C   UNL     1       7.292   4.648  -1.053  0.00  0.00    +0.028 A 
ATOM     20  C   UNL     1       6.638   4.059   0.021  0.00  0.00    +0.069 A 
ATOM     21  C   UNL     1       7.368   3.615   1.117  0.00  0.00    +0.028 A 
ATOM     22  C   UNL     1       8.742   3.752   1.130  0.00  0.00    +0.005 A 
ENDBRANCH   1  20
BRANCH  14  23
ATOM     23  C   UNL     1       2.448   6.111  -0.699  0.00  0.00    +0.265 C 
ATOM     24  O   UNL     1       1.234   6.097  -0.630  0.00  0.00    -0.268 OA
ATOM     25  N   UNL     1       3.088   7.227  -1.099  0.00  0.00    -0.310 N 
ATOM     26  H   UNL     1       4.056   7.238  -1.154  0.00  0.00    +0.149 HD
BRANCH  25  27
ATOM     27  C   UNL     1       2.321   8.425  -1.452  0.00  0.00    +0.103 C 
BRANCH  27  28
ATOM     28  C   UNL     1       3.281   9.541  -1.869  0.00  0.00    +0.000 C 
BRANCH  28  29
ATOM     29  C   UNL     1       2.480  10.791  -2.237  0.00  0.00    -0.077 C 
BRANCH  29  37
ATOM     30  C   UNL     1       4.232  12.293  -1.505  0.00  0.00    -0.076 C 
ATOM     31  C   UNL     1       5.275  13.303  -1.990  0.00  0.00    -0.031 C 
ATOM     32  C   UNL     1       4.562  14.507  -2.612  0.00  0.00    +0.003 C 
ATOM     33  C   UNL     1       3.668  14.025  -3.757  0.00  0.00    -0.031 C 
ATOM     34  C   UNL     1       2.671  12.995  -3.221  0.00  0.00    -0.076 C 
ATOM     35  C   UNL     1       2.906  15.214  -4.346  0.00  0.00    +0.005 C 
ATOM     36  C   UNL     1       6.174  12.644  -3.038  0.00  0.00    +0.005 C 
ATOM     37  N   UNL     1       3.420  11.851  -2.658  0.00  0.00    +0.380 N 
ATOM     38  H   UNL     1       4.045  11.474  -3.381  0.00  0.00    -0.082 HD
ENDBRANCH  29  37
ENDBRANCH  28  29
ENDBRANCH  27  28
ENDBRANCH  25  27
ENDBRANCH  14  23
TORSDOF 6
