REMARK  Name = ZINC40309755
REMARK  11 active torsions:
REMARK  status: ('A' for Active; 'I' for Inactive)
REMARK    1  A    between atoms: C_1  and  O_2
REMARK    2  A    between atoms: O_2  and  C_3
REMARK    3  A    between atoms: C_6  and  O_35
REMARK    4  A    between atoms: C_7  and  C_9
REMARK    5  A    between atoms: N_22  and  C_23
REMARK    6  A    between atoms: C_25  and  C_31
REMARK    7  A    between atoms: C_28  and  O_29
REMARK    8  A    between atoms: O_29  and  C_30
REMARK    9  A    between atoms: C_31  and  O_33
REMARK   10  A    between atoms: O_33  and  C_34
REMARK   11  A    between atoms: O_35  and  C_36
REMARK                            x       y       z     vdW  Elec       q    Type
REMARK                         _______ _______ _______ _____ _____    ______ ____
ROOT
ATOM      1  C   UNL     1       1.356  -4.002   2.276  0.00  0.00    +0.160 C 
ATOM      2  C   UNL     1       2.810  -4.342   2.053  0.00  0.00    +0.062 A 
ATOM      3  C   UNL     1       3.237  -5.252   1.150  0.00  0.00    +0.040 A 
ATOM      4  N   UNL     1       4.596  -5.283   1.231  0.00  0.00    -0.349 N 
ATOM      5  H   UNL     1       5.193  -5.838   0.704  0.00  0.00    +0.166 HD
ATOM      6  C   UNL     1       4.958  -4.394   2.184  0.00  0.00    +0.171 A 
ATOM      7  N   UNL     1       3.880  -3.836   2.670  0.00  0.00    -0.348 N 
ATOM      8  C   UNL     1       2.338  -6.058   0.250  0.00  0.00    +0.074 C 
ATOM      9  C   UNL     1       0.960  -5.387   0.198  0.00  0.00    +0.116 C 
ATOM     10  N   UNL     1       0.554  -5.011   1.561  0.00  0.00    -0.272 N 
ATOM     11  C   UNL     1      -0.523  -5.575   2.143  0.00  0.00    +0.307 C 
ATOM     12  O   UNL     1      -1.143  -6.445   1.561  0.00  0.00    -0.252 OA
ATOM     13  N   UNL     1      -0.913  -5.176   3.370  0.00  0.00    -0.266 N 
ATOM     14  H   UNL     1      -0.459  -4.439   3.807  0.00  0.00    +0.156 HD
ATOM     15  H   UNL     1       3.861  -3.162   3.368  0.00  0.00    +0.167 HD
ENDROOT
BRANCH   1  20
ATOM     16  C   UNL     1       1.699  -0.744   0.392  0.00  0.00    +0.121 A 
ATOM     17  C   UNL     1       0.513  -0.106   0.723  0.00  0.00    +0.049 A 
ATOM     18  C   UNL     1      -0.397  -0.728   1.555  0.00  0.00    +0.049 A 
ATOM     19  C   UNL     1      -0.125  -1.991   2.059  0.00  0.00    +0.126 A 
ATOM     20  C   UNL     1       1.060  -2.630   1.728  0.00  0.00    +0.024 A 
ATOM     21  C   UNL     1       1.969  -2.010   0.892  0.00  0.00    +0.055 A 
BRANCH  16  23
ATOM     22  C   UNL     1       2.253   1.171  -0.904  0.00  0.00    +0.277 C 
ATOM     23  O   UNL     1       2.596  -0.132  -0.427  0.00  0.00    -0.495 OA
ENDBRANCH  16  23
BRANCH  19  24
ATOM     24  O   UNL     1      -1.021  -2.603   2.878  0.00  0.00    -0.495 OA
ATOM     25  C   UNL     1      -2.221  -1.888   3.178  0.00  0.00    +0.277 C 
ENDBRANCH  19  24
ENDBRANCH   1  20
BRANCH  13  26
ATOM     26  C   UNL     1      -1.974  -5.827   4.015  0.00  0.00    +0.078 A 
ATOM     27  C   UNL     1      -2.949  -6.465   3.270  0.00  0.00    +0.042 A 
ATOM     28  C   UNL     1      -4.005  -7.112   3.917  0.00  0.00    +0.061 A 
ATOM     29  C   UNL     1      -4.071  -7.113   5.313  0.00  0.00    +0.018 A 
ATOM     30  C   UNL     1      -3.097  -6.475   6.049  0.00  0.00    +0.048 A 
ATOM     31  C   UNL     1      -2.044  -5.837   5.408  0.00  0.00    +0.141 A 
BRANCH  31  32
ATOM     32  O   UNL     1      -1.083  -5.215   6.139  0.00  0.00    -0.493 OA
ATOM     33  C   UNL     1      -1.216  -5.264   7.561  0.00  0.00    +0.277 C 
ENDBRANCH  31  32
BRANCH  28  34
ATOM     34  C   UNL     1      -5.048  -7.794   3.127  0.00  0.00    +0.339 C 
ATOM     35  O   UNL     1      -4.990  -7.792   1.914  0.00  0.00    -0.245 OA
BRANCH  34  36
ATOM     36  O   UNL     1      -6.066  -8.418   3.752  0.00  0.00    -0.464 OA
ATOM     37  C   UNL     1      -7.041  -9.057   2.926  0.00  0.00    +0.280 C 
ENDBRANCH  34  36
ENDBRANCH  28  34
ENDBRANCH  13  26
TORSDOF 7
