REMARK  Name = ZINC36601097
REMARK  9 active torsions:
REMARK  status: ('A' for Active; 'I' for Inactive)
REMARK    1  A    between atoms: C_1  and  C_2
REMARK    2  A    between atoms: C_5  and  C_7
REMARK    3  A    between atoms: C_7  and  N_8
REMARK    4  A    between atoms: N_8  and  C_9
REMARK    5  A    between atoms: C_9  and  C_11
REMARK    6  A    between atoms: C_9  and  C_21
REMARK    7  A    between atoms: C_14  and  C_17
REMARK    8  A    between atoms: N_23  and  C_24
REMARK    9  A    between atoms: C_30  and  C_32
REMARK                            x       y       z     vdW  Elec       q    Type
REMARK                         _______ _______ _______ _____ _____    ______ ____
ROOT
ATOM      1  C   UNL     1       3.160  -3.073  -2.196  0.00  0.00    +0.193 C 
ENDROOT
BRANCH   1   2
ATOM      2  C   UNL     1       2.757  -2.348  -3.454  0.00  0.00    -0.018 A 
ATOM      3  C   UNL     1       2.533  -3.059  -4.619  0.00  0.00    +0.006 A 
ATOM      4  C   UNL     1       2.163  -2.394  -5.774  0.00  0.00    +0.013 A 
ATOM      5  C   UNL     1       2.017  -1.020  -5.763  0.00  0.00    +0.055 A 
ATOM      6  C   UNL     1       2.240  -0.310  -4.598  0.00  0.00    +0.013 A 
ATOM      7  C   UNL     1       2.605  -0.974  -3.443  0.00  0.00    +0.006 A 
BRANCH   5   8
ATOM      8  C   UNL     1       1.614  -0.295  -7.022  0.00  0.00    +0.417 C 
ATOM      9  F   UNL     1       0.220  -0.209  -7.085  0.00  0.00    -0.166 F 
ATOM     10  F   UNL     1       2.161   0.992  -7.014  0.00  0.00    -0.166 F 
ATOM     11  F   UNL     1       2.089  -0.997  -8.136  0.00  0.00    -0.166 F 
ENDBRANCH   5   8
ENDBRANCH   1   2
BRANCH   1  12
ATOM     12  C   UNL     1       3.917  -4.324  -2.557  0.00  0.00    +0.238 C 
ATOM     13  O   UNL     1       3.498  -5.408  -2.212  0.00  0.00    -0.273 OA
ATOM     14  N   UNL     1       5.061  -4.239  -3.265  0.00  0.00    -0.311 N 
ATOM     15  H   UNL     1       5.397  -3.372  -3.541  0.00  0.00    +0.149 HD
BRANCH  14  16
ATOM     16  C   UNL     1       5.798  -5.456  -3.616  0.00  0.00    +0.073 C 
ATOM     17  C   UNL     1       6.716  -5.849  -2.457  0.00  0.00    +0.022 C 
ATOM     18  C   UNL     1       7.485  -7.120  -2.824  0.00  0.00    +0.002 C 
ATOM     19  C   UNL     1       8.326  -6.864  -4.076  0.00  0.00    +0.000 C 
ATOM     20  C   UNL     1       7.408  -6.470  -5.236  0.00  0.00    +0.002 C 
ATOM     21  C   UNL     1       6.639  -5.199  -4.869  0.00  0.00    +0.022 C 
ENDBRANCH  14  16
ENDBRANCH   1  12
BRANCH   1  22
ATOM     22  N   UNL     1       1.962  -3.430  -1.433  0.00  0.00    -0.277 N 
ATOM     23  C   UNL     1       1.015  -4.210  -1.992  0.00  0.00    +0.237 C 
ATOM     24  O   UNL     1       1.187  -4.673  -3.099  0.00  0.00    -0.274 OA
BRANCH  23  25
ATOM     25  C   UNL     1      -0.258  -4.505  -1.240  0.00  0.00    +0.159 C 
ATOM     26  C   UNL     1      -0.026  -5.646  -0.225  0.00  0.00    +0.041 C 
ATOM     27  C   UNL     1      -0.454  -6.887  -1.041  0.00  0.00    +0.098 C 
ATOM     28  C   UNL     1      -1.414  -6.339  -2.074  0.00  0.00    +0.214 C 
ATOM     29  O   UNL     1      -2.187  -7.007  -2.728  0.00  0.00    -0.276 OA
ATOM     30  N   UNL     1      -1.287  -5.002  -2.161  0.00  0.00    -0.304 N 
ATOM     31  H   UNL     1      -1.808  -4.438  -2.754  0.00  0.00    +0.149 HD
ENDBRANCH  23  25
BRANCH  22  32
ATOM     32  C   UNL     1       1.792  -2.940  -0.063  0.00  0.00    +0.183 C 
BRANCH  32  37
ATOM     33  C   UNL     1       0.957   2.031  -0.240  0.00  0.00    +0.086 C 
ATOM     34  C   UNL     1       0.711   0.546  -0.165  0.00  0.00    +0.102 A 
ATOM     35  C   UNL     1      -0.493  -0.049  -0.084  0.00  0.00    +0.045 A 
ATOM     36  C   UNL     1      -0.259  -1.442  -0.034  0.00  0.00    +0.046 A 
ATOM     37  C   UNL     1       1.074  -1.616  -0.088  0.00  0.00    +0.122 A 
ATOM     38  O   UNL     1       1.656  -0.408  -0.173  0.00  0.00    -0.463 OA
ENDBRANCH  32  37
ENDBRANCH  22  32
ENDBRANCH   1  22
TORSDOF 8
