REMARK  Name = ZINC42903101
REMARK  6 active torsions:
REMARK  status: ('A' for Active; 'I' for Inactive)
REMARK    1  A    between atoms: C_1  and  C_2
REMARK    2  A    between atoms: N_5  and  C_11
REMARK    3  A    between atoms: C_7  and  C_10
REMARK    4  A    between atoms: C_14  and  N_18
REMARK    5  A    between atoms: N_21  and  C_22
REMARK    6  A    between atoms: C_25  and  C_28
REMARK                            x       y       z     vdW  Elec       q    Type
REMARK                         _______ _______ _______ _____ _____    ______ ____
ROOT
ATOM      1  N   UNL     1      -4.164  -5.284  -3.326  0.00  0.00    -0.269 N 
ATOM      2  C   UNL     1      -3.508  -6.144  -4.131  0.00  0.00    +0.308 C 
ATOM      3  O   UNL     1      -2.293  -6.140  -4.162  0.00  0.00    -0.252 OA
ATOM      4  N   UNL     1      -4.200  -7.006  -4.901  0.00  0.00    -0.269 N 
ATOM      5  H   UNL     1      -5.129  -5.337  -3.244  0.00  0.00    +0.156 HD
ATOM      6  H   UNL     1      -5.168  -6.959  -4.934  0.00  0.00    +0.156 HD
ENDROOT
BRANCH   1  10
ATOM      7  C   UNL     1      -2.042  -2.399  -1.187  0.00  0.00    +0.066 A 
ATOM      8  C   UNL     1      -1.598  -2.801  -2.439  0.00  0.00    +0.028 A 
ATOM      9  C   UNL     1      -2.301  -3.757  -3.147  0.00  0.00    +0.025 A 
ATOM     10  C   UNL     1      -3.452  -4.315  -2.606  0.00  0.00    +0.038 A 
ATOM     11  C   UNL     1      -3.897  -3.913  -1.354  0.00  0.00    +0.063 A 
ATOM     12  C   UNL     1      -3.191  -2.962  -0.642  0.00  0.00    +0.146 A 
ATOM     13  F   UNL     1      -3.620  -2.574   0.579  0.00  0.00    -0.203 F 
BRANCH   7  17
ATOM     14  C   UNL     1      -0.594   2.261  -0.857  0.00  0.00    +0.039 C 
ATOM     15  C   UNL     1      -0.334   0.754  -0.894  0.00  0.00    +0.133 C 
ATOM     16  C   UNL     1      -1.639   0.001  -0.613  0.00  0.00    +0.136 C 
ATOM     17  N   UNL     1      -1.328  -1.430  -0.469  0.00  0.00    -0.323 N 
ATOM     18  C   UNL     1      -0.246  -1.813   0.451  0.00  0.00    +0.136 C 
ATOM     19  C   UNL     1       0.992  -0.972   0.119  0.00  0.00    +0.133 C 
ATOM     20  O   UNL     1       0.632   0.412   0.103  0.00  0.00    -0.371 OA
ATOM     21  C   UNL     1       2.070  -1.208   1.178  0.00  0.00    +0.039 C 
ENDBRANCH   7  17
ENDBRANCH   1  10
BRANCH   4  22
ATOM     22  C   UNL     1      -3.523  -7.967  -5.652  0.00  0.00    +0.035 A 
ATOM     23  C   UNL     1      -2.348  -8.528  -5.163  0.00  0.00    +0.024 A 
ATOM     24  C   UNL     1      -1.677  -9.477  -5.902  0.00  0.00    +0.015 A 
ATOM     25  C   UNL     1      -2.179  -9.876  -7.144  0.00  0.00    +0.037 A 
ATOM     26  C   UNL     1      -3.360  -9.310  -7.632  0.00  0.00    +0.015 A 
ATOM     27  C   UNL     1      -4.028  -8.366  -6.886  0.00  0.00    +0.024 A 
BRANCH  25  28
ATOM     28  C   UNL     1      -1.462 -10.892  -7.939  0.00  0.00    +0.242 C 
ATOM     29  O   UNL     1      -0.435 -11.384  -7.513  0.00  0.00    -0.270 OA
ATOM     30  N   UNL     1      -1.947 -11.276  -9.137  0.00  0.00    -0.325 N 
ATOM     31  H   UNL     1      -2.767 -10.884  -9.476  0.00  0.00    +0.145 HD
ATOM     32  H   UNL     1      -1.476 -11.944  -9.659  0.00  0.00    +0.145 HD
ENDBRANCH  25  28
ENDBRANCH   4  22
TORSDOF 4
