REMARK  Name = ZINC12833182
REMARK  8 active torsions:
REMARK  status: ('A' for Active; 'I' for Inactive)
REMARK    1  A    between atoms: C_1  and  C_2
REMARK    2  A    between atoms: C_6  and  C_15
REMARK    3  A    between atoms: C_13  and  C_14
REMARK    4  A    between atoms: C_15  and  N_66
REMARK    5  A    between atoms: C_16  and  C_17
REMARK    6  A    between atoms: C_16  and  N_66
REMARK    7  A    between atoms: N_21  and  C_22
REMARK    8  A    between atoms: C_28  and  N_66
REMARK                            x       y       z     vdW  Elec       q    Type
REMARK                         _______ _______ _______ _____ _____    ______ ____
ROOT
ATOM      1  N   UNL     1      -5.485   3.936  -1.352  0.00  0.00    +0.389 N 
ATOM      2  H   UNL     1      -5.553   3.038  -1.845  0.00  0.00    -0.080 HD
ENDROOT
BRANCH   1   3
ATOM      3  C   UNL     1      -4.619   4.847  -2.130  0.00  0.00    -0.068 C 
ATOM      4  C   UNL     1      -4.637   6.271  -1.537  0.00  0.00    -0.015 C 
ATOM      5  C   UNL     1      -4.590   7.199  -2.776  0.00  0.00    -0.002 C 
ATOM      6  C   UNL     1      -5.484   6.452  -3.797  0.00  0.00    -0.002 C 
ATOM      7  C   UNL     1      -5.157   4.962  -3.567  0.00  0.00    -0.015 C 
ENDBRANCH   1   3
BRANCH   1   8
ATOM      8  C   UNL     1      -4.903   3.706  -0.013  0.00  0.00    -0.037 C 
BRANCH   8  14
ATOM      9  C   UNL     1       2.518   3.266  -0.610  0.00  0.00    +0.044 C 
ATOM     10  C   UNL     1       1.163   2.609  -0.552  0.00  0.00    -0.047 A 
ATOM     11  C   UNL     1       0.043   3.378  -0.407  0.00  0.00    +0.013 A 
ATOM     12  C   UNL     1      -1.214   2.769  -0.353  0.00  0.00    -0.001 A 
ATOM     13  C   UNL     1      -2.435   3.563  -0.198  0.00  0.00    +0.017 A 
ATOM     14  C   UNL     1      -3.627   2.918  -0.167  0.00  0.00    +0.001 A 
ATOM     15  C   UNL     1      -3.678   1.511  -0.268  0.00  0.00    +0.251 A 
ATOM     16  O   UNL     1      -4.759   0.951  -0.229  0.00  0.00    -0.268 OA
ATOM     17  N   UNL     1      -2.562   0.773  -0.406  0.00  0.00    -0.322 N 
ATOM     18  H   UNL     1      -2.633  -0.192  -0.473  0.00  0.00    +0.169 HD
ATOM     19  C   UNL     1      -1.319   1.369  -0.454  0.00  0.00    +0.049 A 
ATOM     20  C   UNL     1      -0.165   0.606  -0.597  0.00  0.00    +0.030 A 
ATOM     21  C   UNL     1       1.064   1.228  -0.647  0.00  0.00    -0.046 A 
ATOM     22  C   UNL     1       2.313   0.400  -0.808  0.00  0.00    +0.044 C 
ENDBRANCH   8  14
ENDBRANCH   1   8
BRANCH   1  23
ATOM     23  C   UNL     1      -6.839   4.516  -1.221  0.00  0.00    +0.001 C 
BRANCH  23  24
ATOM     24  C   UNL     1      -7.797   3.420  -0.831  0.00  0.00    +0.135 A 
ATOM     25  N   UNL     1      -8.191   3.121   0.383  0.00  0.00    -0.115 NA
ATOM     26  N   UNL     1      -9.009   2.128   0.302  0.00  0.00    -0.023 NA
ATOM     27  N   UNL     1      -9.147   1.787  -0.932  0.00  0.00    -0.044 NA
ATOM     28  N   UNL     1      -8.420   2.563  -1.662  0.00  0.00    -0.228 N 
BRANCH  28  29
ATOM     29  C   UNL     1      -8.293   2.519  -3.120  0.00  0.00    +0.111 C 
ATOM     30  C   UNL     1      -9.680   2.620  -3.757  0.00  0.00    +0.027 C 
ATOM     31  C   UNL     1      -9.548   2.574  -5.280  0.00  0.00    +0.002 C 
ATOM     32  C   UNL     1      -8.892   1.255  -5.695  0.00  0.00    +0.000 C 
ATOM     33  C   UNL     1      -7.504   1.153  -5.059  0.00  0.00    +0.002 C 
ATOM     34  C   UNL     1      -7.637   1.200  -3.535  0.00  0.00    +0.027 C 
ENDBRANCH  28  29
ENDBRANCH  23  24
ENDBRANCH   1  23
TORSDOF 6
