REMARK  Name = ZINC42027903
REMARK  4 active torsions:
REMARK  status: ('A' for Active; 'I' for Inactive)
REMARK    1  A    between atoms: C_1  and  C_2
REMARK    2  A    between atoms: C_6  and  N_21
REMARK    3  A    between atoms: C_7  and  C_8
REMARK    4  A    between atoms: N_12  and  C_13
REMARK                            x       y       z     vdW  Elec       q    Type
REMARK                         _______ _______ _______ _____ _____    ______ ____
ROOT
ATOM      1  C   UNL     1       0.052  -0.031   2.453  0.00  0.00    +0.189 A 
ATOM      2  N   UNL     1      -0.206   1.253   2.600  0.00  0.00    -0.108 NA
ATOM      3  N   UNL     1      -0.392   1.535   3.839  0.00  0.00    -0.022 NA
ATOM      4  N   UNL     1      -0.271   0.479   4.568  0.00  0.00    -0.039 NA
ATOM      5  N   UNL     1       0.017  -0.588   3.699  0.00  0.00    -0.192 N 
ENDROOT
BRANCH   5   6
ATOM      6  C   UNL     1       0.226  -1.932   4.038  0.00  0.00    +0.084 A 
ATOM      7  C   UNL     1      -0.424  -2.936   3.333  0.00  0.00    +0.032 A 
ATOM      8  C   UNL     1      -0.217  -4.259   3.669  0.00  0.00    +0.040 A 
ATOM      9  C   UNL     1       0.638  -4.586   4.709  0.00  0.00    +0.125 A 
ATOM     10  C   UNL     1       1.287  -3.586   5.414  0.00  0.00    +0.055 A 
ATOM     11  C   UNL     1       1.088  -2.261   5.077  0.00  0.00    +0.046 A 
ATOM     12 BR   UNL     1       1.981  -0.896   6.034  0.00  0.00    -0.048 Br
ATOM     13  F   UNL     1       0.839  -5.881   5.036  0.00  0.00    -0.205 F 
ENDBRANCH   5   6
BRANCH   1  20
ATOM     14  C   UNL     1      -1.865   0.132   0.294  0.00  0.00    +0.044 C 
ATOM     15  C   UNL     1      -0.596  -0.664   0.133  0.00  0.00    -0.038 A 
ATOM     16  C   UNL     1      -0.337  -1.318  -1.053  0.00  0.00    +0.004 A 
ATOM     17  C   UNL     1       0.828  -2.051  -1.207  0.00  0.00    +0.002 A 
ATOM     18  C   UNL     1       1.742  -2.134  -0.175  0.00  0.00    +0.023 A 
ATOM     19  C   UNL     1       1.497  -1.482   1.025  0.00  0.00    +0.036 A 
ATOM     20  C   UNL     1       0.321  -0.735   1.182  0.00  0.00    +0.045 A 
BRANCH  19  21
ATOM     21  N   UNL     1       2.418  -1.565   2.067  0.00  0.00    -0.357 N 
ATOM     22  H   UNL     1       3.181  -2.159   1.994  0.00  0.00    +0.142 HD
ATOM     23  H   UNL     1       2.296  -1.028   2.866  0.00  0.00    +0.142 HD
ENDBRANCH  19  21
ENDBRANCH   1  20
TORSDOF 3
