REMARK  Name = ZINC09905690
REMARK  10 active torsions:
REMARK  status: ('A' for Active; 'I' for Inactive)
REMARK    1  A    between atoms: C_1  and  C_2
REMARK    2  A    between atoms: C_2  and  O_3
REMARK    3  A    between atoms: O_3  and  C_4
REMARK    4  A    between atoms: C_7  and  N_8
REMARK    5  A    between atoms: N_8  and  N_9
REMARK    6  A    between atoms: C_10  and  C_12
REMARK    7  A    between atoms: C_19  and  C_23
REMARK    8  A    between atoms: C_23  and  C_24
REMARK    9  A    between atoms: C_23  and  C_25
REMARK   10  A    between atoms: C_23  and  C_26
REMARK                            x       y       z     vdW  Elec       q    Type
REMARK                         _______ _______ _______ _____ _____    ______ ____
ROOT
ATOM      1  N   UNL     1       1.500  -7.080  -0.031  0.00  0.00    -0.234 N 
ATOM      2  C   UNL     1       1.338  -8.418  -0.036  0.00  0.00    +0.273 C 
ATOM      3  O   UNL     1       0.223  -8.894  -0.033  0.00  0.00    -0.270 OA
ATOM      4  H   UNL     1       2.392  -6.699  -0.034  0.00  0.00    +0.173 HD
ENDROOT
BRANCH   2   5
ATOM      5  C   UNL     1       2.543  -9.323  -0.046  0.00  0.00    +0.297 C 
ATOM      6  C   UNL     1       3.310  -9.150  -1.364  0.00  0.00    +0.283 C 
ATOM      7  O   UNL     1       4.438 -10.032  -1.346  0.00  0.00    -0.484 OA
ATOM      8  C   UNL     1       4.207 -11.311  -0.941  0.00  0.00    +0.162 A 
ATOM      9  C   UNL     1       5.138 -12.296  -1.235  0.00  0.00    +0.050 A 
ATOM     10  C   UNL     1       4.920 -13.598  -0.827  0.00  0.00    +0.008 A 
ATOM     11  C   UNL     1       3.774 -13.923  -0.126  0.00  0.00    -0.038 A 
ATOM     12  C   UNL     1       2.842 -12.946   0.169  0.00  0.00    +0.053 A 
ATOM     13  C   UNL     1       3.054 -11.637  -0.238  0.00  0.00    +0.163 A 
ATOM     14  O   UNL     1       2.123 -10.688   0.054  0.00  0.00    -0.472 OA
BRANCH  11  15
ATOM     15  C   UNL     1       3.541 -15.344   0.318  0.00  0.00    -0.013 C 
ATOM     16  C   UNL     1       4.713 -16.218  -0.133  0.00  0.00    +0.015 C 
ATOM     17  C   UNL     1       3.426 -15.390   1.843  0.00  0.00    +0.015 C 
ATOM     18  C   UNL     1       2.245 -15.867  -0.307  0.00  0.00    +0.015 C 
ENDBRANCH  11  15
ENDBRANCH   2   5
BRANCH   1  19
ATOM     19  N   UNL     1       0.380  -6.239  -0.022  0.00  0.00    -0.271 N 
ATOM     20  H   UNL     1      -0.512  -6.620  -0.020  0.00  0.00    +0.169 HD
BRANCH  19  24
ATOM     21  C   UNL     1      -1.498  -1.850   0.006  0.00  0.00    +0.169 C 
ATOM     22  C   UNL     1      -0.409  -2.663  -0.003  0.00  0.00    +0.058 C 
ATOM     23  C   UNL     1      -0.578  -4.067  -0.008  0.00  0.00    -0.005 C 
ATOM     24  C   UNL     1       0.541  -4.907  -0.017  0.00  0.00    +0.095 C 
ATOM     25  C   UNL     1      -1.877  -4.620  -0.004  0.00  0.00    +0.028 C 
ATOM     26  C   UNL     1      -2.963  -3.804   0.005  0.00  0.00    +0.069 C 
ATOM     27  C   UNL     1      -2.795  -2.407   0.016  0.00  0.00    +0.234 C 
ATOM     28  O   UNL     1      -3.776  -1.674   0.029  0.00  0.00    -0.283 OA
ATOM     29 BR   UNL     1      -4.702  -4.546   0.010  0.00  0.00    -0.046 Br
BRANCH  21  30
ATOM     30  O   UNL     1      -1.339  -0.499   0.012  0.00  0.00    -0.488 OA
BRANCH  30  32
ATOM     31  C   UNL     1      -0.019   1.526   0.010  0.00  0.00    +0.048 C 
ATOM     32  C   UNL     1       0.002  -0.004   0.002  0.00  0.00    +0.226 C 
ENDBRANCH  30  32
ENDBRANCH  21  30
ENDBRANCH  19  24
ENDBRANCH   1  19
TORSDOF 6
