REMARK  Name = ZINC01070695
REMARK  6 active torsions:
REMARK  status: ('A' for Active; 'I' for Inactive)
REMARK    1  A    between atoms: C_1  and  C_2
REMARK    2  A    between atoms: C_5  and  C_8
REMARK    3  A    between atoms: C_10  and  C_30
REMARK    4  A    between atoms: C_14  and  C_17
REMARK    5  A    between atoms: N_19  and  C_20
REMARK    6  A    between atoms: C_21  and  C_28
REMARK                            x       y       z     vdW  Elec       q    Type
REMARK                         _______ _______ _______ _____ _____    ______ ____
ROOT
ATOM      1  C   UNL     1       0.002  -0.004   0.002  0.00  0.00    +0.075 A 
ATOM      2  C   UNL     1       1.235  -0.690  -0.013  0.00  0.00    +0.057 A 
ATOM      3  C   UNL     1       2.387   0.021  -0.021  0.00  0.00    +0.112 A 
ATOM      4  N   UNL     1       2.331   1.385  -0.013  0.00  0.00    -0.212 N 
ATOM      5  C   UNL     1       1.119   2.016   0.002  0.00  0.00    +0.169 A 
ATOM      6  N   UNL     1      -0.016   1.320   0.009  0.00  0.00    -0.227 NA
ATOM      7  C   UNL     1       1.384   3.401   0.007  0.00  0.00    +0.101 A 
ATOM      8  C   UNL     1       2.782   3.550  -0.005  0.00  0.00    +0.150 A 
ATOM      9  N   UNL     1       3.331   2.364  -0.017  0.00  0.00    -0.172 NA
ENDROOT
BRANCH   1  14
ATOM     10  C   UNL     1      -4.941  -2.956   0.030  0.00  0.00    +0.044 C 
ATOM     11  C   UNL     1      -3.647  -2.183   0.023  0.00  0.00    -0.050 A 
ATOM     12  C   UNL     1      -3.671  -0.800   0.031  0.00  0.00    +0.004 A 
ATOM     13  C   UNL     1      -2.489  -0.087   0.024  0.00  0.00    +0.010 A 
ATOM     14  C   UNL     1      -1.270  -0.763   0.010  0.00  0.00    +0.000 A 
ATOM     15  C   UNL     1      -1.253  -2.158  -0.004  0.00  0.00    +0.010 A 
ATOM     16  C   UNL     1      -2.441  -2.860   0.009  0.00  0.00    +0.004 A 
ENDBRANCH   1  14
BRANCH   7  17
ATOM     17  C   UNL     1       0.392   4.479   0.022  0.00  0.00    +0.254 C 
ATOM     18  O   UNL     1      -0.796   4.212   0.032  0.00  0.00    -0.270 OA
ATOM     19  N   UNL     1       0.794   5.765   0.025  0.00  0.00    -0.275 N 
ATOM     20  H   UNL     1       1.740   5.977   0.018  0.00  0.00    +0.156 HD
BRANCH  19  21
ATOM     21  C   UNL     1      -0.145   6.785   0.039  0.00  0.00    +0.090 A 
ATOM     22  C   UNL     1       0.070   8.152   0.045  0.00  0.00    +0.084 A 
ATOM     23  C   UNL     1      -1.104   9.023   0.059  0.00  0.00    -0.018 A 
ATOM     24  C   UNL     1      -2.289   8.384   0.069  0.00  0.00    -0.004 A 
ATOM     25  S   UNL     1      -1.871   6.658   0.047  0.00  0.00    -0.077 S 
ATOM     26  C   UNL     1      -3.447   9.345   0.087  0.00  0.00    +0.043 C 
ATOM     27  C   UNL     1      -2.829  10.691   0.524  0.00  0.00    +0.010 C 
ATOM     28  C   UNL     1      -1.366  10.530   0.065  0.00  0.00    +0.037 C 
BRANCH  22  29
ATOM     29  C   UNL     1       1.395   8.694   0.036  0.00  0.00    +0.102 C 
ATOM     30  N   UNL     1       2.447   9.124   0.030  0.00  0.00    -0.191 NA
ENDBRANCH  22  29
ENDBRANCH  19  21
ENDBRANCH   7  17
BRANCH   3  31
ATOM     31  C   UNL     1       3.718  -0.687  -0.038  0.00  0.00    +0.390 C 
ATOM     32  F   UNL     1       4.428  -0.317  -1.185  0.00  0.00    -0.202 F 
ATOM     33  F   UNL     1       4.450  -0.330   1.100  0.00  0.00    -0.202 F 
ENDBRANCH   3  31
TORSDOF 5
