REMARK  Name = ZINC29787280
REMARK  8 active torsions:
REMARK  status: ('A' for Active; 'I' for Inactive)
REMARK    1  A    between atoms: C_1  and  C_2
REMARK    2  A    between atoms: N_11  and  C_15
REMARK    3  A    between atoms: C_15  and  C_16
REMARK    4  A    between atoms: N_18  and  C_19
REMARK    5  A    between atoms: C_21  and  C_27
REMARK    6  A    between atoms: C_21  and  C_28
REMARK    7  A    between atoms: C_23  and  C_25
REMARK    8  A    between atoms: C_23  and  C_26
REMARK                            x       y       z     vdW  Elec       q    Type
REMARK                         _______ _______ _______ _____ _____    ______ ____
ROOT
ATOM      1  C   UNL     1      -3.260  -1.886   2.395  0.00  0.00    +0.231 C 
ATOM      2  O   UNL     1      -2.349  -2.223   1.669  0.00  0.00    -0.274 OA
ATOM      3  N   UNL     1      -4.237  -2.763   2.700  0.00  0.00    -0.311 N 
ATOM      4  H   UNL     1      -5.064  -2.458   3.359  0.00  0.00    +0.149 HD
ENDROOT
BRANCH   3   5
ATOM      5  C   UNL     1      -4.198  -4.126   2.155  0.00  0.00    +0.070 C 
ATOM      6  C   UNL     1      -4.847  -4.133   0.771  0.00  0.00    +0.009 C 
ATOM      7  C   UNL     1      -4.852  -5.545   0.190  0.00  0.00    -0.072 C 
ATOM      8  N   UNL     1      -5.344  -6.541   1.118  0.00  0.00    +0.386 N 
ATOM      9  C   UNL     1      -4.966  -6.481   2.516  0.00  0.00    -0.072 C 
ATOM     10  C   UNL     1      -5.000  -5.056   3.067  0.00  0.00    +0.009 C 
ATOM     11  C   UNL     1      -3.581  -7.093   2.749  0.00  0.00    -0.010 C 
ATOM     12  C   UNL     1      -5.981  -7.317   3.326  0.00  0.00    -0.010 C 
ATOM     13  C   UNL     1      -3.445  -5.898  -0.309  0.00  0.00    -0.010 C 
ATOM     14  C   UNL     1      -5.783  -5.535  -1.044  0.00  0.00    -0.010 C 
ATOM     15  H   UNL     1      -6.443  -6.512   1.139  0.00  0.00    -0.084 HD
ATOM     16  H   UNL     1      -5.010  -7.539   0.796  0.00  0.00    -0.084 HD
ENDBRANCH   3   5
BRANCH   1  17
ATOM     17  C   UNL     1      -3.301  -0.488   2.955  0.00  0.00    +0.213 C 
BRANCH  17  27
ATOM     18  C   UNL     1      -1.536   3.561   2.539  0.00  0.00    +0.010 C 
ATOM     19  C   UNL     1      -0.790   3.101   1.286  0.00  0.00    +0.018 C 
ATOM     20  C   UNL     1      -1.527   3.600   0.040  0.00  0.00    +0.006 C 
ATOM     21  C   UNL     1      -0.790   3.122  -1.213  0.00  0.00    +0.000 C 
ATOM     22  C   UNL     1      -0.753   1.593  -1.233  0.00  0.00    +0.003 C 
ATOM     23  C   UNL     1      -0.013   1.086   0.008  0.00  0.00    +0.035 C 
ATOM     24  C   UNL     1      -0.726   1.577   1.263  0.00  0.00    +0.115 C 
ATOM     25  C   UNL     1      -2.117   0.991   1.342  0.00  0.00    +0.247 C 
ATOM     26  O   UNL     1      -3.023   1.142   0.552  0.00  0.00    -0.273 OA
ATOM     27  N   UNL     1      -2.136   0.263   2.478  0.00  0.00    -0.215 N 
ATOM     28  C   UNL     1      -0.960   0.312   3.115  0.00  0.00    +0.310 C 
ATOM     29  O   UNL     1      -0.734  -0.264   4.161  0.00  0.00    -0.252 OA
ATOM     30  N   UNL     1      -0.056   1.072   2.468  0.00  0.00    -0.285 N 
ATOM     31  H   UNL     1       0.989   1.346   2.672  0.00  0.00    +0.151 HD
ENDBRANCH  17  27
ENDBRANCH   1  17
TORSDOF 3
