REMARK  Name = ZINC36307641
REMARK  16 active torsions:
REMARK  status: ('A' for Active; 'I' for Inactive)
REMARK    1  A    between atoms: C_1  and  C_2
REMARK    2  A    between atoms: C_2  and  C_3
REMARK    3  A    between atoms: C_3  and  N_4
REMARK    4  A    between atoms: N_4  and  C_5
REMARK    5  A    between atoms: N_4  and  C_26
REMARK    6  A    between atoms: C_5  and  C_6
REMARK    7  A    between atoms: C_7  and  C_20
REMARK    8  A    between atoms: N_9  and  C_19
REMARK    9  A    between atoms: C_10  and  O_11
REMARK   10  A    between atoms: O_11  and  C_12
REMARK   11  A    between atoms: C_26  and  C_27
REMARK   12  A    between atoms: C_27  and  C_29
REMARK   13  A    between atoms: C_27  and  O_38
REMARK   14  A    between atoms: C_29  and  O_30
REMARK   15  A    between atoms: O_30  and  C_31
REMARK   16  A    between atoms: C_31  and  C_32
REMARK                            x       y       z     vdW  Elec       q    Type
REMARK                         _______ _______ _______ _____ _____    ______ ____
ROOT
ATOM      1  C   UNL     1       1.569  -4.586  -0.263  0.00  0.00    +0.025 A 
ATOM      2  C   UNL     1       2.662  -5.278   0.293  0.00  0.00    +0.098 A 
ATOM      3  N   UNL     1       2.501  -6.561   0.048  0.00  0.00    -0.168 NA
ATOM      4  N   UNL     1       1.308  -6.726  -0.667  0.00  0.00    -0.235 N 
ATOM      5  C   UNL     1       0.750  -5.500  -0.842  0.00  0.00    +0.221 A 
ATOM      6  C   UNL     1       0.756  -7.998  -1.139  0.00  0.00    +0.176 C 
ENDROOT
BRANCH   2   7
ATOM      7  C   UNL     1       3.798  -4.667   1.027  0.00  0.00    +0.002 A 
ATOM      8  C   UNL     1       4.385  -3.494   0.556  0.00  0.00    +0.010 A 
ATOM      9  C   UNL     1       5.440  -2.930   1.243  0.00  0.00    +0.001 A 
ATOM     10  C   UNL     1       5.916  -3.526   2.397  0.00  0.00    +0.000 A 
ATOM     11  C   UNL     1       5.337  -4.691   2.869  0.00  0.00    +0.001 A 
ATOM     12  C   UNL     1       4.277  -5.260   2.193  0.00  0.00    +0.010 A 
ENDBRANCH   2   7
BRANCH   1  13
ATOM     13  C   UNL     1       1.346  -3.096  -0.218  0.00  0.00    -0.035 C 
BRANCH  13  14
ATOM     14  N   UNL     1       0.440  -2.770   0.891  0.00  0.00    +0.384 N 
ATOM     15  H   UNL     1      -0.405  -3.315   0.807  0.00  0.00    -0.081 HD
BRANCH  14  16
ATOM     16  C   UNL     1       0.107  -1.340   0.847  0.00  0.00    -0.079 C 
BRANCH  16  18
ATOM     17  C   UNL     1       1.053   0.972   0.913  0.00  0.00    +0.002 C 
ATOM     18  C   UNL     1       1.372  -0.514   1.090  0.00  0.00    -0.022 C 
ENDBRANCH  16  18
ENDBRANCH  14  16
BRANCH  14  19
ATOM     19  C   UNL     1       1.098  -3.080   2.167  0.00  0.00    -0.044 C 
BRANCH  19  20
ATOM     20  C   UNL     1       0.103  -2.888   3.314  0.00  0.00    +0.124 C 
BRANCH  20  21
ATOM     21  O   UNL     1      -0.233  -1.504   3.426  0.00  0.00    -0.391 OA
ATOM     22  H   UNL     1       0.524  -0.928   3.605  0.00  0.00    +0.210 HD
ENDBRANCH  20  21
BRANCH  20  23
ATOM     23  C   UNL     1       0.734  -3.367   4.623  0.00  0.00    +0.189 C 
BRANCH  23  24
ATOM     24  O   UNL     1      -0.233  -3.296   5.672  0.00  0.00    -0.373 OA
BRANCH  24  25
ATOM     25  C   UNL     1       0.257  -3.724   6.944  0.00  0.00    +0.195 C 
BRANCH  25  26
ATOM     26  C   UNL     1      -0.841  -3.607   7.971  0.00  0.00    -0.022 A 
ATOM     27  C   UNL     1      -1.002  -2.432   8.680  0.00  0.00    +0.006 A 
ATOM     28  C   UNL     1      -2.009  -2.326   9.621  0.00  0.00    +0.000 A 
ATOM     29  C   UNL     1      -2.855  -3.394   9.852  0.00  0.00    +0.000 A 
ATOM     30  C   UNL     1      -2.694  -4.569   9.142  0.00  0.00    +0.000 A 
ATOM     31  C   UNL     1      -1.690  -4.674   8.198  0.00  0.00    +0.006 A 
ENDBRANCH  25  26
ENDBRANCH  24  25
ENDBRANCH  23  24
ENDBRANCH  20  23
ENDBRANCH  19  20
ENDBRANCH  14  19
ENDBRANCH  13  14
ENDBRANCH   1  13
BRANCH   5  32
ATOM     32  O   UNL     1      -0.417  -5.237  -1.483  0.00  0.00    -0.438 OA
BRANCH  32  33
ATOM     33  C   UNL     1      -0.380  -5.067  -2.831  0.00  0.00    +0.131 A 
ATOM     34  C   UNL     1       0.803  -5.273  -3.525  0.00  0.00    +0.049 A 
ATOM     35  C   UNL     1       0.839  -5.100  -4.895  0.00  0.00    +0.042 A 
ATOM     36  C   UNL     1      -0.305  -4.721  -5.576  0.00  0.00    +0.124 A 
ATOM     37  C   UNL     1      -1.487  -4.514  -4.885  0.00  0.00    +0.042 A 
ATOM     38  C   UNL     1      -1.528  -4.693  -3.516  0.00  0.00    +0.049 A 
ATOM     39  F   UNL     1      -0.268  -4.551  -6.916  0.00  0.00    -0.205 F 
ENDBRANCH  32  33
ENDBRANCH   5  32
TORSDOF 14
