REMARK  Name = ZINC46779889
REMARK  10 active torsions:
REMARK  status: ('A' for Active; 'I' for Inactive)
REMARK    1  A    between atoms: C_1  and  C_2
REMARK    2  A    between atoms: C_5  and  N_18
REMARK    3  A    between atoms: C_7  and  N_8
REMARK    4  A    between atoms: N_8  and  S_9
REMARK    5  A    between atoms: S_9  and  C_12
REMARK    6  A    between atoms: C_19  and  C_21
REMARK    7  A    between atoms: C_21  and  C_23
REMARK    8  A    between atoms: C_21  and  N_24
REMARK    9  A    between atoms: C_25  and  C_27
REMARK   10  A    between atoms: C_31  and  N_33
REMARK                            x       y       z     vdW  Elec       q    Type
REMARK                         _______ _______ _______ _____ _____    ______ ____
ROOT
ATOM      1  N   UNL     1       0.532  -3.712  -0.869  0.00  0.00    -0.284 N 
ATOM      2  C   UNL     1       1.058  -4.074  -2.056  0.00  0.00    +0.237 C 
ATOM      3  O   UNL     1       1.270  -3.234  -2.906  0.00  0.00    -0.273 OA
ATOM      4  H   UNL     1       0.299  -4.390  -0.215  0.00  0.00    +0.155 HD
ENDROOT
BRANCH   1   9
ATOM      5  C   UNL     1      -0.322   1.779   0.293  0.00  0.00    +0.046 C 
ATOM      6  C   UNL     1      -0.095   0.322  -0.013  0.00  0.00    -0.028 A 
ATOM      7  C   UNL     1      -0.276  -0.149  -1.300  0.00  0.00    +0.007 A 
ATOM      8  C   UNL     1      -0.069  -1.485  -1.585  0.00  0.00    +0.024 A 
ATOM      9  C   UNL     1       0.323  -2.359  -0.579  0.00  0.00    +0.035 A 
ATOM     10  C   UNL     1       0.506  -1.890   0.714  0.00  0.00    +0.048 A 
ATOM     11  C   UNL     1       0.302  -0.546   0.996  0.00  0.00    +0.053 A 
BRANCH  11  12
ATOM     12  N   UNL     1       0.490  -0.069   2.295  0.00  0.00    -0.216 N 
ATOM     13  H   UNL     1      -0.082   0.634   2.641  0.00  0.00    +0.174 HD
BRANCH  12  14
ATOM     14  S   UNL     1       1.691  -0.701   3.244  0.00  0.00    +0.072 S 
ATOM     15  O   UNL     1       1.715   0.070   4.437  0.00  0.00    -0.150 OA
ATOM     16  O   UNL     1       1.504  -2.110   3.251  0.00  0.00    -0.150 OA
BRANCH  14  17
ATOM     17  C   UNL     1       3.219  -0.400   2.420  0.00  0.00    +0.108 A 
ATOM     18  C   UNL     1       3.715  -1.327   1.522  0.00  0.00    +0.029 A 
ATOM     19  C   UNL     1       4.914  -1.091   0.876  0.00  0.00    +0.002 A 
ATOM     20  C   UNL     1       5.617   0.073   1.127  0.00  0.00    +0.000 A 
ATOM     21  C   UNL     1       5.121   1.000   2.024  0.00  0.00    +0.002 A 
ATOM     22  C   UNL     1       3.920   0.766   2.667  0.00  0.00    +0.029 A 
ENDBRANCH  14  17
ENDBRANCH  12  14
ENDBRANCH  11  12
ENDBRANCH   1   9
BRANCH   2  23
ATOM     23  C   UNL     1       1.381  -5.520  -2.328  0.00  0.00    +0.156 C 
ATOM     24  C   UNL     1       2.405  -6.015  -1.305  0.00  0.00    +0.038 C 
BRANCH  23  25
ATOM     25  N   UNL     1       1.936  -5.651  -3.678  0.00  0.00    -0.300 N 
ATOM     26  C   UNL     1       1.836  -6.822  -4.337  0.00  0.00    +0.245 C 
ATOM     27  O   UNL     1       1.285  -7.770  -3.812  0.00  0.00    -0.270 OA
ATOM     28  H   UNL     1       2.375  -4.894  -4.097  0.00  0.00    +0.150 HD
BRANCH  26  29
ATOM     29  C   UNL     1       2.396  -6.954  -5.699  0.00  0.00    +0.039 A 
ATOM     30  C   UNL     1       3.034  -5.869  -6.302  0.00  0.00    +0.013 A 
ATOM     31  C   UNL     1       3.555  -5.999  -7.573  0.00  0.00    +0.003 A 
ATOM     32  C   UNL     1       3.446  -7.202  -8.249  0.00  0.00    +0.033 A 
ATOM     33  C   UNL     1       2.814  -8.280  -7.657  0.00  0.00    +0.127 A 
ATOM     34  C   UNL     1       2.294  -8.166  -6.384  0.00  0.00    +0.045 A 
BRANCH  33  35
ATOM     35  N   UNL     1       2.701  -9.563  -8.388  0.00  0.00    +0.056 N 
ATOM     36  O   UNL     1       3.161  -9.666  -9.501  0.00  0.00    -0.126 OA
ATOM     37  O   UNL     1       2.149 -10.506  -7.872  0.00  0.00    -0.126 OA
ENDBRANCH  33  35
ENDBRANCH  26  29
ENDBRANCH  23  25
ENDBRANCH   2  23
TORSDOF 8
