REMARK  Name = ZINC04258713
REMARK  5 active torsions:
REMARK  status: ('A' for Active; 'I' for Inactive)
REMARK    1  A    between atoms: C_8  and  C_10
REMARK    2  A    between atoms: C_25  and  C_26
REMARK    3  A    between atoms: C_25  and  N_55
REMARK    4  A    between atoms: C_29  and  C_31
REMARK    5  A    between atoms: C_31  and  O_32
REMARK                            x       y       z     vdW  Elec       q    Type
REMARK                         _______ _______ _______ _____ _____    ______ ____
ROOT
ATOM      1  C   UNL     1      -0.984   3.784   2.375  0.00  0.00    +0.009 A 
ATOM      2  C   UNL     1      -1.223   5.175   2.368  0.00  0.00    +0.016 A 
ATOM      3  C   UNL     1      -1.368   5.807   1.171  0.00  0.00    +0.071 A 
ATOM      4  C   UNL     1      -1.246   5.071  -0.017  0.00  0.00    +0.252 A 
ATOM      5  O   UNL     1      -1.424   5.629  -1.088  0.00  0.00    -0.268 OA
ATOM      6  N   UNL     1      -0.932   3.753   0.004  0.00  0.00    -0.311 N 
ATOM      7  C   UNL     1      -0.875   3.095   1.183  0.00  0.00    +0.032 A 
ATOM      8  C   UNL     1      -0.749   1.589   1.255  0.00  0.00    +0.020 C 
ATOM      9  C   UNL     1      -0.013   1.086   0.008  0.00  0.00    +0.011 C 
ATOM     10  C   UNL     1      -0.771   1.602  -1.218  0.00  0.00    -0.007 C 
ATOM     11  C   UNL     1      -0.655   3.116  -1.284  0.00  0.00    +0.126 C 
ATOM     12  C   UNL     1      -2.223   1.147  -1.184  0.00  0.00    -0.073 C 
ATOM     13  C   UNL     1      -2.171   1.005   1.236  0.00  0.00    -0.069 C 
ATOM     14  N   UNL     1      -2.874   1.585   0.070  0.00  0.00    +0.385 N 
ATOM     15  H   UNL     1      -2.828   2.609   0.129  0.00  0.00    -0.081 HD
ENDROOT
BRANCH   1  23
ATOM     16  C   UNL     1       0.723   1.523   7.953  0.00  0.00    +0.001 A 
ATOM     17  C   UNL     1      -0.365   0.662   7.981  0.00  0.00    +0.001 A 
ATOM     18  C   UNL     1      -1.254   0.652   6.924  0.00  0.00    +0.015 A 
ATOM     19  C   UNL     1      -1.049   1.499   5.856  0.00  0.00    +0.020 A 
ATOM     20  C   UNL     1       0.050   2.385   5.802  0.00  0.00    -0.010 A 
ATOM     21  C   UNL     1       0.938   2.363   6.905  0.00  0.00    +0.009 A 
ATOM     22  C   UNL     1       0.116   3.200   4.601  0.00  0.00    +0.024 A 
ATOM     23  C   UNL     1      -0.849   3.064   3.660  0.00  0.00    +0.022 A 
ATOM     24  S   UNL     1      -1.913   1.804   4.337  0.00  0.00    -0.088 S 
ENDBRANCH   1  23
BRANCH  14  25
ATOM     25  C   UNL     1      -4.291   1.167   0.076  0.00  0.00    -0.003 C 
BRANCH  25  26
ATOM     26  C   UNL     1      -4.983   1.814   1.248  0.00  0.00    +0.089 A 
ATOM     27  C   UNL     1      -5.579   3.020   1.242  0.00  0.00    +0.043 A 
ATOM     28  C   UNL     1      -6.096   3.228   2.541  0.00  0.00    +0.047 A 
ATOM     29  C   UNL     1      -5.777   2.140   3.266  0.00  0.00    +0.130 A 
ATOM     30  O   UNL     1      -5.103   1.287   2.478  0.00  0.00    -0.464 OA
BRANCH  29  31
ATOM     31  C   UNL     1      -6.119   1.916   4.717  0.00  0.00    +0.230 C 
BRANCH  31  32
ATOM     32  O   UNL     1      -7.386   1.264   4.812  0.00  0.00    -0.387 OA
ATOM     33  H   UNL     1      -7.671   1.087   5.720  0.00  0.00    +0.210 HD
ENDBRANCH  31  32
ENDBRANCH  29  31
ENDBRANCH  25  26
ENDBRANCH  14  25
TORSDOF 5
