REMARK  Name = ZINC55153375
REMARK  9 active torsions:
REMARK  status: ('A' for Active; 'I' for Inactive)
REMARK    1  A    between atoms: C_1  and  N_2
REMARK    2  A    between atoms: N_2  and  C_3
REMARK    3  A    between atoms: N_2  and  C_30
REMARK    4  A    between atoms: C_3  and  C_4
REMARK    5  A    between atoms: C_8  and  O_10
REMARK    6  A    between atoms: O_10  and  C_11
REMARK    7  A    between atoms: N_14  and  S_17
REMARK    8  A    between atoms: S_17  and  C_20
REMARK    9  A    between atoms: C_30  and  C_31
REMARK                            x       y       z     vdW  Elec       q    Type
REMARK                         _______ _______ _______ _____ _____    ______ ____
ROOT
ATOM      1  C   UNL     1       6.189   2.307   1.516  0.00  0.00    +0.176 C 
ATOM      2  C   UNL     1       7.081   1.673   2.586  0.00  0.00    +0.061 C 
ATOM      3  C   UNL     1       8.551   1.931   2.238  0.00  0.00    +0.113 C 
ATOM      4  N   UNL     1       8.749   3.377   2.066  0.00  0.00    -0.176 NA
ATOM      5  C   UNL     1       7.882   4.102   1.127  0.00  0.00    +0.113 C 
ATOM      6  C   UNL     1       6.420   3.819   1.487  0.00  0.00    +0.061 C 
ENDROOT
BRANCH   4   7
ATOM      7  S   UNL     1       9.927   4.175   2.914  0.00  0.00    +0.061 S 
ATOM      8  O   UNL     1       9.527   5.537   2.980  0.00  0.00    -0.153 OA
ATOM      9  O   UNL     1      10.186   3.399   4.076  0.00  0.00    -0.153 OA
BRANCH   7  10
ATOM     10  C   UNL     1      11.393   4.127   1.939  0.00  0.00    +0.106 A 
ATOM     11  C   UNL     1      12.283   3.064   2.088  0.00  0.00    +0.029 A 
ATOM     12  C   UNL     1      13.425   2.997   1.351  0.00  0.00    +0.010 A 
ATOM     13  C   UNL     1      13.714   4.013   0.424  0.00  0.00    -0.018 A 
ATOM     14  C   UNL     1      14.883   3.978  -0.356  0.00  0.00    +0.008 A 
ATOM     15  C   UNL     1      15.131   4.979  -1.244  0.00  0.00    +0.001 A 
ATOM     16  C   UNL     1      14.241   6.042  -1.393  0.00  0.00    +0.001 A 
ATOM     17  C   UNL     1      13.099   6.109  -0.656  0.00  0.00    +0.008 A 
ATOM     18  C   UNL     1      12.810   5.093   0.272  0.00  0.00    -0.016 A 
ATOM     19  C   UNL     1      11.638   5.125   1.047  0.00  0.00    +0.037 A 
ENDBRANCH   7  10
ENDBRANCH   4   7
BRANCH   1  20
ATOM     20  O   UNL     1       4.818   2.040   1.820  0.00  0.00    -0.489 OA
BRANCH  20  25
ATOM     21  C   UNL     1       2.452  -0.637   1.134  0.00  0.00    -0.030 A 
ATOM     22  C   UNL     1       3.284  -1.569   0.539  0.00  0.00    +0.005 A 
ATOM     23  C   UNL     1       4.628  -1.293   0.373  0.00  0.00    +0.004 A 
ATOM     24  C   UNL     1       5.144  -0.085   0.802  0.00  0.00    +0.045 A 
ATOM     25  C   UNL     1       4.313   0.851   1.398  0.00  0.00    +0.121 A 
ATOM     26  C   UNL     1       2.962   0.574   1.558  0.00  0.00    +0.050 A 
BRANCH  21  27
ATOM     27  C   UNL     1       0.987  -0.941   1.313  0.00  0.00    +0.119 C 
BRANCH  27  29
ATOM     28  C   UNL     1       0.286   0.971   0.003  0.00  0.00    +0.105 C 
ATOM     29  N   UNL     1       0.245  -0.492   0.127  0.00  0.00    -0.294 NA
BRANCH  29  30
ATOM     30  C   UNL     1      -1.140  -0.980   0.157  0.00  0.00    +0.156 C 
BRANCH  30  31
ATOM     31  C   UNL     1      -1.718  -0.938  -1.234  0.00  0.00    +0.099 A 
ATOM     32  N   UNL     1      -2.314   0.105  -1.789  0.00  0.00    -0.349 N 
ATOM     33  H   UNL     1      -2.454   0.969  -1.371  0.00  0.00    +0.166 HD
ATOM     34  C   UNL     1      -2.695  -0.241  -3.037  0.00  0.00    +0.101 A 
ATOM     35  C   UNL     1      -2.317  -1.520  -3.232  0.00  0.00    +0.101 A 
ATOM     36  N   UNL     1      -1.706  -1.936  -2.103  0.00  0.00    -0.349 N 
ATOM     37  H   UNL     1      -1.327  -2.816  -1.953  0.00  0.00    +0.166 HD
ENDBRANCH  30  31
ENDBRANCH  29  30
ENDBRANCH  27  29
ENDBRANCH  21  27
ENDBRANCH  20  25
ENDBRANCH   1  20
TORSDOF 8
