REMARK  Name = ZINC08833179
REMARK  6 active torsions:
REMARK  status: ('A' for Active; 'I' for Inactive)
REMARK    1  A    between atoms: C_3  and  N_25
REMARK    2  A    between atoms: C_4  and  N_22
REMARK    3  A    between atoms: C_6  and  C_7
REMARK    4  A    between atoms: N_9  and  C_10
REMARK    5  A    between atoms: C_10  and  N_12
REMARK    6  A    between atoms: N_12  and  C_13
REMARK                            x       y       z     vdW  Elec       q    Type
REMARK                         _______ _______ _______ _____ _____    ______ ____
ROOT
ATOM      1  C   UNL     1       3.537   7.152  -0.908  0.00  0.00    +0.250 C 
ATOM      2  O   UNL     1       2.506   7.703  -1.243  0.00  0.00    -0.270 OA
ATOM      3  N   UNL     1       3.504   5.888  -0.441  0.00  0.00    -0.264 N 
ATOM      4  H   UNL     1       4.326   5.448  -0.174  0.00  0.00    +0.157 HD
ENDROOT
BRANCH   1  10
ATOM      5  C   UNL     1       6.008   7.235  -0.622  0.00  0.00    +0.015 A 
ATOM      6  C   UNL     1       7.206   7.904  -0.728  0.00  0.00    +0.026 A 
ATOM      7  C   UNL     1       7.232   9.210  -1.210  0.00  0.00    +0.060 A 
ATOM      8  C   UNL     1       6.050   9.838  -1.593  0.00  0.00    +0.148 A 
ATOM      9  C   UNL     1       4.859   9.177  -1.497  0.00  0.00    +0.047 A 
ATOM     10  C   UNL     1       4.823   7.865  -1.013  0.00  0.00    +0.039 A 
BRANCH   7  11
ATOM     11  N   UNL     1       8.442   9.888  -1.310  0.00  0.00    -0.328 N 
ATOM     12  C   UNL     1       9.170   9.872  -0.015  0.00  0.00    +0.105 C 
ATOM     13  C   UNL     1      10.633  10.169  -0.428  0.00  0.00    +0.020 C 
ATOM     14  C   UNL     1      10.778   9.406  -1.764  0.00  0.00    +0.020 C 
ATOM     15  C   UNL     1       9.339   9.232  -2.285  0.00  0.00    +0.105 C 
ENDBRANCH   7  11
BRANCH   8  16
ATOM     16  N   UNL     1       6.084  11.226  -2.106  0.00  0.00    +0.058 N 
ATOM     17  O   UNL     1       5.044  11.811  -2.350  0.00  0.00    -0.126 OA
ATOM     18  O   UNL     1       7.153  11.784  -2.282  0.00  0.00    -0.126 OA
ENDBRANCH   8  16
ENDBRANCH   1  10
BRANCH   3  19
ATOM     19  C   UNL     1       2.328   5.235  -0.346  0.00  0.00    +0.141 C 
ATOM     20  S   UNL     1       0.877   6.012  -0.818  0.00  0.00    -0.018 S 
BRANCH  19  21
ATOM     21  N   UNL     1       2.295   3.971   0.121  0.00  0.00    -0.294 N 
ATOM     22  H   UNL     1       3.111   3.546   0.427  0.00  0.00    +0.154 HD
BRANCH  21  23
ATOM     23  C   UNL     1       1.082   3.273   0.165  0.00  0.00    +0.070 A 
ATOM     24  C   UNL     1       0.259   3.237  -0.954  0.00  0.00    +0.065 A 
ATOM     25  C   UNL     1      -0.938   2.547  -0.908  0.00  0.00    +0.042 A 
ATOM     26  C   UNL     1      -1.319   1.897   0.253  0.00  0.00    +0.044 A 
ATOM     27  C   UNL     1      -0.498   1.925   1.366  0.00  0.00    +0.042 A 
ATOM     28  C   UNL     1       0.700   2.614   1.326  0.00  0.00    +0.065 A 
ATOM     29 CL   UNL     1       1.726   2.654   2.726  0.00  0.00    -0.082 Cl
ATOM     30 CL   UNL     1      -2.826   1.037   0.309  0.00  0.00    -0.083 Cl
ATOM     31 CL   UNL     1       0.732   4.060  -2.408  0.00  0.00    -0.082 Cl
ENDBRANCH  21  23
ENDBRANCH  19  21
ENDBRANCH   3  19
TORSDOF 6
