REMARK  Name = ZINC34778714
REMARK  9 active torsions:
REMARK  status: ('A' for Active; 'I' for Inactive)
REMARK    1  A    between atoms: C_1  and  C_2
REMARK    2  A    between atoms: C_2  and  C_3
REMARK    3  A    between atoms: C_3  and  N_4
REMARK    4  A    between atoms: C_8  and  C_27
REMARK    5  A    between atoms: C_9  and  C_24
REMARK    6  A    between atoms: N_12  and  C_15
REMARK    7  A    between atoms: C_15  and  C_16
REMARK    8  A    between atoms: C_19  and  C_23
REMARK    9  A    between atoms: C_21  and  C_22
REMARK                            x       y       z     vdW  Elec       q    Type
REMARK                         _______ _______ _______ _____ _____    ______ ____
ROOT
ATOM      1  N   UNL     1       0.820  -2.072  -1.206  0.00  0.00    -0.260 N 
ATOM      2  C   UNL     1       1.841  -2.750  -0.653  0.00  0.00    +0.265 A 
ATOM      3  O   UNL     1       2.759  -2.155  -0.121  0.00  0.00    -0.267 OA
ATOM      4  C   UNL     1       1.833  -4.234  -0.698  0.00  0.00    +0.074 A 
ATOM      5  C   UNL     1       2.783  -5.125  -0.190  0.00  0.00    -0.015 A 
ATOM      6  C   UNL     1       2.533  -6.469  -0.367  0.00  0.00    +0.106 A 
ATOM      7  S   UNL     1       0.979  -6.465  -1.238  0.00  0.00    -0.063 S 
ATOM      8  C   UNL     1       0.726  -4.816  -1.335  0.00  0.00    +0.098 A 
ATOM      9  N   UNL     1      -0.265  -4.044  -1.870  0.00  0.00    -0.283 N 
ATOM     10  C   UNL     1      -0.210  -2.701  -1.795  0.00  0.00    +0.333 A 
ATOM     11  O   UNL     1      -1.111  -2.042  -2.276  0.00  0.00    -0.246 OA
ATOM     12  C   UNL     1       4.022  -4.640   0.518  0.00  0.00    +0.046 C 
ENDROOT
BRANCH   6  13
ATOM     13  C   UNL     1       3.316  -7.576   0.042  0.00  0.00    +0.393 C 
ATOM     14  O   UNL     1       4.371  -7.394   0.638  0.00  0.00    -0.240 OA
ATOM     15  O   UNL     1       2.939  -8.716  -0.201  0.00  0.00    -0.240 OA
ENDBRANCH   6  13
BRANCH   1  16
ATOM     16  C   UNL     1       0.829  -0.608  -1.161  0.00  0.00    +0.130 C 
BRANCH  16  18
ATOM     17  C   UNL     1       0.142   1.396   0.164  0.00  0.00    +0.005 C 
ATOM     18  C   UNL     1       0.133  -0.133   0.116  0.00  0.00    +0.018 C 
ENDBRANCH  16  18
ENDBRANCH   1  16
BRANCH   9  19
ATOM     19  C   UNL     1      -1.406  -4.685  -2.528  0.00  0.00    +0.162 C 
BRANCH  19  20
ATOM     20  C   UNL     1      -2.453  -5.027  -1.499  0.00  0.00    -0.025 A 
ATOM     21  C   UNL     1      -2.295  -4.613  -0.189  0.00  0.00    +0.006 A 
ATOM     22  C   UNL     1      -3.255  -4.927   0.754  0.00  0.00    +0.004 A 
ATOM     23  C   UNL     1      -4.373  -5.654   0.389  0.00  0.00    -0.050 A 
ATOM     24  C   UNL     1      -4.530  -6.067  -0.921  0.00  0.00    +0.007 A 
ATOM     25  C   UNL     1      -3.572  -5.750  -1.866  0.00  0.00    -0.045 A 
ATOM     26  C   UNL     1      -3.747  -6.196  -3.295  0.00  0.00    +0.044 C 
ATOM     27  C   UNL     1      -5.419  -5.997   1.418  0.00  0.00    +0.044 C 
ENDBRANCH  19  20
ENDBRANCH   9  19
TORSDOF 5
