REMARK  Name = ZINC02246667
REMARK  5 active torsions:
REMARK  status: ('A' for Active; 'I' for Inactive)
REMARK    1  A    between atoms: C_1  and  C_2
REMARK    2  A    between atoms: C_7  and  N_8
REMARK    3  A    between atoms: C_12  and  S_16
REMARK    4  A    between atoms: S_16  and  C_17
REMARK    5  A    between atoms: C_20  and  C_22
REMARK                            x       y       z     vdW  Elec       q    Type
REMARK                         _______ _______ _______ _____ _____    ______ ____
ROOT
ATOM      1  N   UNL     1       0.025  -0.013   2.419  0.00  0.00    -0.209 N 
ATOM      2  C   UNL     1      -1.099   0.325   3.062  0.00  0.00    +0.228 C 
ATOM      3  O   UNL     1      -2.225   0.081   2.684  0.00  0.00    -0.275 OA
ATOM      4  C   UNL     1      -0.743   1.057   4.337  0.00  0.00    +0.120 C 
ATOM      5  C   UNL     1       0.799   1.085   4.319  0.00  0.00    +0.151 C 
ATOM      6  C   UNL     1       1.152   0.360   3.038  0.00  0.00    +0.240 C 
ATOM      7  O   UNL     1       2.276   0.152   2.636  0.00  0.00    -0.274 OA
ENDROOT
BRANCH   1  14
ATOM      8  C   UNL     1      -0.018   1.503   0.010  0.00  0.00    +0.045 C 
ATOM      9  C   UNL     1       0.002  -0.004   0.002  0.00  0.00    -0.029 A 
ATOM     10  C   UNL     1       0.006  -0.689  -1.198  0.00  0.00    +0.005 A 
ATOM     11  C   UNL     1       0.025  -2.071  -1.206  0.00  0.00    +0.000 A 
ATOM     12  C   UNL     1       0.041  -2.773  -0.014  0.00  0.00    +0.002 A 
ATOM     13  C   UNL     1       0.037  -2.094   1.188  0.00  0.00    +0.024 A 
ATOM     14  C   UNL     1       0.023  -0.705   1.200  0.00  0.00    +0.047 A 
ENDBRANCH   1  14
BRANCH   5  15
ATOM     15  S   UNL     1       1.407   2.794   4.284  0.00  0.00    -0.052 S 
BRANCH  15  16
ATOM     16  C   UNL     1       3.156   2.628   4.415  0.00  0.00    +0.278 A 
ATOM     17  N   UNL     1       3.825   1.501   4.508  0.00  0.00    -0.101 NA
ATOM     18  N   UNL     1       5.083   1.756   4.587  0.00  0.00    -0.106 NA
ATOM     19  C   UNL     1       5.269   3.053   4.548  0.00  0.00    +0.249 A 
ATOM     20  O   UNL     1       4.053   3.632   4.433  0.00  0.00    -0.411 OA
BRANCH  19  21
ATOM     21  C   UNL     1       6.568   3.753   4.613  0.00  0.00    +0.039 A 
ATOM     22  C   UNL     1       6.617   5.147   4.567  0.00  0.00    +0.013 A 
ATOM     23  C   UNL     1       7.833   5.794   4.628  0.00  0.00    +0.001 A 
ATOM     24  C   UNL     1       9.004   5.065   4.734  0.00  0.00    +0.000 A 
ATOM     25  C   UNL     1       8.963   3.682   4.780  0.00  0.00    +0.001 A 
ATOM     26  C   UNL     1       7.753   3.023   4.727  0.00  0.00    +0.013 A 
ENDBRANCH  19  21
ENDBRANCH  15  16
ENDBRANCH   5  15
TORSDOF 4
