REMARK  Name = ZINC09521377
REMARK  5 active torsions:
REMARK  status: ('A' for Active; 'I' for Inactive)
REMARK    1  A    between atoms: C_1  and  C_2
REMARK    2  A    between atoms: C_9  and  N_13
REMARK    3  A    between atoms: C_10  and  C_11
REMARK    4  A    between atoms: C_14  and  C_16
REMARK    5  A    between atoms: C_16  and  C_17
REMARK                            x       y       z     vdW  Elec       q    Type
REMARK                         _______ _______ _______ _____ _____    ______ ____
ROOT
ATOM      1  N   UNL     1       2.466   1.697  -0.012  0.00  0.00    -0.279 N 
ATOM      2  C   UNL     1       3.493   2.571  -0.018  0.00  0.00    +0.222 C 
ATOM      3  O   UNL     1       3.274   3.764  -0.009  0.00  0.00    -0.275 OA
ATOM      4  H   UNL     1       2.642   0.743  -0.019  0.00  0.00    +0.155 HD
ENDROOT
BRANCH   1  12
ATOM      5  C   UNL     1      -4.748   4.723  -0.026  0.00  0.00    +0.008 C 
ATOM      6  C   UNL     1      -3.562   3.805  -0.325  0.00  0.00    -0.009 C 
ATOM      7  C   UNL     1      -3.678   2.524   0.507  0.00  0.00    +0.008 C 
ATOM      8  C   UNL     1      -2.642   1.502   0.036  0.00  0.00    +0.037 C 
ATOM      9  C   UNL     1      -1.270   2.164   0.020  0.00  0.00    -0.018 A 
ATOM     10  C   UNL     1      -1.146   3.509   0.030  0.00  0.00    -0.004 A 
ATOM     11  S   UNL     1       0.600   3.803   0.016  0.00  0.00    -0.077 S 
ATOM     12  C   UNL     1       1.159   2.163   0.003  0.00  0.00    +0.090 A 
ATOM     13  C   UNL     1      -0.017   1.428   0.010  0.00  0.00    +0.084 A 
ATOM     14  C   UNL     1      -2.253   4.518   0.044  0.00  0.00    +0.046 C 
BRANCH  13  15
ATOM     15  C   UNL     1       0.002  -0.004   0.002  0.00  0.00    +0.102 C 
ATOM     16  N   UNL     1       0.018  -1.140  -0.004  0.00  0.00    -0.191 NA
ENDBRANCH  13  15
ENDBRANCH   1  12
BRANCH   2  17
ATOM     17  C   UNL     1       4.912   2.066  -0.034  0.00  0.00    +0.131 C 
BRANCH  17  18
ATOM     18  C   UNL     1       5.862   3.236  -0.037  0.00  0.00    -0.035 A 
ATOM     19  C   UNL     1       6.290   3.774  -1.236  0.00  0.00    +0.008 A 
ATOM     20  C   UNL     1       7.157   4.850  -1.244  0.00  0.00    +0.050 A 
ATOM     21  C   UNL     1       7.608   5.386  -0.048  0.00  0.00    +0.166 A 
ATOM     22  C   UNL     1       7.181   4.840   1.160  0.00  0.00    +0.166 A 
ATOM     23  C   UNL     1       6.308   3.765   1.160  0.00  0.00    +0.053 A 
ATOM     24  O   UNL     1       7.761   5.535   2.182  0.00  0.00    -0.453 OA
ATOM     25  C   UNL     1       8.223   6.767   1.595  0.00  0.00    +0.466 C 
ATOM     26  O   UNL     1       8.455   6.423   0.217  0.00  0.00    -0.453 OA
ENDBRANCH  17  18
ENDBRANCH   2  17
TORSDOF 4
