REMARK  Name = ZINC16572271
REMARK  8 active torsions:
REMARK  status: ('A' for Active; 'I' for Inactive)
REMARK    1  A    between atoms: C_1  and  C_2
REMARK    2  A    between atoms: C_2  and  C_3
REMARK    3  A    between atoms: C_3  and  C_5
REMARK    4  A    between atoms: C_3  and  C_6
REMARK    5  A    between atoms: C_6  and  C_8
REMARK    6  A    between atoms: C_6  and  N_23
REMARK    7  A    between atoms: C_14  and  C_16
REMARK    8  A    between atoms: N_26  and  C_27
REMARK                            x       y       z     vdW  Elec       q    Type
REMARK                         _______ _______ _______ _____ _____    ______ ____
ROOT
ATOM      1  C   UNL     1      -0.182   1.268   0.074  0.00  0.00    +0.163 C 
ENDROOT
BRANCH   1   2
ATOM      2  C   UNL     1      -1.073   1.529  -1.113  0.00  0.00    +0.239 C 
ATOM      3  O   UNL     1      -2.111   2.139  -0.969  0.00  0.00    -0.273 OA
ATOM      4  N   UNL     1      -0.716   1.086  -2.334  0.00  0.00    -0.262 N 
ATOM      5  C   UNL     1      -1.482   1.416  -3.445  0.00  0.00    +0.188 A 
ATOM      6  N   UNL     1      -2.591   2.140  -3.531  0.00  0.00    -0.125 NA
ATOM      7  N   UNL     1      -3.166   2.351  -4.633  0.00  0.00    -0.140 NA
ATOM      8  C   UNL     1      -2.704   1.850  -5.772  0.00  0.00    +0.134 A 
ATOM      9  S   UNL     1      -1.260   0.980  -5.167  0.00  0.00    -0.030 S 
ATOM     10  H   UNL     1       0.076   0.536  -2.438  0.00  0.00    +0.157 HD
BRANCH   8  11
ATOM     11  C   UNL     1      -3.230   1.975  -7.148  0.00  0.00    +0.009 A 
ATOM     12  C   UNL     1      -2.567   1.359  -8.210  0.00  0.00    +0.012 A 
ATOM     13  C   UNL     1      -3.065   1.475  -9.491  0.00  0.00    +0.020 A 
ATOM     14  C   UNL     1      -4.216   2.209  -9.726  0.00  0.00    +0.041 A 
ATOM     15  C   UNL     1      -4.875   2.826  -8.676  0.00  0.00    +0.020 A 
ATOM     16  C   UNL     1      -4.389   2.713  -7.390  0.00  0.00    +0.012 A 
ATOM     17 CL   UNL     1      -4.833   2.356 -11.341  0.00  0.00    -0.084 Cl
ENDBRANCH   8  11
ENDBRANCH   1   2
BRANCH   1  18
ATOM     18  N   UNL     1      -0.876   1.663   1.302  0.00  0.00    -0.288 N 
ATOM     19  C   UNL     1      -0.542   1.095   2.478  0.00  0.00    +0.305 C 
ATOM     20  O   UNL     1       0.335   0.254   2.519  0.00  0.00    -0.252 OA
ATOM     21  N   UNL     1      -1.181   1.459   3.608  0.00  0.00    -0.267 N 
ATOM     22  H   UNL     1      -1.575   2.335   1.269  0.00  0.00    +0.151 HD
ATOM     23  H   UNL     1      -1.921   2.084   3.567  0.00  0.00    +0.156 HD
BRANCH  21  24
ATOM     24  C   UNL     1      -0.774   0.935   4.842  0.00  0.00    +0.070 A 
ATOM     25  C   UNL     1      -0.156  -0.306   4.901  0.00  0.00    +0.026 A 
ATOM     26  C   UNL     1       0.248  -0.818   6.118  0.00  0.00    +0.002 A 
ATOM     27  C   UNL     1       0.029  -0.101   7.280  0.00  0.00    +0.003 A 
ATOM     28  C   UNL     1      -0.592   1.134   7.227  0.00  0.00    +0.040 A 
ATOM     29  C   UNL     1      -0.995   1.655   6.011  0.00  0.00    +0.145 A 
ATOM     30  F   UNL     1      -1.601   2.861   5.959  0.00  0.00    -0.204 F 
ENDBRANCH  21  24
ENDBRANCH   1  18
BRANCH   1  31
ATOM     31  C   UNL     1       1.107   2.079  -0.067  0.00  0.00    +0.015 C 
ATOM     32  C   UNL     1       0.785   3.571   0.035  0.00  0.00    +0.010 C 
BRANCH  31  34
ATOM     33  C   UNL     1       2.477   0.220   0.888  0.00  0.00    +0.004 C 
ATOM     34  C   UNL     1       2.080   1.689   1.048  0.00  0.00    +0.002 C 
ENDBRANCH  31  34
ENDBRANCH   1  31
TORSDOF 6
