REMARK  Name = ZINC64354193
REMARK  9 active torsions:
REMARK  status: ('A' for Active; 'I' for Inactive)
REMARK    1  A    between atoms: C_1  and  N_2
REMARK    2  A    between atoms: N_2  and  C_3
REMARK    3  A    between atoms: C_6  and  C_12
REMARK    4  A    between atoms: C_8  and  N_9
REMARK    5  A    between atoms: C_12  and  C_14
REMARK    6  A    between atoms: C_19  and  C_20
REMARK    7  A    between atoms: N_22  and  C_23
REMARK    8  A    between atoms: C_23  and  C_24
REMARK    9  A    between atoms: C_24  and  C_25
REMARK                            x       y       z     vdW  Elec       q    Type
REMARK                         _______ _______ _______ _____ _____    ______ ____
ROOT
ATOM      1  C   UNL     1      -6.310  -2.274   0.271  0.00  0.00    +0.034 A 
ATOM      2  C   UNL     1      -6.401  -0.885   0.326  0.00  0.00    +0.012 A 
ATOM      3  C   UNL     1      -7.640  -0.275   0.368  0.00  0.00    +0.001 A 
ATOM      4  C   UNL     1      -8.796  -1.036   0.356  0.00  0.00    +0.001 A 
ATOM      5  C   UNL     1      -8.725  -2.415   0.301  0.00  0.00    +0.014 A 
ATOM      6  C   UNL     1      -7.486  -3.047   0.253  0.00  0.00    +0.047 A 
ENDROOT
BRANCH   6   7
ATOM      7  C   UNL     1      -7.405  -4.523   0.188  0.00  0.00    +0.245 C 
ATOM      8  O   UNL     1      -6.324  -5.075   0.235  0.00  0.00    -0.270 OA
ATOM      9  N   UNL     1      -8.531  -5.255   0.078  0.00  0.00    -0.311 N 
ATOM     10  H   UNL     1      -9.395  -4.815   0.041  0.00  0.00    +0.149 HD
BRANCH   9  11
ATOM     11  C   UNL     1      -8.452  -6.717   0.014  0.00  0.00    +0.109 C 
BRANCH  11  12
ATOM     12  C   UNL     1      -9.861  -7.300  -0.108  0.00  0.00    +0.052 C 
BRANCH  12  13
ATOM     13  C   UNL     1      -9.779  -8.803  -0.174  0.00  0.00    -0.040 C 
ATOM     14  C   UNL     1      -9.906  -9.670   0.857  0.00  0.00    -0.001 A 
ATOM     15  C   UNL     1     -10.148  -9.480   2.292  0.00  0.00    +0.010 A 
ATOM     16  C   UNL     1     -10.227 -10.567   3.093  0.00  0.00    +0.001 A 
ATOM     17  C   UNL     1     -10.083 -11.867   2.589  0.00  0.00    +0.002 A 
ATOM     18  C   UNL     1      -9.858 -12.121   1.282  0.00  0.00    +0.026 A 
ATOM     19  C   UNL     1      -9.758 -11.053   0.349  0.00  0.00    +0.043 A 
ATOM     20  N   UNL     1      -9.547 -11.041  -0.945  0.00  0.00    -0.380 N 
ATOM     21  C   UNL     1      -9.544  -9.648  -1.406  0.00  0.00    +0.144 C 
ATOM     22  H   UNL     1      -9.419 -11.823  -1.505  0.00  0.00    +0.160 HD
ENDBRANCH  12  13
ENDBRANCH  11  12
ENDBRANCH   9  11
ENDBRANCH   6   7
BRANCH   1  23
ATOM     23  C   UNL     1      -4.986  -2.932   0.226  0.00  0.00    +0.194 C 
ATOM     24  O   UNL     1      -4.349  -2.945  -0.810  0.00  0.00    -0.287 OA
BRANCH  23  28
ATOM     25  C   UNL     1      -3.414  -4.770   3.703  0.00  0.00    +0.058 A 
ATOM     26  C   UNL     1      -4.699  -4.231   3.722  0.00  0.00    +0.026 A 
ATOM     27  C   UNL     1      -5.209  -3.637   2.603  0.00  0.00    +0.013 A 
ATOM     28  C   UNL     1      -4.439  -3.571   1.435  0.00  0.00    +0.025 A 
ATOM     29  C   UNL     1      -3.150  -4.114   1.420  0.00  0.00    +0.046 A 
ATOM     30  C   UNL     1      -2.644  -4.701   2.544  0.00  0.00    +0.148 A 
BRANCH  25  32
ATOM     31  C   UNL     1      -3.667  -5.359   6.090  0.00  0.00    +0.125 C 
ATOM     32  N   UNL     1      -2.899  -5.374   4.843  0.00  0.00    -0.345 N 
ATOM     33  H   UNL     1      -2.030  -5.804   4.813  0.00  0.00    +0.146 HD
ENDBRANCH  25  32
BRANCH  30  34
ATOM     34  N   UNL     1      -1.278  -5.271   2.530  0.00  0.00    +0.058 N 
ATOM     35  O   UNL     1      -0.395  -4.709   1.925  0.00  0.00    -0.126 OA
ATOM     36  O   UNL     1      -1.045  -6.298   3.124  0.00  0.00    -0.126 OA
ENDBRANCH  30  34
ENDBRANCH  23  28
ENDBRANCH   1  23
TORSDOF 8
