REMARK  Name = ZINC09664616
REMARK  7 active torsions:
REMARK  status: ('A' for Active; 'I' for Inactive)
REMARK    1  A    between atoms: C_1  and  C_2
REMARK    2  A    between atoms: C_7  and  N_8
REMARK    3  A    between atoms: C_9  and  C_23
REMARK    4  A    between atoms: C_12  and  S_13
REMARK    5  A    between atoms: S_13  and  C_14
REMARK    6  A    between atoms: C_14  and  C_15
REMARK    7  A    between atoms: N_17  and  C_18
REMARK                            x       y       z     vdW  Elec       q    Type
REMARK                         _______ _______ _______ _____ _____    ______ ____
ROOT
ATOM      1  N   UNL     1       1.296   1.730  -0.001  0.00  0.00    -0.270 N 
ATOM      2  C   UNL     1      -0.016   1.309   0.009  0.00  0.00    +0.169 A 
ATOM      3  N   UNL     1       0.002  -0.004   0.002  0.00  0.00    -0.128 NA
ATOM      4  N   UNL     1       1.215  -0.428  -0.012  0.00  0.00    -0.122 NA
ATOM      5  C   UNL     1       2.049   0.588  -0.014  0.00  0.00    +0.197 A 
ENDROOT
BRANCH   1  12
ATOM      6  C   UNL     1       1.730   3.010  -2.506  0.00  0.00    +0.046 C 
ATOM      7  C   UNL     1       1.986   3.713  -1.198  0.00  0.00    -0.026 A 
ATOM      8  C   UNL     1       2.440   5.018  -1.192  0.00  0.00    +0.005 A 
ATOM      9  C   UNL     1       2.681   5.662   0.007  0.00  0.00    +0.000 A 
ATOM     10  C   UNL     1       2.462   5.005   1.204  0.00  0.00    +0.002 A 
ATOM     11  C   UNL     1       2.004   3.702   1.205  0.00  0.00    +0.026 A 
ATOM     12  C   UNL     1       1.761   3.053   0.002  0.00  0.00    +0.053 A 
ENDBRANCH   1  12
BRANCH   2  13
ATOM     13  C   UNL     1      -1.216   2.171   0.020  0.00  0.00    +0.020 A 
ATOM     14  C   UNL     1      -1.105   3.530  -0.281  0.00  0.00    +0.013 A 
ATOM     15  C   UNL     1      -2.230   4.329  -0.275  0.00  0.00    +0.021 A 
ATOM     16  C   UNL     1      -3.465   3.787   0.040  0.00  0.00    +0.041 A 
ATOM     17  C   UNL     1      -3.580   2.441   0.344  0.00  0.00    +0.021 A 
ATOM     18  C   UNL     1      -2.464   1.631   0.336  0.00  0.00    +0.013 A 
ATOM     19 CL   UNL     1      -4.875   4.801   0.053  0.00  0.00    -0.084 Cl
ENDBRANCH   2  13
BRANCH   5  20
ATOM     20  S   UNL     1       3.809   0.496  -0.033  0.00  0.00    -0.076 S 
BRANCH  20  21
ATOM     21  C   UNL     1       4.029  -1.300  -0.044  0.00  0.00    +0.173 C 
BRANCH  21  22
ATOM     22  C   UNL     1       5.501  -1.625  -0.061  0.00  0.00    +0.224 C 
ATOM     23  O   UNL     1       6.320  -0.731  -0.064  0.00  0.00    -0.275 OA
ATOM     24  N   UNL     1       5.907  -2.910  -0.072  0.00  0.00    -0.312 N 
ATOM     25  H   UNL     1       5.252  -3.626  -0.069  0.00  0.00    +0.149 HD
BRANCH  24  26
ATOM     26  C   UNL     1       7.337  -3.227  -0.088  0.00  0.00    +0.073 C 
ATOM     27  C   UNL     1       7.851  -3.279  -1.542  0.00  0.00    +0.022 C 
ATOM     28  C   UNL     1       8.881  -4.436  -1.539  0.00  0.00    +0.002 C 
ATOM     29  C   UNL     1       8.225  -5.475  -0.596  0.00  0.00    +0.002 C 
ATOM     30  C   UNL     1       7.575  -4.623   0.513  0.00  0.00    +0.022 C 
ENDBRANCH  24  26
ENDBRANCH  21  22
ENDBRANCH  20  21
ENDBRANCH   5  20
TORSDOF 6
