REMARK  Name = ZINC08623406
REMARK  11 active torsions:
REMARK  status: ('A' for Active; 'I' for Inactive)
REMARK    1  A    between atoms: C_1  and  C_2
REMARK    2  A    between atoms: C_2  and  C_3
REMARK    3  A    between atoms: C_2  and  C_4
REMARK    4  A    between atoms: C_2  and  C_5
REMARK    5  A    between atoms: C_8  and  N_11
REMARK    6  A    between atoms: C_12  and  O_14
REMARK    7  A    between atoms: O_14  and  C_15
REMARK    8  A    between atoms: C_15  and  C_16
REMARK    9  A    between atoms: C_24  and  C_26
REMARK   10  A    between atoms: C_28  and  C_38
REMARK   11  A    between atoms: C_30  and  C_32
REMARK                            x       y       z     vdW  Elec       q    Type
REMARK                         _______ _______ _______ _____ _____    ______ ____
ROOT
ATOM      1  C   UNL     1      -0.085   4.012   0.190  0.00  0.00    -0.030 C 
ATOM      2  C   UNL     1      -0.203   2.611  -0.417  0.00  0.00    -0.008 C 
ATOM      3  C   UNL     1       0.619   2.562  -1.712  0.00  0.00    -0.007 C 
ATOM      4  C   UNL     1       2.078   2.896  -1.379  0.00  0.00    -0.015 C 
ATOM      5  C   UNL     1       2.133   4.289  -0.745  0.00  0.00    -0.078 C 
ATOM      6  C   UNL     1       0.190   5.000  -2.004  0.00  0.00    -0.068 C 
ATOM      7  C   UNL     1       0.086   3.616  -2.690  0.00  0.00    +0.024 C 
ATOM      8  N   UNL     1       0.776   4.869  -0.653  0.00  0.00    +0.384 N 
ATOM      9  H   UNL     1       0.840   5.800  -0.226  0.00  0.00    -0.081 HD
ENDROOT
BRANCH   7  10
ATOM     10  C   UNL     1      -1.358   3.325  -3.010  0.00  0.00    +0.047 A 
ATOM     11  C   UNL     1      -2.198   4.338  -3.447  0.00  0.00    +0.047 A 
ATOM     12  C   UNL     1      -3.519   4.027  -3.731  0.00  0.00    +0.048 A 
ATOM     13  N   UNL     1      -3.936   2.782  -3.577  0.00  0.00    -0.232 NA
ATOM     14  C   UNL     1      -3.107   1.837  -3.157  0.00  0.00    +0.160 A 
ATOM     15  N   UNL     1      -1.837   2.100  -2.882  0.00  0.00    -0.232 NA
BRANCH  14  16
ATOM     16  C   UNL     1      -3.611   0.450  -2.996  0.00  0.00    +0.022 A 
ATOM     17  C   UNL     1      -2.766  -0.574  -2.561  0.00  0.00    +0.031 A 
ATOM     18  C   UNL     1      -3.277  -1.849  -2.420  0.00  0.00    +0.111 A 
ATOM     19  N   UNL     1      -4.540  -2.107  -2.700  0.00  0.00    -0.263 NA
ATOM     20  C   UNL     1      -5.369  -1.170  -3.118  0.00  0.00    +0.111 A 
ATOM     21  C   UNL     1      -4.941   0.132  -3.281  0.00  0.00    +0.031 A 
ENDBRANCH  14  16
BRANCH  12  22
ATOM     22  C   UNL     1      -4.469   5.095  -4.209  0.00  0.00    +0.038 C 
ATOM     23  C   UNL     1      -4.250   5.363  -5.712  0.00  0.00    +0.010 C 
ATOM     24  C   UNL     1      -4.448   6.893  -5.858  0.00  0.00    +0.001 C 
ATOM     25  C   UNL     1      -3.799   7.446  -4.565  0.00  0.00    +0.001 C 
ATOM     26  C   UNL     1      -4.182   6.420  -3.480  0.00  0.00    +0.010 C 
ENDBRANCH  12  22
ENDBRANCH   7  10
BRANCH   1  27
ATOM     27  C   UNL     1      -1.474   4.646   0.286  0.00  0.00    +0.219 C 
BRANCH  27  28
ATOM     28  O   UNL     1      -1.366   5.959   0.895  0.00  0.00    -0.452 OA
BRANCH  28  30
ATOM     29  N   UNL     1      -2.442   7.960   1.428  0.00  0.00    -0.251 N 
ATOM     30  C   UNL     1      -2.492   6.694   0.967  0.00  0.00    +0.404 C 
ATOM     31  O   UNL     1      -3.553   6.216   0.616  0.00  0.00    -0.226 OA
ATOM     32  H   UNL     1      -1.587   8.365   1.642  0.00  0.00    +0.158 HD
BRANCH  29  36
ATOM     33  C   UNL     1      -5.961  10.133   1.932  0.00  0.00    -0.042 A 
ATOM     34  C   UNL     1      -4.806  10.775   1.524  0.00  0.00    +0.006 A 
ATOM     35  C   UNL     1      -3.638  10.057   1.356  0.00  0.00    +0.024 A 
ATOM     36  C   UNL     1      -3.624   8.690   1.597  0.00  0.00    +0.036 A 
ATOM     37  C   UNL     1      -4.787   8.047   2.001  0.00  0.00    +0.024 A 
ATOM     38  C   UNL     1      -5.951   8.771   2.172  0.00  0.00    +0.006 A 
BRANCH  33  40
ATOM     39  C   UNL     1      -7.623  11.574   0.788  0.00  0.00    +0.015 C 
ATOM     40  C   UNL     1      -7.234  10.918   2.115  0.00  0.00    -0.013 C 
ATOM     41  C   UNL     1      -8.354   9.979   2.567  0.00  0.00    +0.015 C 
ATOM     42  C   UNL     1      -7.018  12.001   3.174  0.00  0.00    +0.015 C 
ENDBRANCH  33  40
ENDBRANCH  29  36
ENDBRANCH  28  30
ENDBRANCH  27  28
ENDBRANCH   1  27
TORSDOF 8
