REMARK  Name = ZINC32603007
REMARK  13 active torsions:
REMARK  status: ('A' for Active; 'I' for Inactive)
REMARK    1  A    between atoms: C_1  and  C_2
REMARK    2  A    between atoms: C_2  and  C_42
REMARK    3  A    between atoms: C_5  and  C_8
REMARK    4  A    between atoms: C_10  and  O_22
REMARK    5  A    between atoms: C_18  and  C_20
REMARK    6  A    between atoms: C_18  and  C_21
REMARK    7  A    between atoms: O_22  and  C_23
REMARK    8  A    between atoms: C_23  and  C_25
REMARK    9  A    between atoms: C_28  and  N_31
REMARK   10  A    between atoms: N_32  and  C_33
REMARK   11  A    between atoms: C_36  and  N_39
REMARK   12  A    between atoms: N_39  and  C_40
REMARK   13  A    between atoms: N_39  and  C_41
REMARK                            x       y       z     vdW  Elec       q    Type
REMARK                         _______ _______ _______ _____ _____    ______ ____
ROOT
ATOM      1  C   UNL     1       2.470  -8.285  -0.062  0.00  0.00    +0.340 C 
ATOM      2  O   UNL     1       3.532  -8.875  -0.075  0.00  0.00    -0.245 OA
ENDROOT
BRANCH   1   3
ATOM      3  C   UNL     1       2.445  -6.809  -0.055  0.00  0.00    +0.059 A 
ATOM      4  C   UNL     1       3.644  -6.090  -0.064  0.00  0.00    +0.017 A 
ATOM      5  C   UNL     1       3.621  -4.719  -0.057  0.00  0.00    +0.030 A 
ATOM      6  C   UNL     1       2.398  -4.040  -0.042  0.00  0.00    +0.086 A 
ATOM      7  C   UNL     1       1.199  -4.760  -0.028  0.00  0.00    +0.030 A 
ATOM      8  C   UNL     1       1.223  -6.131  -0.040  0.00  0.00    +0.017 A 
BRANCH   6   9
ATOM      9  N   UNL     1       2.376  -2.674  -0.035  0.00  0.00    -0.149 NA
ATOM     10  N   UNL     1       1.248  -2.048  -0.020  0.00  0.00    -0.149 NA
BRANCH  10  11
ATOM     11  C   UNL     1       1.225  -0.685  -0.013  0.00  0.00    +0.086 A 
ATOM     12  C   UNL     1       0.002  -0.004   0.002  0.00  0.00    +0.031 A 
ATOM     13  C   UNL     1      -0.017   1.367   0.010  0.00  0.00    +0.025 A 
ATOM     14  C   UNL     1       1.179   2.081   0.002  0.00  0.00    +0.029 A 
ATOM     15  C   UNL     1       2.397   1.407  -0.013  0.00  0.00    +0.025 A 
ATOM     16  C   UNL     1       2.424   0.037  -0.021  0.00  0.00    +0.031 A 
BRANCH  14  17
ATOM     17  N   UNL     1       1.155   3.473   0.009  0.00  0.00    -0.336 N 
ATOM     18  C   UNL     1      -0.126   4.184   0.025  0.00  0.00    +0.129 C 
ATOM     19  C   UNL     1       2.411   4.226   0.001  0.00  0.00    +0.129 C 
ENDBRANCH  14  17
ENDBRANCH  10  11
ENDBRANCH   6   9
ENDBRANCH   1   3
BRANCH   1  20
ATOM     20  O   UNL     1       1.315  -8.978  -0.054  0.00  0.00    -0.452 OA
BRANCH  20  22
ATOM     21  C   UNL     1       0.199 -11.056  -0.774  0.00  0.00    +0.196 C 
ATOM     22  C   UNL     1       1.415 -10.427  -0.062  0.00  0.00    +0.242 C 
ATOM     23  C   UNL     1       1.298 -10.993   1.374  0.00  0.00    +0.220 C 
ATOM     24  C   UNL     1      -0.252 -11.090   1.539  0.00  0.00    +0.286 C 
ATOM     25  O   UNL     1      -0.752 -11.414   0.234  0.00  0.00    -0.339 OA
ATOM     26  O   UNL     1      -0.411 -12.244   2.388  0.00  0.00    -0.318 OA
ATOM     27  C   UNL     1       0.785 -13.027   2.284  0.00  0.00    +0.168 C 
ATOM     28  O   UNL     1       1.682 -12.383   1.364  0.00  0.00    -0.337 OA
ATOM     29  C   UNL     1       0.441 -14.427   1.772  0.00  0.00    +0.074 C 
ATOM     30  C   UNL     1       1.448 -13.131   3.659  0.00  0.00    +0.074 C 
BRANCH  21  35
ATOM     31  C   UNL     1       0.176 -10.722  -5.015  0.00  0.00    +0.074 C 
ATOM     32  C   UNL     1      -0.292  -9.659  -4.019  0.00  0.00    +0.165 C 
ATOM     33  O   UNL     1      -1.674  -9.882  -3.689  0.00  0.00    -0.347 OA
ATOM     34  C   UNL     1      -1.643 -10.653  -2.465  0.00  0.00    +0.197 C 
ATOM     35  C   UNL     1      -0.420 -10.041  -1.738  0.00  0.00    +0.180 C 
ATOM     36  O   UNL     1       0.488  -9.746  -2.819  0.00  0.00    -0.341 OA
ATOM     37  C   UNL     1      -0.128  -8.269  -4.635  0.00  0.00    +0.074 C 
ENDBRANCH  21  35
ENDBRANCH  20  22
ENDBRANCH   1  20
TORSDOF 7
