REMARK  Name = ZINC60360076
REMARK  7 active torsions:
REMARK  status: ('A' for Active; 'I' for Inactive)
REMARK    1  A    between atoms: C_1  and  C_2
REMARK    2  A    between atoms: C_2  and  C_3
REMARK    3  A    between atoms: C_2  and  C_4
REMARK    4  A    between atoms: C_4  and  C_6
REMARK    5  A    between atoms: C_4  and  N_15
REMARK    6  A    between atoms: C_16  and  C_18
REMARK    7  A    between atoms: C_18  and  C_19
REMARK                            x       y       z     vdW  Elec       q    Type
REMARK                         _______ _______ _______ _____ _____    ______ ____
ROOT
ATOM      1  N   UNL     1      -2.155   0.035   1.154  0.00  0.00    -0.305 N 
ATOM      2  C   UNL     1      -2.067  -0.550   2.366  0.00  0.00    +0.214 C 
ATOM      3  O   UNL     1      -1.391  -1.546   2.511  0.00  0.00    -0.276 OA
ATOM      4  H   UNL     1      -2.696   0.831   1.038  0.00  0.00    +0.149 HD
ENDROOT
BRANCH   1   5
ATOM      5  C   UNL     1      -1.433  -0.534   0.013  0.00  0.00    +0.144 C 
BRANCH   5   6
ATOM      6  C   UNL     1      -2.125  -0.137  -1.266  0.00  0.00    +0.158 A 
ATOM      7  N   UNL     1      -2.562   1.057  -1.571  0.00  0.00    -0.132 NA
ATOM      8  N   UNL     1      -3.102   1.050  -2.739  0.00  0.00    -0.129 NA
ATOM      9  C   UNL     1      -3.035  -0.169  -3.249  0.00  0.00    +0.161 A 
ATOM     10  N   UNL     1      -2.402  -0.955  -2.317  0.00  0.00    -0.285 N 
ATOM     11  C   UNL     1      -2.181  -2.278  -2.566  0.00  0.00    +0.094 A 
ATOM     12  C   UNL     1      -2.578  -2.832  -3.730  0.00  0.00    +0.018 A 
ATOM     13  C   UNL     1      -3.225  -2.053  -4.704  0.00  0.00    +0.005 A 
ATOM     14  C   UNL     1      -3.459  -0.734  -4.467  0.00  0.00    +0.048 A 
ENDBRANCH   5   6
BRANCH   5  16
ATOM     15  C   UNL     1      -0.019   1.526   0.010  0.00  0.00    +0.009 C 
ATOM     16  C   UNL     1       0.002  -0.004   0.002  0.00  0.00    +0.011 C 
ATOM     17  C   UNL     1       0.742  -0.511   1.242  0.00  0.00    +0.009 C 
ENDBRANCH   5  16
ENDBRANCH   1   5
BRANCH   2  18
ATOM     18  C   UNL     1      -2.809   0.034   3.540  0.00  0.00    +0.102 C 
BRANCH  18  19
ATOM     19  C   UNL     1      -2.542  -0.813   4.785  0.00  0.00    -0.019 C 
ATOM     20  C   UNL     1      -1.042  -0.822   5.083  0.00  0.00    +0.011 C 
ATOM     21  C   UNL     1      -0.774  -1.670   6.329  0.00  0.00    -0.009 C 
ATOM     22  C   UNL     1      -1.528  -1.076   7.521  0.00  0.00    +0.007 C 
ATOM     23  C   UNL     1      -3.028  -1.067   7.223  0.00  0.00    -0.009 C 
ATOM     24  C   UNL     1      -3.296  -0.220   5.977  0.00  0.00    +0.011 C 
ATOM     25  C   UNL     1      -3.508  -2.499   6.978  0.00  0.00    +0.021 C 
ATOM     26  C   UNL     1      -2.755  -3.093   5.785  0.00  0.00    +0.027 C 
ATOM     27  C   UNL     1      -1.254  -3.102   6.084  0.00  0.00    +0.021 C 
ATOM     28  C   UNL     1      -3.022  -2.245   4.540  0.00  0.00    +0.025 C 
ATOM     29 BR   UNL     1      -3.371  -4.933   5.471  0.00  0.00    -0.084 Br
ENDBRANCH  18  19
ENDBRANCH   2  18
TORSDOF 5
