REMARK  Name = ZINC35746490
REMARK  12 active torsions:
REMARK  status: ('A' for Active; 'I' for Inactive)
REMARK    1  A    between atoms: C_1  and  C_2
REMARK    2  A    between atoms: C_5  and  C_39
REMARK    3  A    between atoms: C_6  and  C_8
REMARK    4  A    between atoms: C_17  and  C_19
REMARK    5  A    between atoms: C_19  and  N_20
REMARK    6  A    between atoms: N_20  and  C_21
REMARK    7  A    between atoms: N_20  and  C_28
REMARK    8  A    between atoms: C_21  and  C_22
REMARK    9  A    between atoms: C_28  and  C_29
REMARK   10  A    between atoms: C_29  and  C_31
REMARK   11  A    between atoms: C_29  and  O_38
REMARK   12  A    between atoms: C_31  and  C_32
REMARK                            x       y       z     vdW  Elec       q    Type
REMARK                         _______ _______ _______ _____ _____    ______ ____
ROOT
ATOM      1  C   UNL     1       4.481  -5.638   5.021  0.00  0.00    -0.003 C 
ENDROOT
BRANCH   1  11
ATOM      2  C   UNL     1       0.700  -1.526   3.892  0.00  0.00    +0.004 A 
ATOM      3  C   UNL     1      -0.449  -1.669   4.597  0.00  0.00    +0.056 A 
ATOM      4  S   UNL     1      -0.159  -3.139   5.562  0.00  0.00    -0.076 S 
ATOM      5  C   UNL     1       1.480  -3.523   5.003  0.00  0.00    +0.116 A 
ATOM      6  C   UNL     1       1.762  -2.506   4.076  0.00  0.00    +0.080 A 
ATOM      7  C   UNL     1       3.049  -2.576   3.452  0.00  0.00    +0.260 A 
ATOM      8  O   UNL     1       3.388  -1.735   2.637  0.00  0.00    -0.267 OA
ATOM      9  N   UNL     1       3.879  -3.583   3.780  0.00  0.00    -0.312 N 
ATOM     10  H   UNL     1       4.753  -3.635   3.361  0.00  0.00    +0.170 HD
ATOM     11  C   UNL     1       3.519  -4.528   4.686  0.00  0.00    +0.094 A 
ATOM     12  N   UNL     1       2.356  -4.486   5.279  0.00  0.00    -0.229 NA
BRANCH   2  18
ATOM     13  C   UNL     1       1.100   3.378   3.046  0.00  0.00    +0.044 C 
ATOM     14  C   UNL     1       1.062   1.961   2.535  0.00  0.00    -0.050 A 
ATOM     15  C   UNL     1       1.185   1.712   1.180  0.00  0.00    +0.003 A 
ATOM     16  C   UNL     1       1.150   0.413   0.704  0.00  0.00    +0.004 A 
ATOM     17  C   UNL     1       0.993  -0.642   1.579  0.00  0.00    -0.043 A 
ATOM     18  C   UNL     1       0.869  -0.397   2.946  0.00  0.00    -0.013 A 
ATOM     19  C   UNL     1       0.910   0.914   3.421  0.00  0.00    +0.012 A 
ATOM     20  C   UNL     1       0.954  -2.055   1.059  0.00  0.00    +0.044 C 
ENDBRANCH   2  18
ENDBRANCH   1  11
BRANCH   1  21
ATOM     21  N   UNL     1       3.873  -6.530   6.017  0.00  0.00    +0.389 N 
ATOM     22  H   UNL     1       3.585  -5.991   6.820  0.00  0.00    -0.081 HD
BRANCH  21  23
ATOM     23  C   UNL     1       2.703  -7.195   5.429  0.00  0.00    -0.042 C 
BRANCH  23  24
ATOM     24  C   UNL     1       3.108  -7.891   4.155  0.00  0.00    -0.064 A 
ATOM     25  C   UNL     1       3.027  -7.224   2.947  0.00  0.00    +0.002 A 
ATOM     26  C   UNL     1       3.399  -7.863   1.779  0.00  0.00    +0.000 A 
ATOM     27  C   UNL     1       3.853  -9.168   1.819  0.00  0.00    +0.000 A 
ATOM     28  C   UNL     1       3.935  -9.835   3.027  0.00  0.00    +0.000 A 
ATOM     29  C   UNL     1       3.567  -9.195   4.196  0.00  0.00    +0.002 A 
ENDBRANCH  23  24
ENDBRANCH  21  23
BRANCH  21  30
ATOM     30  C   UNL     1       4.853  -7.541   6.433  0.00  0.00    -0.046 C 
BRANCH  30  31
ATOM     31  C   UNL     1       4.367  -8.228   7.711  0.00  0.00    +0.102 C 
BRANCH  31  32
ATOM     32  O   UNL     1       3.199  -8.999   7.423  0.00  0.00    -0.393 OA
ATOM     33  H   UNL     1       3.364  -9.765   6.857  0.00  0.00    +0.210 HD
ENDBRANCH  31  32
BRANCH  31  34
ATOM     34  C   UNL     1       5.467  -9.148   8.246  0.00  0.00    +0.064 C 
BRANCH  34  35
ATOM     35  C   UNL     1       5.037  -9.729   9.568  0.00  0.00    -0.045 A 
ATOM     36  C   UNL     1       5.333  -9.065  10.744  0.00  0.00    +0.004 A 
ATOM     37  C   UNL     1       4.939  -9.598  11.957  0.00  0.00    +0.000 A 
ATOM     38  C   UNL     1       4.247 -10.794  11.994  0.00  0.00    +0.000 A 
ATOM     39  C   UNL     1       3.950 -11.458  10.818  0.00  0.00    +0.000 A 
ATOM     40  C   UNL     1       4.341 -10.922   9.605  0.00  0.00    +0.004 A 
ENDBRANCH  34  35
ENDBRANCH  31  34
ENDBRANCH  30  31
ENDBRANCH  21  30
ENDBRANCH   1  21
TORSDOF 10
