REMARK  Name = ZINC21124458
REMARK  12 active torsions:
REMARK  status: ('A' for Active; 'I' for Inactive)
REMARK    1  A    between atoms: C_1  and  C_2
REMARK    2  A    between atoms: C_2  and  C_3
REMARK    3  A    between atoms: C_2  and  C_4
REMARK    4  A    between atoms: C_4  and  C_5
REMARK    5  A    between atoms: C_4  and  C_6
REMARK    6  A    between atoms: C_4  and  N_8
REMARK    7  A    between atoms: C_9  and  C_11
REMARK    8  A    between atoms: C_11  and  S_12
REMARK    9  A    between atoms: S_12  and  C_13
REMARK   10  A    between atoms: N_26  and  C_27
REMARK   11  A    between atoms: C_30  and  O_33
REMARK   12  A    between atoms: O_33  and  C_34
REMARK                            x       y       z     vdW  Elec       q    Type
REMARK                         _______ _______ _______ _____ _____    ______ ____
ROOT
ATOM      1  C   UNL     1      -0.033  -4.765  -0.520  0.00  0.00    +0.178 A 
ATOM      2  N   UNL     1      -0.942  -3.823  -0.311  0.00  0.00    -0.215 NA
ATOM      3  C   UNL     1      -0.504  -2.628   0.065  0.00  0.00    +0.117 A 
ATOM      4  C   UNL     1       0.861  -2.309   0.253  0.00  0.00    +0.076 A 
ATOM      5  C   UNL     1       1.149  -0.946   0.666  0.00  0.00    -0.023 A 
ATOM      6  C   UNL     1       0.087  -0.124   0.830  0.00  0.00    -0.004 A 
ATOM      7  S   UNL     1      -1.334  -1.117   0.444  0.00  0.00    -0.073 S 
ATOM      8  C   UNL     1       0.108   1.314   1.248  0.00  0.00    +0.043 C 
ATOM      9  C   UNL     1       1.495   1.633   1.824  0.00  0.00    +0.005 C 
ATOM     10  C   UNL     1       2.560   1.090   0.868  0.00  0.00    +0.005 C 
ATOM     11  C   UNL     1       2.567  -0.438   0.911  0.00  0.00    +0.037 C 
ATOM     12  C   UNL     1       1.815  -3.352   0.018  0.00  0.00    +0.268 A 
ATOM     13  O   UNL     1       3.014  -3.175   0.152  0.00  0.00    -0.267 OA
ATOM     14  N   UNL     1       1.304  -4.546  -0.364  0.00  0.00    -0.255 N 
ENDROOT
BRANCH  14  15
ATOM     15  C   UNL     1       2.189  -5.606  -0.608  0.00  0.00    +0.052 A 
ATOM     16  C   UNL     1       2.549  -6.462   0.424  0.00  0.00    +0.030 A 
ATOM     17  C   UNL     1       3.418  -7.508   0.181  0.00  0.00    +0.047 A 
ATOM     18  C   UNL     1       3.938  -7.697  -1.091  0.00  0.00    +0.120 A 
ATOM     19  C   UNL     1       3.583  -6.839  -2.121  0.00  0.00    +0.047 A 
ATOM     20  C   UNL     1       2.711  -5.796  -1.881  0.00  0.00    +0.030 A 
BRANCH  18  21
ATOM     21  O   UNL     1       4.798  -8.724  -1.327  0.00  0.00    -0.495 OA
ATOM     22  C   UNL     1       5.120  -9.569  -0.220  0.00  0.00    +0.277 C 
ENDBRANCH  18  21
ENDBRANCH  14  15
BRANCH   1  23
ATOM     23  S   UNL     1      -0.574  -6.365  -1.021  0.00  0.00    -0.078 S 
BRANCH  23  24
ATOM     24  C   UNL     1      -2.363  -6.092  -1.067  0.00  0.00    +0.173 C 
BRANCH  24  26
ATOM     25  N   UNL     1      -4.398  -7.398  -1.586  0.00  0.00    -0.297 N 
ATOM     26  C   UNL     1      -3.055  -7.364  -1.483  0.00  0.00    +0.224 C 
ATOM     27  O   UNL     1      -2.403  -8.358  -1.724  0.00  0.00    -0.275 OA
ATOM     28  H   UNL     1      -4.989  -6.497  -1.367  0.00  0.00    +0.150 HD
BRANCH  25  29
ATOM     29  C   UNL     1      -5.071  -8.635  -1.991  0.00  0.00    +0.121 C 
ATOM     30  C   UNL     1      -4.583  -9.050  -3.380  0.00  0.00    +0.048 C 
BRANCH  29  32
ATOM     31  C   UNL     1      -6.915  -7.386  -3.123  0.00  0.00    +0.010 C 
ATOM     32  C   UNL     1      -6.583  -8.404  -2.030  0.00  0.00    +0.020 C 
ATOM     33  C   UNL     1      -7.293  -9.725  -2.330  0.00  0.00    +0.010 C 
ENDBRANCH  29  32
BRANCH  29  34
ATOM     34  C   UNL     1      -4.762  -9.700  -1.023  0.00  0.00    +0.088 C 
ATOM     35  N   UNL     1      -4.524 -10.523  -0.277  0.00  0.00    -0.194 NA
ENDBRANCH  29  34
ENDBRANCH  25  29
ENDBRANCH  24  26
ENDBRANCH  23  24
ENDBRANCH   1  23
TORSDOF 8
