REMARK  Name = ZINC12105995
REMARK  10 active torsions:
REMARK  status: ('A' for Active; 'I' for Inactive)
REMARK    1  A    between atoms: C_1  and  C_2
REMARK    2  A    between atoms: C_2  and  C_4
REMARK    3  A    between atoms: C_2  and  S_17
REMARK    4  A    between atoms: N_6  and  C_7
REMARK    5  A    between atoms: C_12  and  O_13
REMARK    6  A    between atoms: O_13  and  C_14
REMARK    7  A    between atoms: S_17  and  C_18
REMARK    8  A    between atoms: C_21  and  C_29
REMARK    9  A    between atoms: N_22  and  C_23
REMARK   10  A    between atoms: C_29  and  C_30
REMARK                            x       y       z     vdW  Elec       q    Type
REMARK                         _______ _______ _______ _____ _____    ______ ____
ROOT
ATOM      1  C   UNL     1      -3.229  -0.211   3.396  0.00  0.00    +0.197 A 
ATOM      2  N   UNL     1      -3.879   0.927   3.320  0.00  0.00    -0.122 NA
ATOM      3  N   UNL     1      -3.720   1.445   2.154  0.00  0.00    -0.133 NA
ATOM      4  C   UNL     1      -2.966   0.676   1.421  0.00  0.00    +0.143 A 
ATOM      5  N   UNL     1      -2.629  -0.411   2.183  0.00  0.00    -0.274 N 
ENDROOT
BRANCH   5   6
ATOM      6  C   UNL     1      -1.832  -1.500   1.802  0.00  0.00    +0.050 A 
ATOM      7  C   UNL     1      -2.264  -2.360   0.801  0.00  0.00    +0.026 A 
ATOM      8  C   UNL     1      -1.474  -3.429   0.423  0.00  0.00    +0.002 A 
ATOM      9  C   UNL     1      -0.260  -3.649   1.049  0.00  0.00    +0.000 A 
ATOM     10  C   UNL     1       0.170  -2.796   2.049  0.00  0.00    +0.002 A 
ATOM     11  C   UNL     1      -0.613  -1.723   2.427  0.00  0.00    +0.026 A 
ENDBRANCH   5   6
BRANCH   1  12
ATOM     12  S   UNL     1      -3.151  -1.281   4.794  0.00  0.00    -0.073 S 
BRANCH  12  14
ATOM     13  C   UNL     1      -3.494   0.977   6.293  0.00  0.00    +0.029 C 
ATOM     14  C   UNL     1      -4.177  -0.351   5.960  0.00  0.00    +0.137 C 
BRANCH  14  15
ATOM     15  C   UNL     1      -4.357  -1.155   7.222  0.00  0.00    +0.230 C 
ATOM     16  O   UNL     1      -3.533  -1.989   7.532  0.00  0.00    -0.274 OA
ATOM     17  N   UNL     1      -5.434  -0.946   8.005  0.00  0.00    -0.282 N 
ATOM     18  H   UNL     1      -6.050  -0.226   7.801  0.00  0.00    +0.155 HD
BRANCH  17  19
ATOM     19  C   UNL     1      -5.662  -1.770   9.116  0.00  0.00    +0.076 A 
ATOM     20  C   UNL     1      -5.143  -3.056   9.146  0.00  0.00    +0.027 A 
ATOM     21  C   UNL     1      -5.366  -3.865  10.244  0.00  0.00    +0.002 A 
ATOM     22  C   UNL     1      -6.114  -3.400  11.309  0.00  0.00    +0.004 A 
ATOM     23  C   UNL     1      -6.638  -2.121  11.284  0.00  0.00    +0.048 A 
ATOM     24  C   UNL     1      -6.416  -1.302  10.189  0.00  0.00    +0.148 A 
BRANCH  24  25
ATOM     25  O   UNL     1      -6.932  -0.044  10.163  0.00  0.00    -0.432 OA
BRANCH  25  26
ATOM     26  C   UNL     1      -7.694   0.368  11.299  0.00  0.00    +0.541 C 
ATOM     27  F   UNL     1      -8.791  -0.485  11.459  0.00  0.00    -0.166 F 
ATOM     28  F   UNL     1      -6.891   0.315  12.444  0.00  0.00    -0.166 F 
ENDBRANCH  25  26
ENDBRANCH  24  25
ENDBRANCH  17  19
ENDBRANCH  14  15
ENDBRANCH  12  14
ENDBRANCH   1  12
BRANCH   4  29
ATOM     29  C   UNL     1      -2.546   0.932  -0.004  0.00  0.00    +0.111 C 
BRANCH  29  30
ATOM     30  C   UNL     1      -1.254   1.707  -0.015  0.00  0.00    -0.040 A 
ATOM     31  C   UNL     1      -0.045   1.035  -0.024  0.00  0.00    +0.004 A 
ATOM     32  C   UNL     1       1.140   1.746  -0.041  0.00  0.00    +0.000 A 
ATOM     33  C   UNL     1       1.118   3.128  -0.043  0.00  0.00    +0.000 A 
ATOM     34  C   UNL     1      -0.090   3.800  -0.029  0.00  0.00    +0.000 A 
ATOM     35  C   UNL     1      -1.276   3.089  -0.012  0.00  0.00    +0.004 A 
ENDBRANCH  29  30
ENDBRANCH   4  29
TORSDOF 9
