REMARK  Name = ZINC40402928
REMARK  11 active torsions:
REMARK  status: ('A' for Active; 'I' for Inactive)
REMARK    1  A    between atoms: C_1  and  C_2
REMARK    2  A    between atoms: C_5  and  N_9
REMARK    3  A    between atoms: C_7  and  C_8
REMARK    4  A    between atoms: N_12  and  C_24
REMARK    5  A    between atoms: C_15  and  C_17
REMARK    6  A    between atoms: N_19  and  C_20
REMARK    7  A    between atoms: C_20  and  C_21
REMARK    8  A    between atoms: C_21  and  C_22
REMARK    9  A    between atoms: C_21  and  C_23
REMARK   10  A    between atoms: C_24  and  C_25
REMARK   11  A    between atoms: C_28  and  C_31
REMARK                            x       y       z     vdW  Elec       q    Type
REMARK                         _______ _______ _______ _____ _____    ______ ____
ROOT
ATOM      1  N   UNL     1       0.057  -4.170  -0.021  0.00  0.00    -0.181 N 
ATOM      2  C   UNL     1      -0.038  -4.809  -1.198  0.00  0.00    +0.353 A 
ATOM      3  O   UNL     1      -0.136  -4.161  -2.221  0.00  0.00    -0.244 OA
ATOM      4  N   UNL     1      -0.026  -6.155  -1.265  0.00  0.00    -0.253 N 
ATOM      5  C   UNL     1       0.085  -6.862  -0.116  0.00  0.00    +0.288 A 
ATOM      6  O   UNL     1       0.101  -8.078  -0.124  0.00  0.00    -0.265 OA
ATOM      7  C   UNL     1       0.186  -6.106   1.147  0.00  0.00    +0.210 A 
ATOM      8  N   UNL     1       0.169  -4.791   1.098  0.00  0.00    -0.152 NA
ENDROOT
BRANCH   1  13
ATOM      9  C   UNL     1      -0.015   1.503   0.008  0.00  0.00    +0.044 C 
ATOM     10  C   UNL     1       0.004  -0.004   0.001  0.00  0.00    -0.047 A 
ATOM     11  C   UNL     1       0.987  -0.685   0.696  0.00  0.00    +0.006 A 
ATOM     12  C   UNL     1       1.008  -2.066   0.690  0.00  0.00    +0.028 A 
ATOM     13  C   UNL     1       0.039  -2.771  -0.013  0.00  0.00    +0.071 A 
ATOM     14  C   UNL     1      -0.947  -2.084  -0.709  0.00  0.00    +0.031 A 
ATOM     15  C   UNL     1      -0.965  -0.703  -0.696  0.00  0.00    -0.046 A 
ATOM     16  C   UNL     1      -2.038   0.044  -1.446  0.00  0.00    +0.044 C 
ENDBRANCH   1  13
BRANCH   7  17
ATOM     17  C   UNL     1       0.309  -6.809   2.437  0.00  0.00    +0.270 C 
ATOM     18  O   UNL     1       0.328  -8.024   2.468  0.00  0.00    -0.268 OA
ATOM     19  N   UNL     1       0.400  -6.104   3.582  0.00  0.00    -0.310 N 
ATOM     20  H   UNL     1       0.385  -5.135   3.558  0.00  0.00    +0.149 HD
BRANCH  19  21
ATOM     21  C   UNL     1       0.522  -6.803   4.864  0.00  0.00    +0.107 C 
BRANCH  21  22
ATOM     22  C   UNL     1       0.608  -5.778   5.997  0.00  0.00    -0.000 C 
ATOM     23  C   UNL     1      -0.707  -5.001   6.083  0.00  0.00    +0.009 C 
ATOM     24  C   UNL     1       0.860  -6.502   7.321  0.00  0.00    +0.009 C 
ENDBRANCH  21  22
ENDBRANCH  19  21
ENDBRANCH   7  17
BRANCH   4  25
ATOM     25  C   UNL     1      -0.131  -6.840  -2.556  0.00  0.00    +0.165 C 
BRANCH  25  26
ATOM     26  C   UNL     1       1.249  -7.055  -3.124  0.00  0.00    -0.027 A 
ATOM     27  C   UNL     1       1.820  -6.093  -3.936  0.00  0.00    +0.006 A 
ATOM     28  C   UNL     1       3.085  -6.291  -4.456  0.00  0.00    +0.013 A 
ATOM     29  C   UNL     1       3.779  -7.451  -4.165  0.00  0.00    +0.055 A 
ATOM     30  C   UNL     1       3.208  -8.412  -3.352  0.00  0.00    +0.013 A 
ATOM     31  C   UNL     1       1.944  -8.213  -2.828  0.00  0.00    +0.006 A 
BRANCH  29  32
ATOM     32  C   UNL     1       5.158  -7.667  -4.733  0.00  0.00    +0.417 C 
ATOM     33  F   UNL     1       6.113  -7.152  -3.850  0.00  0.00    -0.166 F 
ATOM     34  F   UNL     1       5.379  -9.037  -4.912  0.00  0.00    -0.166 F 
ATOM     35  F   UNL     1       5.262  -7.013  -5.966  0.00  0.00    -0.166 F 
ENDBRANCH  29  32
ENDBRANCH  25  26
ENDBRANCH   4  25
TORSDOF 7
