REMARK  Name = ZINC00132072
REMARK  3 active torsions:
REMARK  status: ('A' for Active; 'I' for Inactive)
REMARK    1  A    between atoms: C_1  and  C_2
REMARK    2  A    between atoms: C_6  and  N_9
REMARK    3  A    between atoms: C_7  and  C_8
REMARK                            x       y       z     vdW  Elec       q    Type
REMARK                         _______ _______ _______ _____ _____    ______ ____
ROOT
ATOM      1  N   UNL     1      -2.456   3.823   0.045  0.00  0.00    -0.214 N 
ATOM      2  C   UNL     1      -3.171   4.121  -1.047  0.00  0.00    +0.153 C 
ATOM      3  S   UNL     1      -2.703   3.712  -2.642  0.00  0.00    -0.017 S 
ATOM      4  N   UNL     1      -4.303   4.776  -0.737  0.00  0.00    -0.306 N 
ATOM      5  C   UNL     1      -4.322   4.936   0.730  0.00  0.00    +0.101 C 
ATOM      6  N   UNL     1      -3.070   4.281   1.174  0.00  0.00    -0.211 NA
ATOM      7  C   UNL     1      -4.199   6.445   1.040  0.00  0.00    +0.043 C 
ATOM      8  C   UNL     1      -5.124   7.204   0.130  0.00  0.00    +0.003 C 
ATOM      9  C   UNL     1      -6.498   7.477   0.774  0.00  0.00    +0.000 C 
ATOM     10  C   UNL     1      -7.045   6.265   1.552  0.00  0.00    +0.000 C 
ATOM     11  C   UNL     1      -6.817   4.968   0.824  0.00  0.00    +0.003 C 
ATOM     12  C   UNL     1      -5.507   4.343   1.340  0.00  0.00    +0.043 C 
ATOM     13  H   UNL     1      -4.977   5.088  -1.360  0.00  0.00    +0.150 HD
ATOM     14  H   UNL     1      -2.478   4.930   1.669  0.00  0.00    +0.147 HD
ENDROOT
BRANCH   1  20
ATOM     15  C   UNL     1       2.459   3.932  -0.000  0.00  0.00    +0.044 C 
ATOM     16  C   UNL     1       1.161   3.166   0.008  0.00  0.00    -0.046 A 
ATOM     17  C   UNL     1       1.176   1.783   0.000  0.00  0.00    +0.004 A 
ATOM     18  C   UNL     1      -0.013   1.076   0.008  0.00  0.00    +0.002 A 
ATOM     19  C   UNL     1      -1.218   1.749   0.017  0.00  0.00    +0.025 A 
ATOM     20  C   UNL     1      -1.236   3.138   0.030  0.00  0.00    +0.055 A 
ATOM     21  C   UNL     1      -0.041   3.845   0.023  0.00  0.00    -0.025 A 
ATOM     22  C   UNL     1      -0.056   5.352   0.031  0.00  0.00    +0.046 C 
ENDBRANCH   1  20
TORSDOF 1
