REMARK  Name = ZINC33270594
REMARK  5 active torsions:
REMARK  status: ('A' for Active; 'I' for Inactive)
REMARK    1  A    between atoms: C_1  and  C_2
REMARK    2  A    between atoms: C_2  and  C_3
REMARK    3  A    between atoms: C_4  and  C_9
REMARK    4  A    between atoms: C_5  and  C_8
REMARK    5  A    between atoms: N_17  and  C_18
REMARK                            x       y       z     vdW  Elec       q    Type
REMARK                         _______ _______ _______ _____ _____    ______ ____
ROOT
ATOM      1  C   UNL     1      -3.693   1.522   0.028  0.00  0.00    +0.113 C 
ATOM      2  C   UNL     1      -4.702   0.355   0.053  0.00  0.00    +0.029 C 
ATOM      3  C   UNL     1      -3.863  -0.818   0.627  0.00  0.00    +0.021 C 
ATOM      4  C   UNL     1      -2.470  -0.535   0.004  0.00  0.00    +0.110 C 
ATOM      5  N   UNL     1      -2.345   0.934   0.018  0.00  0.00    -0.278 N 
ATOM      6  C   UNL     1      -1.187   1.624   0.017  0.00  0.00    +0.303 C 
ATOM      7  O   UNL     1      -1.204   2.840   0.023  0.00  0.00    -0.253 OA
ATOM      8  N   UNL     1      -0.011   0.966   0.007  0.00  0.00    -0.296 N 
ATOM      9  H   UNL     1       0.004  -0.134   0.006  0.00  0.00    +0.151 HD
ENDROOT
BRANCH   1  11
ATOM     10  C   UNL     1      -4.444   3.588  -1.309  0.00  0.00    +0.142 A 
ATOM     11  C   UNL     1      -3.899   2.352  -1.213  0.00  0.00    +0.038 A 
ATOM     12  C   UNL     1      -3.562   2.022  -2.546  0.00  0.00    +0.086 A 
ATOM     13  N   UNL     1      -3.926   3.035  -3.278  0.00  0.00    -0.083 NA
ATOM     14  O   UNL     1      -4.415   3.916  -2.609  0.00  0.00    -0.359 OA
ATOM     15  C   UNL     1      -2.914   0.749  -3.026  0.00  0.00    +0.069 C 
BRANCH  10  17
ATOM     16  C   UNL     1      -3.854   5.302   0.382  0.00  0.00    +0.012 C 
ATOM     17  C   UNL     1      -4.978   4.429  -0.179  0.00  0.00    +0.074 C 
ENDBRANCH  10  17
ENDBRANCH   1  11
BRANCH   8  18
ATOM     18  C   UNL     1       1.248   1.716  -0.001  0.00  0.00    +0.074 C 
ATOM     19  C   UNL     1       1.608   2.092  -1.439  0.00  0.00    +0.022 C 
ATOM     20  C   UNL     1       2.922   2.875  -1.448  0.00  0.00    +0.002 C 
ATOM     21  C   UNL     1       4.035   2.010  -0.853  0.00  0.00    +0.000 C 
ATOM     22  C   UNL     1       3.675   1.633   0.585  0.00  0.00    +0.002 C 
ATOM     23  C   UNL     1       2.361   0.850   0.594  0.00  0.00    +0.022 C 
ENDBRANCH   8  18
TORSDOF 3
