REMARK  Name = ZINC09433691
REMARK  9 active torsions:
REMARK  status: ('A' for Active; 'I' for Inactive)
REMARK    1  A    between atoms: C_7  and  C_24
REMARK    2  A    between atoms: C_9  and  C_19
REMARK    3  A    between atoms: N_11  and  C_14
REMARK    4  A    between atoms: N_26  and  C_27
REMARK    5  A    between atoms: C_27  and  C_28
REMARK    6  A    between atoms: C_28  and  N_75
REMARK    7  A    between atoms: C_29  and  C_30
REMARK    8  A    between atoms: C_29  and  N_75
REMARK    9  A    between atoms: C_35  and  N_75
REMARK                            x       y       z     vdW  Elec       q    Type
REMARK                         _______ _______ _______ _____ _____    ______ ____
ROOT
ATOM      1  C   UNL     1      -4.406   8.263  -1.140  0.00  0.00    +0.000 A 
ATOM      2  C   UNL     1      -5.349   8.126  -0.136  0.00  0.00    +0.001 A 
ATOM      3  C   UNL     1      -5.347   7.004   0.668  0.00  0.00    +0.013 A 
ATOM      4  C   UNL     1      -4.391   6.011   0.463  0.00  0.00    +0.041 A 
ATOM      5  C   UNL     1      -3.449   6.149  -0.557  0.00  0.00    -0.021 A 
ATOM      6  C   UNL     1      -3.457   7.277  -1.350  0.00  0.00    +0.005 A 
ATOM      7  C   UNL     1      -2.437   5.058  -0.785  0.00  0.00    +0.131 C 
ATOM      8  C   UNL     1      -2.074   4.393   0.540  0.00  0.00    +0.130 C 
ATOM      9  N   UNL     1      -3.274   4.001   1.275  0.00  0.00    -0.286 N 
ATOM     10  C   UNL     1      -4.355   4.803   1.315  0.00  0.00    +0.248 C 
ATOM     11  O   UNL     1      -5.291   4.538   2.045  0.00  0.00    -0.270 OA
ENDROOT
BRANCH   9  12
ATOM     12  C   UNL     1      -3.303   2.716   1.979  0.00  0.00    +0.077 C 
ATOM     13  C   UNL     1      -4.483   1.862   1.473  0.00  0.00    +0.022 C 
ATOM     14  C   UNL     1      -4.999   1.137   2.741  0.00  0.00    +0.002 C 
ATOM     15  C   UNL     1      -4.854   2.221   3.837  0.00  0.00    +0.002 C 
ATOM     16  C   UNL     1      -3.538   2.945   3.483  0.00  0.00    +0.022 C 
ENDBRANCH   9  12
BRANCH   8  17
ATOM     17  C   UNL     1      -1.239   3.168   0.267  0.00  0.00    +0.011 A 
ATOM     18  C   UNL     1       0.090   2.982   0.454  0.00  0.00    +0.013 A 
ATOM     19  C   UNL     1       0.649   1.759   0.130  0.00  0.00    +0.008 A 
ATOM     20  C   UNL     1      -0.150   0.783  -0.367  0.00  0.00    +0.045 A 
ATOM     21  S   UNL     1      -1.744   1.588  -0.394  0.00  0.00    -0.100 S 
ENDBRANCH   8  17
BRANCH   7  22
ATOM     22  C   UNL     1      -3.015   4.027  -1.719  0.00  0.00    +0.223 C 
ATOM     23  O   UNL     1      -3.816   3.215  -1.306  0.00  0.00    -0.275 OA
ATOM     24  N   UNL     1      -2.644   4.007  -3.015  0.00  0.00    -0.317 N 
ATOM     25  H   UNL     1      -2.004   4.657  -3.345  0.00  0.00    +0.149 HD
BRANCH  24  26
ATOM     26  C   UNL     1      -3.207   3.005  -3.923  0.00  0.00    +0.086 C 
BRANCH  26  27
ATOM     27  C   UNL     1      -2.624   3.202  -5.324  0.00  0.00    -0.059 C 
BRANCH  27  28
ATOM     28  N   UNL     1      -3.307   2.284  -6.260  0.00  0.00    +0.387 N 
ATOM     29  H   UNL     1      -4.315   2.474  -6.237  0.00  0.00    -0.081 HD
BRANCH  28  30
ATOM     30  C   UNL     1      -3.072   0.882  -5.854  0.00  0.00    -0.068 C 
ATOM     31  C   UNL     1      -4.015   0.527  -4.686  0.00  0.00    -0.015 C 
ATOM     32  C   UNL     1      -3.167  -0.406  -3.785  0.00  0.00    -0.002 C 
ATOM     33  C   UNL     1      -1.756   0.226  -3.869  0.00  0.00    -0.002 C 
ATOM     34  C   UNL     1      -1.636   0.691  -5.336  0.00  0.00    -0.015 C 
ENDBRANCH  28  30
BRANCH  28  35
ATOM     35  C   UNL     1      -2.809   2.502  -7.634  0.00  0.00    -0.003 C 
BRANCH  35  36
ATOM     36  C   UNL     1      -3.721   1.790  -8.599  0.00  0.00    +0.089 A 
ATOM     37  C   UNL     1      -4.785   2.329  -9.220  0.00  0.00    +0.042 A 
ATOM     38  C   UNL     1      -5.346   1.314 -10.029  0.00  0.00    +0.041 A 
ATOM     39  C   UNL     1      -4.595   0.213  -9.848  0.00  0.00    +0.195 A 
ATOM     40  O   UNL     1      -3.612   0.507  -8.981  0.00  0.00    -0.470 OA
ENDBRANCH  35  36
ENDBRANCH  28  35
ENDBRANCH  27  28
ENDBRANCH  26  27
ENDBRANCH  24  26
ENDBRANCH   7  22
TORSDOF 9
