REMARK  Name = ZINC20885397
REMARK  15 active torsions:
REMARK  status: ('A' for Active; 'I' for Inactive)
REMARK    1  A    between atoms: C_1  and  C_2
REMARK    2  A    between atoms: C_2  and  O_3
REMARK    3  A    between atoms: O_3  and  C_4
REMARK    4  A    between atoms: C_6  and  C_14
REMARK    5  A    between atoms: C_9  and  O_10
REMARK    6  A    between atoms: O_10  and  C_11
REMARK    7  A    between atoms: C_11  and  C_12
REMARK    8  A    between atoms: C_11  and  C_13
REMARK    9  A    between atoms: C_25  and  C_28
REMARK   10  A    between atoms: C_31  and  O_36
REMARK   11  A    between atoms: C_32  and  O_34
REMARK   12  A    between atoms: O_34  and  C_35
REMARK   13  A    between atoms: O_36  and  C_37
REMARK   14  A    between atoms: C_37  and  C_38
REMARK   15  A    between atoms: C_37  and  C_39
REMARK                            x       y       z     vdW  Elec       q    Type
REMARK                         _______ _______ _______ _____ _____    ______ ____
ROOT
ATOM      1  C   UNL     1       0.001  -1.360   3.757  0.00  0.00    +0.063 C 
ATOM      2  C   UNL     1       0.848  -1.825   2.572  0.00  0.00    +0.109 C 
ATOM      3  C   UNL     1       0.445  -1.053   1.342  0.00  0.00    +0.218 C 
ATOM      4  O   UNL     1       0.479  -1.586   0.254  0.00  0.00    -0.275 OA
ATOM      5  N   UNL     1       0.048   0.227   1.450  0.00  0.00    -0.289 N 
ATOM      6  C   UNL     1       0.025   0.864   2.664  0.00  0.00    +0.018 C 
ATOM      7  C   UNL     1      -0.002   0.150   3.810  0.00  0.00    +0.020 C 
ATOM      8  C   UNL     1      -0.032   0.780   5.064  0.00  0.00    +0.162 C 
ATOM      9  O   UNL     1      -0.042   0.104   6.074  0.00  0.00    -0.292 OA
ATOM     10  C   UNL     1      -0.051   2.281   5.178  0.00  0.00    +0.088 C 
ATOM     11  C   UNL     1      -0.721   2.866   3.930  0.00  0.00    +0.032 C 
ATOM     12  C   UNL     1       0.034   2.372   2.694  0.00  0.00    +0.059 C 
ATOM     13  H   UNL     1      -0.266   0.783   0.553  0.00  0.00    +0.155 HD
ENDROOT
BRANCH   1  16
ATOM     14  C   UNL     1      -3.265  -3.148   4.397  0.00  0.00    +0.162 A 
ATOM     15  C   UNL     1      -1.965  -2.693   4.545  0.00  0.00    +0.053 A 
ATOM     16  C   UNL     1      -1.412  -1.858   3.592  0.00  0.00    -0.036 A 
ATOM     17  C   UNL     1      -2.151  -1.483   2.485  0.00  0.00    +0.008 A 
ATOM     18  C   UNL     1      -3.447  -1.937   2.329  0.00  0.00    +0.050 A 
ATOM     19  C   UNL     1      -4.009  -2.770   3.283  0.00  0.00    +0.162 A 
BRANCH  14  20
ATOM     20  O   UNL     1      -3.812  -3.966   5.335  0.00  0.00    -0.489 OA
BRANCH  20  22
ATOM     21  C   UNL     1      -3.771  -5.232   7.394  0.00  0.00    +0.048 C 
ATOM     22  C   UNL     1      -2.990  -4.313   6.452  0.00  0.00    +0.226 C 
ENDBRANCH  20  22
ENDBRANCH  14  20
BRANCH  19  23
ATOM     23  O   UNL     1      -5.284  -3.218   3.131  0.00  0.00    -0.486 OA
BRANCH  23  24
ATOM     24  C   UNL     1      -5.945  -2.889   1.907  0.00  0.00    +0.167 C 
ATOM     25  C   UNL     1      -7.046  -3.916   1.631  0.00  0.00    +0.051 C 
ATOM     26  C   UNL     1      -6.565  -1.495   2.021  0.00  0.00    +0.051 C 
ENDBRANCH  23  24
ENDBRANCH  19  23
ENDBRANCH   1  16
BRANCH  11  27
ATOM     27  C   UNL     1      -0.668   4.371   3.986  0.00  0.00    -0.040 A 
ATOM     28  C   UNL     1       0.552   5.017   4.060  0.00  0.00    +0.008 A 
ATOM     29  C   UNL     1       0.605   6.397   4.112  0.00  0.00    +0.050 A 
ATOM     30  C   UNL     1      -0.566   7.137   4.089  0.00  0.00    +0.162 A 
ATOM     31  C   UNL     1      -1.795   6.487   4.014  0.00  0.00    +0.162 A 
ATOM     32  C   UNL     1      -1.841   5.103   3.958  0.00  0.00    +0.053 A 
BRANCH  31  33
ATOM     33  O   UNL     1      -2.947   7.209   3.991  0.00  0.00    -0.491 OA
ATOM     34  C   UNL     1      -4.171   6.475   3.913  0.00  0.00    +0.277 C 
ENDBRANCH  31  33
BRANCH  30  35
ATOM     35  O   UNL     1      -0.516   8.495   4.139  0.00  0.00    -0.486 OA
BRANCH  35  36
ATOM     36  C   UNL     1       0.779   9.098   4.097  0.00  0.00    +0.167 C 
ATOM     37  C   UNL     1       0.663  10.517   3.538  0.00  0.00    +0.051 C 
ATOM     38  C   UNL     1       1.362   9.153   5.511  0.00  0.00    +0.051 C 
ENDBRANCH  35  36
ENDBRANCH  30  35
ENDBRANCH  11  27
TORSDOF 9
