REMARK  Name = ZINC25323972
REMARK  9 active torsions:
REMARK  status: ('A' for Active; 'I' for Inactive)
REMARK    1  A    between atoms: C_1  and  C_2
REMARK    2  A    between atoms: C_2  and  C_3
REMARK    3  A    between atoms: C_2  and  C_4
REMARK    4  A    between atoms: C_10  and  C_12
REMARK    5  A    between atoms: C_12  and  C_14
REMARK    6  A    between atoms: C_12  and  N_17
REMARK    7  A    between atoms: C_14  and  C_15
REMARK    8  A    between atoms: C_14  and  C_16
REMARK    9  A    between atoms: C_18  and  C_20
REMARK                            x       y       z     vdW  Elec       q    Type
REMARK                         _______ _______ _______ _____ _____    ______ ____
ROOT
ATOM      1  C   UNL     1      -2.132   7.259  -0.950  0.00  0.00    +0.162 C 
ENDROOT
BRANCH   1   8
ATOM      2  C   UNL     1      -2.693  10.784  -6.221  0.00  0.00    +0.106 A 
ATOM      3  N   UNL     1      -2.668   9.468  -6.148  0.00  0.00    -0.144 NA
ATOM      4  N   UNL     1      -2.552   8.887  -5.034  0.00  0.00    -0.126 NA
ATOM      5  C   UNL     1      -2.451   9.562  -3.901  0.00  0.00    +0.188 A 
ATOM      6  S   UNL     1      -2.538  11.197  -4.487  0.00  0.00    -0.035 S 
ATOM      7  N   UNL     1      -2.318   9.093  -2.599  0.00  0.00    -0.262 N 
ATOM      8  C   UNL     1      -2.276   7.767  -2.361  0.00  0.00    +0.239 C 
ATOM      9  O   UNL     1      -2.355   6.983  -3.283  0.00  0.00    -0.273 OA
ATOM     10  H   UNL     1      -2.247   9.804  -1.763  0.00  0.00    +0.157 HD
BRANCH   2  12
ATOM     11  C   UNL     1      -1.656  11.428  -8.379  0.00  0.00    +0.014 C 
ATOM     12  C   UNL     1      -2.822  11.684  -7.422  0.00  0.00    +0.040 C 
ATOM     13  C   UNL     1      -4.143  11.393  -8.138  0.00  0.00    +0.014 C 
ENDBRANCH   2  12
ENDBRANCH   1   8
BRANCH   1  14
ATOM     14  N   UNL     1      -2.112   5.794  -0.958  0.00  0.00    -0.303 N 
ATOM     15  C   UNL     1      -1.510   5.123   0.044  0.00  0.00    +0.220 C 
ATOM     16  O   UNL     1      -0.985   5.731   0.952  0.00  0.00    -0.275 OA
ATOM     17  H   UNL     1      -2.589   5.242  -1.781  0.00  0.00    +0.149 HD
BRANCH  15  18
ATOM     18  C   UNL     1      -1.490   3.616   0.036  0.00  0.00    +0.048 C 
ATOM     19  C   UNL     1      -0.773   3.123  -1.223  0.00  0.00    +0.019 C 
ATOM     20  C   UNL     1      -0.753   1.593  -1.232  0.00  0.00    -0.009 C 
ATOM     21  C   UNL     1      -0.013   1.086   0.008  0.00  0.00    +0.007 C 
ATOM     22  C   UNL     1      -0.729   1.579   1.267  0.00  0.00    -0.009 C 
ATOM     23  C   UNL     1      -0.750   3.109   1.275  0.00  0.00    +0.019 C 
ATOM     24  C   UNL     1      -2.164   1.050   1.278  0.00  0.00    +0.007 C 
ATOM     25  C   UNL     1      -2.904   1.556   0.038  0.00  0.00    -0.009 C 
ATOM     26  C   UNL     1      -2.188   1.063  -1.221  0.00  0.00    +0.007 C 
ATOM     27  C   UNL     1      -2.925   3.086   0.047  0.00  0.00    +0.019 C 
ENDBRANCH  15  18
ENDBRANCH   1  14
BRANCH   1  28
ATOM     28  C   UNL     1      -3.313   7.748  -0.108  0.00  0.00    +0.012 C 
ATOM     29  C   UNL     1      -4.607   7.123  -0.633  0.00  0.00    +0.009 C 
ATOM     30  C   UNL     1      -3.104   7.338   1.351  0.00  0.00    +0.009 C 
ENDBRANCH   1  28
TORSDOF 5
