REMARK  Name = ZINC39936804
REMARK  7 active torsions:
REMARK  status: ('A' for Active; 'I' for Inactive)
REMARK    1  A    between atoms: C_7  and  C_10
REMARK    2  A    between atoms: C_13  and  S_19
REMARK    3  A    between atoms: N_15  and  C_16
REMARK    4  A    between atoms: S_19  and  C_20
REMARK    5  A    between atoms: C_20  and  C_21
REMARK    6  A    between atoms: N_23  and  C_24
REMARK    7  A    between atoms: C_27  and  N_30
REMARK                            x       y       z     vdW  Elec       q    Type
REMARK                         _______ _______ _______ _____ _____    ______ ____
ROOT
ATOM      1  C   UNL     1       0.447  -3.207  -0.131  0.00  0.00    +0.147 C 
ATOM      2  N   UNL     1      -0.747  -3.063   0.378  0.00  0.00    -0.169 NA
ATOM      3  N   UNL     1      -1.489  -4.245   0.279  0.00  0.00    -0.237 N 
ATOM      4  C   UNL     1      -0.618  -5.231  -0.381  0.00  0.00    +0.237 C 
ATOM      5  N   UNL     1       0.634  -4.498  -0.632  0.00  0.00    -0.282 N 
ATOM      6  H   UNL     1      -2.399  -4.387   0.584  0.00  0.00    +0.171 HD
ENDROOT
BRANCH   1  13
ATOM      7  C   UNL     1       0.518   0.999   1.567  0.00  0.00    +0.001 A 
ATOM      8  C   UNL     1       1.698   1.693   1.292  0.00  0.00    +0.002 A 
ATOM      9  C   UNL     1       2.708   1.134   0.581  0.00  0.00    +0.026 A 
ATOM     10  C   UNL     1       2.578  -0.194   0.097  0.00  0.00    +0.043 A 
ATOM     11  N   UNL     1       3.400  -0.950  -0.605  0.00  0.00    -0.380 N 
ATOM     12  C   UNL     1       2.773  -2.254  -0.843  0.00  0.00    +0.152 C 
ATOM     13  C   UNL     1       1.417  -2.194  -0.175  0.00  0.00    +0.022 C 
ATOM     14  C   UNL     1       1.333  -0.921   0.390  0.00  0.00    +0.006 A 
ATOM     15  C   UNL     1       0.324  -0.274   1.135  0.00  0.00    +0.010 A 
ATOM     16  H   UNL     1       4.280  -0.685  -0.915  0.00  0.00    +0.160 HD
ENDBRANCH   1  13
BRANCH   5  17
ATOM     17  C   UNL     1       1.840  -5.021  -1.279  0.00  0.00    +0.078 C 
ATOM     18  C   UNL     1       1.786  -6.448  -1.828  0.00  0.00    +0.024 C 
ATOM     19  C   UNL     1       2.594  -6.144  -0.565  0.00  0.00    +0.024 C 
ENDBRANCH   5  17
BRANCH   4  20
ATOM     20  S   UNL     1      -0.325  -6.650   0.710  0.00  0.00    -0.109 S 
BRANCH  20  21
ATOM     21  C   UNL     1       0.428  -5.918   2.189  0.00  0.00    +0.168 C 
BRANCH  21  22
ATOM     22  C   UNL     1       0.726  -7.004   3.191  0.00  0.00    +0.227 C 
ATOM     23  O   UNL     1       0.456  -8.158   2.933  0.00  0.00    -0.275 OA
ATOM     24  N   UNL     1       1.292  -6.693   4.374  0.00  0.00    -0.285 N 
ATOM     25  H   UNL     1       1.439  -5.764   4.611  0.00  0.00    +0.155 HD
BRANCH  24  26
ATOM     26  C   UNL     1       1.667  -7.711   5.260  0.00  0.00    +0.034 A 
ATOM     27  C   UNL     1       1.569  -7.509   6.630  0.00  0.00    +0.025 A 
ATOM     28  C   UNL     1       1.939  -8.512   7.504  0.00  0.00    +0.025 A 
ATOM     29  C   UNL     1       2.410  -9.723   7.012  0.00  0.00    +0.036 A 
ATOM     30  C   UNL     1       2.509  -9.924   5.641  0.00  0.00    +0.025 A 
ATOM     31  C   UNL     1       2.133  -8.923   4.768  0.00  0.00    +0.025 A 
BRANCH  29  32
ATOM     32  N   UNL     1       2.786 -10.740   7.898  0.00  0.00    -0.271 N 
ATOM     33  C   UNL     1       3.413 -12.003   7.491  0.00  0.00    +0.114 C 
ATOM     34  C   UNL     1       4.030 -12.591   8.779  0.00  0.00    +0.029 C 
ATOM     35  C   UNL     1       3.145 -11.950   9.873  0.00  0.00    +0.098 C 
ATOM     36  C   UNL     1       2.623 -10.683   9.231  0.00  0.00    +0.220 C 
ATOM     37  O   UNL     1       2.128  -9.753   9.831  0.00  0.00    -0.275 OA
ENDBRANCH  29  32
ENDBRANCH  24  26
ENDBRANCH  21  22
ENDBRANCH  20  21
ENDBRANCH   4  20
TORSDOF 7
