REMARK  Name = ZINC13039470
REMARK  7 active torsions:
REMARK  status: ('A' for Active; 'I' for Inactive)
REMARK    1  A    between atoms: C_1  and  C_2
REMARK    2  A    between atoms: C_7  and  C_8
REMARK    3  A    between atoms: C_7  and  N_61
REMARK    4  A    between atoms: N_20  and  C_21
REMARK    5  A    between atoms: C_21  and  C_22
REMARK    6  A    between atoms: C_25  and  S_28
REMARK    7  A    between atoms: S_28  and  N_31
REMARK                            x       y       z     vdW  Elec       q    Type
REMARK                         _______ _______ _______ _____ _____    ______ ____
ROOT
ATOM      1  C   UNL     1       0.002  -0.004   0.002  0.00  0.00    +0.116 A 
ATOM      2  N   UNL     1       1.137  -0.680  -0.012  0.00  0.00    -0.219 NA
ATOM      3  C   UNL     1       2.316  -0.077  -0.020  0.00  0.00    +0.131 A 
ATOM      4  C   UNL     1       2.363   1.345  -0.013  0.00  0.00    +0.051 A 
ATOM      5  C   UNL     1       3.545   2.221  -0.021  0.00  0.00    -0.025 A 
ATOM      6  C   UNL     1       3.320   3.545  -0.009  0.00  0.00    -0.004 A 
ATOM      7  S   UNL     1       1.549   3.712   0.008  0.00  0.00    -0.073 S 
ATOM      8  C   UNL     1       1.115   1.994   0.002  0.00  0.00    +0.114 A 
ATOM      9  N   UNL     1      -0.016   1.315   0.009  0.00  0.00    -0.227 NA
ATOM     10  C   UNL     1       4.598   4.339  -0.014  0.00  0.00    +0.043 C 
ATOM     11  C   UNL     1       5.686   3.326   0.406  0.00  0.00    +0.010 C 
ATOM     12  C   UNL     1       5.059   1.991  -0.042  0.00  0.00    +0.037 C 
ATOM     13  N   UNL     1       3.484  -0.818  -0.036  0.00  0.00    -0.324 N 
ATOM     14  H   UNL     1       4.343  -0.368  -0.041  0.00  0.00    +0.148 HD
ENDROOT
BRANCH   1  15
ATOM     15  C   UNL     1      -1.303  -0.758   0.010  0.00  0.00    -0.001 C 
BRANCH  15  22
ATOM     16  C   UNL     1      -2.763  -2.591  -5.203  0.00  0.00    +0.007 C 
ATOM     17  C   UNL     1      -2.267  -2.536  -3.757  0.00  0.00    -0.018 C 
ATOM     18  C   UNL     1      -3.394  -2.036  -2.849  0.00  0.00    -0.016 C 
ATOM     19  C   UNL     1      -2.875  -1.926  -1.413  0.00  0.00    -0.078 C 
ATOM     20  C   UNL     1      -0.627  -1.479  -2.200  0.00  0.00    -0.078 C 
ATOM     21  C   UNL     1      -1.079  -1.576  -3.659  0.00  0.00    -0.016 C 
ATOM     22  N   UNL     1      -1.748  -0.969  -1.383  0.00  0.00    +0.384 N 
ATOM     23  H   UNL     1      -2.063  -0.072  -1.772  0.00  0.00    -0.081 HD
ENDBRANCH  15  22
ENDBRANCH   1  15
BRANCH  13  24
ATOM     24  C   UNL     1       3.422  -2.281  -0.043  0.00  0.00    +0.138 C 
BRANCH  24  25
ATOM     25  C   UNL     1       4.821  -2.843  -0.060  0.00  0.00    -0.030 A 
ATOM     26  C   UNL     1       5.449  -3.099  -1.265  0.00  0.00    +0.007 A 
ATOM     27  C   UNL     1       6.733  -3.609  -1.280  0.00  0.00    +0.029 A 
ATOM     28  C   UNL     1       7.386  -3.873  -0.090  0.00  0.00    +0.105 A 
ATOM     29  C   UNL     1       6.757  -3.621   1.114  0.00  0.00    +0.029 A 
ATOM     30  C   UNL     1       5.474  -3.107   1.130  0.00  0.00    +0.007 A 
BRANCH  28  31
ATOM     31  S   UNL     1       9.022  -4.528  -0.110  0.00  0.00    +0.056 S 
ATOM     32  O   UNL     1       9.591  -4.161  -1.359  0.00  0.00    -0.153 OA
ATOM     33  O   UNL     1       9.616  -4.173   1.132  0.00  0.00    -0.153 OA
BRANCH  31  34
ATOM     34  N   UNL     1       8.888  -6.178  -0.117  0.00  0.00    -0.204 NA
ATOM     35  H   UNL     1       9.570  -6.718  -0.546  0.00  0.00    +0.144 HD
ATOM     36  H   UNL     1       8.128  -6.605   0.309  0.00  0.00    +0.144 HD
ENDBRANCH  31  34
ENDBRANCH  28  31
ENDBRANCH  24  25
ENDBRANCH  13  24
TORSDOF 6
