REMARK  Name = ZINC02329037
REMARK  9 active torsions:
REMARK  status: ('A' for Active; 'I' for Inactive)
REMARK    1  A    between atoms: C_1  and  C_2
REMARK    2  A    between atoms: C_5  and  C_8
REMARK    3  A    between atoms: C_10  and  C_33
REMARK    4  A    between atoms: C_11  and  S_20
REMARK    5  A    between atoms: S_20  and  C_21
REMARK    6  A    between atoms: C_21  and  C_22
REMARK    7  A    between atoms: N_24  and  C_25
REMARK    8  A    between atoms: C_28  and  C_32
REMARK    9  A    between atoms: C_29  and  C_31
REMARK                            x       y       z     vdW  Elec       q    Type
REMARK                         _______ _______ _______ _____ _____    ______ ____
ROOT
ATOM      1  C   UNL     1       0.062  -4.256  -0.014  0.00  0.00    +0.097 C 
ATOM      2  C   UNL     1       1.308  -4.744   0.665  0.00  0.00    +0.069 C 
ATOM      3  C   UNL     1       1.273  -5.221   1.938  0.00  0.00    +0.080 C 
ATOM      4  N   UNL     1       0.081  -5.269   2.624  0.00  0.00    -0.311 N 
ATOM      5  C   UNL     1      -1.111  -5.229   1.953  0.00  0.00    +0.016 C 
ATOM      6  C   UNL     1      -1.173  -4.761   0.689  0.00  0.00    +0.024 C 
ATOM      7  C   UNL     1      -2.391  -4.733  -0.012  0.00  0.00    +0.162 C 
ATOM      8  O   UNL     1      -2.415  -4.299  -1.147  0.00  0.00    -0.292 OA
ATOM      9  C   UNL     1      -3.664  -5.228   0.616  0.00  0.00    +0.080 C 
ATOM     10  C   UNL     1      -3.325  -6.308   1.648  0.00  0.00    +0.014 C 
ATOM     11  C   UNL     1      -2.349  -5.717   2.663  0.00  0.00    +0.051 C 
ATOM     12  H   UNL     1       0.086  -5.332   3.592  0.00  0.00    +0.152 HD
ENDROOT
BRANCH   1  17
ATOM     13  C   UNL     1       0.024   1.523   0.016  0.00  0.00    +0.044 C 
ATOM     14  C   UNL     1       0.034   0.016   0.008  0.00  0.00    -0.050 A 
ATOM     15  C   UNL     1       0.030  -0.669  -1.192  0.00  0.00    +0.003 A 
ATOM     16  C   UNL     1       0.039  -2.052  -1.200  0.00  0.00    +0.005 A 
ATOM     17  C   UNL     1       0.053  -2.749  -0.006  0.00  0.00    -0.035 A 
ATOM     18  C   UNL     1       0.059  -2.064   1.195  0.00  0.00    +0.005 A 
ATOM     19  C   UNL     1       0.054  -0.681   1.202  0.00  0.00    +0.003 A 
ENDBRANCH   1  17
BRANCH   2  20
ATOM     20  C   UNL     1       2.554  -4.707  -0.039  0.00  0.00    +0.098 C 
ATOM     21  N   UNL     1       3.543  -4.678  -0.598  0.00  0.00    -0.191 NA
ENDBRANCH   2  20
BRANCH   3  22
ATOM     22  S   UNL     1       2.755  -5.779   2.710  0.00  0.00    -0.100 S 
BRANCH  22  23
ATOM     23  C   UNL     1       2.218  -6.309   4.360  0.00  0.00    +0.171 C 
BRANCH  23  24
ATOM     24  C   UNL     1       3.407  -6.816   5.136  0.00  0.00    +0.227 C 
ATOM     25  O   UNL     1       4.507  -6.819   4.626  0.00  0.00    -0.275 OA
ATOM     26  N   UNL     1       3.246  -7.265   6.396  0.00  0.00    -0.285 N 
ATOM     27  H   UNL     1       2.380  -7.201   6.827  0.00  0.00    +0.155 HD
BRANCH  26  28
ATOM     28  C   UNL     1       4.329  -7.825   7.082  0.00  0.00    +0.034 A 
ATOM     29  C   UNL     1       4.126  -8.883   7.959  0.00  0.00    +0.023 A 
ATOM     30  C   UNL     1       5.197  -9.434   8.635  0.00  0.00    +0.005 A 
ATOM     31  C   UNL     1       6.471  -8.932   8.440  0.00  0.00    -0.047 A 
ATOM     32  C   UNL     1       6.677  -7.878   7.568  0.00  0.00    -0.046 A 
ATOM     33  C   UNL     1       5.611  -7.328   6.884  0.00  0.00    +0.027 A 
ATOM     34  C   UNL     1       8.067  -7.334   7.359  0.00  0.00    +0.044 C 
ATOM     35  C   UNL     1       7.638  -9.534   9.179  0.00  0.00    +0.044 C 
ENDBRANCH  26  28
ENDBRANCH  23  24
ENDBRANCH  22  23
ENDBRANCH   3  22
TORSDOF 6
