REMARK  Name = ZINC63588871
REMARK  9 active torsions:
REMARK  status: ('A' for Active; 'I' for Inactive)
REMARK    1  A    between atoms: C_1  and  C_2
REMARK    2  A    between atoms: C_7  and  N_8
REMARK    3  A    between atoms: N_10  and  C_11
REMARK    4  A    between atoms: C_11  and  C_12
REMARK    5  A    between atoms: C_12  and  C_13
REMARK    6  A    between atoms: N_22  and  C_23
REMARK    7  A    between atoms: C_23  and  C_25
REMARK    8  A    between atoms: C_29  and  N_31
REMARK    9  A    between atoms: C_32  and  C_34
REMARK                            x       y       z     vdW  Elec       q    Type
REMARK                         _______ _______ _______ _____ _____    ______ ____
ROOT
ATOM      1  N   UNL     1      -0.122  -0.341   2.402  0.00  0.00    -0.328 N 
ATOM      2  C   UNL     1       0.665  -0.537   3.500  0.00  0.00    +0.194 C 
ATOM      3  N   UNL     1       1.206   0.533   4.151  0.00  0.00    -0.357 N 
ATOM      4  N   UNL     1       0.904  -1.766   3.933  0.00  0.00    -0.143 NA
ATOM      5  H   UNL     1       1.808   0.392   4.898  0.00  0.00    +0.162 HD
ATOM      6  H   UNL     1      -1.078  -0.498   2.456  0.00  0.00    +0.169 HD
ENDROOT
BRANCH   1  13
ATOM      7  C   UNL     1      -1.863   0.419   0.284  0.00  0.00    +0.046 C 
ATOM      8  C   UNL     1      -0.363   0.467   0.139  0.00  0.00    -0.026 A 
ATOM      9  C   UNL     1       0.203   0.894  -1.046  0.00  0.00    +0.025 A 
ATOM     10  C   UNL     1       1.580   0.938  -1.179  0.00  0.00    +0.041 A 
ATOM     11  C   UNL     1       2.392   0.553  -0.127  0.00  0.00    +0.022 A 
ATOM     12  C   UNL     1       1.831   0.125   1.060  0.00  0.00    +0.027 A 
ATOM     13  C   UNL     1       0.449   0.086   1.199  0.00  0.00    +0.045 A 
ATOM     14 CL   UNL     1       2.289   1.476  -2.670  0.00  0.00    -0.084 Cl
ENDBRANCH   1  13
BRANCH   4  15
ATOM     15  C   UNL     1       0.545  -2.820   3.188  0.00  0.00    +0.270 C 
ATOM     16  O   UNL     1       0.106  -2.651   2.065  0.00  0.00    -0.268 OA
BRANCH  15  17
ATOM     17  C   UNL     1       0.683  -4.191   3.731  0.00  0.00    +0.041 A 
ATOM     18  C   UNL     1       1.072  -4.383   5.057  0.00  0.00    +0.013 A 
ATOM     19  C   UNL     1       1.199  -5.662   5.561  0.00  0.00    +0.003 A 
ATOM     20  C   UNL     1       0.942  -6.755   4.756  0.00  0.00    +0.023 A 
ATOM     21  C   UNL     1       0.554  -6.574   3.434  0.00  0.00    +0.034 A 
ATOM     22  C   UNL     1       0.418  -5.293   2.921  0.00  0.00    +0.036 A 
BRANCH  21  23
ATOM     23  N   UNL     1       0.295  -7.684   2.622  0.00  0.00    -0.286 N 
ATOM     24  C   UNL     1       0.523  -7.617   1.296  0.00  0.00    +0.214 C 
ATOM     25  O   UNL     1       1.048  -6.633   0.820  0.00  0.00    -0.276 OA
ATOM     26  C   UNL     1       0.125  -8.765   0.404  0.00  0.00    +0.109 C 
ATOM     27  H   UNL     1      -0.049  -8.502   3.014  0.00  0.00    +0.155 HD
ENDBRANCH  21  23
ENDBRANCH  15  17
ENDBRANCH   4  15
BRANCH   3  28
ATOM     28  C   UNL     1       0.876   1.894   3.723  0.00  0.00    +0.120 C 
BRANCH  28  29
ATOM     29  C   UNL     1       1.650   2.900   4.578  0.00  0.00    +0.054 C 
BRANCH  29  30
ATOM     30  C   UNL     1       1.222   4.299   4.218  0.00  0.00    -0.040 C 
ATOM     31  C   UNL     1       0.154   4.973   4.702  0.00  0.00    -0.001 A 
ATOM     32  C   UNL     1      -0.890   4.618   5.670  0.00  0.00    +0.010 A 
ATOM     33  C   UNL     1      -1.852   5.524   5.958  0.00  0.00    +0.001 A 
ATOM     34  C   UNL     1      -1.877   6.790   5.357  0.00  0.00    +0.002 A 
ATOM     35  C   UNL     1      -0.952   7.189   4.458  0.00  0.00    +0.026 A 
ATOM     36  C   UNL     1       0.106   6.316   4.081  0.00  0.00    +0.043 A 
ATOM     37  N   UNL     1       1.106   6.467   3.246  0.00  0.00    -0.380 N 
ATOM     38  C   UNL     1       1.905   5.237   3.247  0.00  0.00    +0.144 C 
ATOM     39  H   UNL     1       1.288   7.260   2.719  0.00  0.00    +0.160 HD
ENDBRANCH  29  30
ENDBRANCH  28  29
ENDBRANCH   3  28
TORSDOF 7
