REMARK  Name = ZINC63735679
REMARK  4 active torsions:
REMARK  status: ('A' for Active; 'I' for Inactive)
REMARK    1  A    between atoms: C_1  and  C_2
REMARK    2  A    between atoms: C_4  and  C_5
REMARK    3  A    between atoms: N_7  and  C_8
REMARK    4  A    between atoms: C_13  and  C_14
REMARK                            x       y       z     vdW  Elec       q    Type
REMARK                         _______ _______ _______ _____ _____    ______ ____
ROOT
ATOM      1  C   UNL     1       2.571   0.442   4.213  0.00  0.00    +0.046 A 
ATOM      2  C   UNL     1       2.457   1.821   4.093  0.00  0.00    +0.027 A 
ATOM      3  C   UNL     1       3.088   2.649   4.998  0.00  0.00    +0.040 A 
ATOM      4  C   UNL     1       3.840   2.113   6.034  0.00  0.00    +0.124 A 
ATOM      5  C   UNL     1       3.965   0.745   6.168  0.00  0.00    +0.053 A 
ATOM      6  C   UNL     1       3.326  -0.104   5.261  0.00  0.00    +0.061 A 
ATOM      7  F   UNL     1       4.454   2.934   6.914  0.00  0.00    -0.205 F 
ENDROOT
BRANCH   6   8
ATOM      8  C   UNL     1       3.449  -1.567   5.402  0.00  0.00    +0.248 C 
ATOM      9  O   UNL     1       2.451  -2.258   5.467  0.00  0.00    -0.270 OA
ATOM     10  N   UNL     1       4.669  -2.138   5.458  0.00  0.00    -0.297 N 
ATOM     11  C   UNL     1       5.883  -1.332   5.270  0.00  0.00    +0.113 C 
ATOM     12  C   UNL     1       6.728  -1.967   4.161  0.00  0.00    +0.084 C 
ATOM     13  C   UNL     1       6.991  -3.435   4.502  0.00  0.00    +0.173 C 
ATOM     14  C   UNL     1       5.665  -4.193   4.598  0.00  0.00    +0.084 C 
ATOM     15  C   UNL     1       4.810  -3.578   5.716  0.00  0.00    +0.113 C 
ATOM     16  O   UNL     1       7.810  -4.025   3.484  0.00  0.00    -0.346 OA
ATOM     17  C   UNL     1       9.016  -4.492   4.122  0.00  0.00    +0.191 C 
ATOM     18  C   UNL     1       8.596  -4.630   5.606  0.00  0.00    +0.191 C 
ATOM     19  O   UNL     1       7.681  -3.518   5.759  0.00  0.00    -0.346 OA
ENDBRANCH   6   8
BRANCH   1  22
ATOM     20  C   UNL     1       0.845   0.038   2.633  0.00  0.00    +0.221 C 
ATOM     21  O   UNL     1       0.359   1.116   2.903  0.00  0.00    -0.275 OA
ATOM     22  N   UNL     1       1.933  -0.395   3.299  0.00  0.00    -0.285 N 
ATOM     23  H   UNL     1       2.273  -1.290   3.142  0.00  0.00    +0.155 HD
BRANCH  20  27
ATOM     24  C   UNL     1      -1.520   1.105   1.267  0.00  0.00    +0.008 C 
ATOM     25  C   UNL     1      -1.003  -0.268   0.835  0.00  0.00    -0.002 C 
ATOM     26  C   UNL     1       0.344  -0.320   0.111  0.00  0.00    +0.017 C 
ATOM     27  C   UNL     1       0.232  -0.816   1.554  0.00  0.00    +0.078 C 
ENDBRANCH  20  27
ENDBRANCH   1  22
TORSDOF 3
