REMARK  Name = ZINC48326098
REMARK  11 active torsions:
REMARK  status: ('A' for Active; 'I' for Inactive)
REMARK    1  A    between atoms: C_1  and  C_2
REMARK    2  A    between atoms: C_2  and  C_3
REMARK    3  A    between atoms: C_6  and  C_9
REMARK    4  A    between atoms: C_9  and  C_11
REMARK    5  A    between atoms: C_9  and  N_14
REMARK    6  A    between atoms: C_11  and  C_12
REMARK    7  A    between atoms: C_11  and  C_13
REMARK    8  A    between atoms: N_14  and  S_15
REMARK    9  A    between atoms: S_15  and  C_18
REMARK   10  A    between atoms: C_18  and  C_19
REMARK   11  A    between atoms: C_22  and  N_25
REMARK                            x       y       z     vdW  Elec       q    Type
REMARK                         _______ _______ _______ _____ _____    ______ ____
ROOT
ATOM      1  N   UNL     1      -5.538  -2.897  -1.119  0.00  0.00    -0.187 NA
ATOM      2  H   UNL     1      -5.674  -2.555  -2.016  0.00  0.00    +0.148 HD
ENDROOT
BRANCH   1   3
ATOM      3  S   UNL     1      -5.593  -4.528  -0.837  0.00  0.00    +0.034 S 
ATOM      4  O   UNL     1      -5.841  -5.107  -2.111  0.00  0.00    -0.158 OA
ATOM      5  O   UNL     1      -4.392  -4.814  -0.133  0.00  0.00    -0.158 OA
BRANCH   3   6
ATOM      6  C   UNL     1      -7.026  -4.766   0.248  0.00  0.00    +0.220 C 
BRANCH   6   7
ATOM      7  C   UNL     1      -7.106  -6.212   0.664  0.00  0.00    -0.025 A 
ATOM      8  C   UNL     1      -7.822  -7.113  -0.102  0.00  0.00    +0.007 A 
ATOM      9  C   UNL     1      -7.895  -8.440   0.280  0.00  0.00    +0.033 A 
ATOM     10  C   UNL     1      -7.253  -8.865   1.427  0.00  0.00    +0.126 A 
ATOM     11  C   UNL     1      -6.537  -7.965   2.193  0.00  0.00    +0.033 A 
ATOM     12  C   UNL     1      -6.460  -6.639   1.809  0.00  0.00    +0.007 A 
BRANCH  10  13
ATOM     13  N   UNL     1      -7.332 -10.286   1.837  0.00  0.00    +0.056 N 
ATOM     14  O   UNL     1      -7.959 -11.073   1.167  0.00  0.00    -0.126 OA
ATOM     15  O   UNL     1      -6.771 -10.658   2.841  0.00  0.00    -0.126 OA
ENDBRANCH  10  13
ENDBRANCH   6   7
ENDBRANCH   3   6
ENDBRANCH   1   3
BRANCH   1  16
ATOM     16  C   UNL     1      -5.285  -1.970  -0.013  0.00  0.00    +0.109 C 
BRANCH  16  20
ATOM     17  C   UNL     1      -1.114  -1.068   0.161  0.00  0.00    -0.048 A 
ATOM     18  C   UNL     1      -1.828  -1.262   1.329  0.00  0.00    +0.004 A 
ATOM     19  C   UNL     1      -3.178  -1.554   1.272  0.00  0.00    +0.005 A 
ATOM     20  C   UNL     1      -3.814  -1.651   0.049  0.00  0.00    -0.029 A 
ATOM     21  C   UNL     1      -3.100  -1.456  -1.119  0.00  0.00    +0.005 A 
ATOM     22  C   UNL     1      -1.751  -1.159  -1.062  0.00  0.00    +0.004 A 
BRANCH  17  24
ATOM     23  C   UNL     1       0.549   0.766   0.297  0.00  0.00    +0.009 C 
ATOM     24  C   UNL     1       0.358  -0.750   0.223  0.00  0.00    +0.032 C 
ENDBRANCH  17  24
ENDBRANCH  16  20
BRANCH  16  25
ATOM     25  C   UNL     1      -6.078  -0.681  -0.236  0.00  0.00    +0.006 C 
ATOM     26  C   UNL     1      -5.741  -0.107  -1.614  0.00  0.00    +0.009 C 
ATOM     27  C   UNL     1      -7.576  -0.983  -0.162  0.00  0.00    +0.009 C 
ENDBRANCH  16  25
ENDBRANCH   1  16
TORSDOF 8
