REMARK  Name = ZINC36122265
REMARK  13 active torsions:
REMARK  status: ('A' for Active; 'I' for Inactive)
REMARK    1  A    between atoms: C_1  and  C_2
REMARK    2  A    between atoms: C_2  and  C_3
REMARK    3  A    between atoms: C_3  and  N_4
REMARK    4  A    between atoms: N_7  and  C_8
REMARK    5  A    between atoms: N_7  and  C_15
REMARK    6  A    between atoms: C_8  and  C_9
REMARK    7  A    between atoms: C_15  and  C_16
REMARK    8  A    between atoms: C_26  and  C_28
REMARK    9  A    between atoms: C_28  and  O_29
REMARK   10  A    between atoms: O_29  and  C_30
REMARK   11  A    between atoms: C_33  and  C_36
REMARK   12  A    between atoms: C_36  and  C_37
REMARK   13  A    between atoms: C_36  and  C_38
REMARK                            x       y       z     vdW  Elec       q    Type
REMARK                         _______ _______ _______ _____ _____    ______ ____
ROOT
ATOM      1  C   UNL     1       3.428  -4.921  -3.082  0.00  0.00    +0.234 C 
ATOM      2  O   UNL     1       3.889  -4.527  -2.033  0.00  0.00    -0.274 OA
ATOM      3  N   UNL     1       4.215  -5.569  -3.964  0.00  0.00    -0.289 N 
ATOM      4  C   UNL     1       3.667  -6.046  -5.243  0.00  0.00    +0.114 C 
ATOM      5  C   UNL     1       4.359  -5.279  -6.380  0.00  0.00    +0.061 C 
ATOM      6  C   UNL     1       5.821  -5.197  -6.083  0.00  0.00    -0.004 A 
ATOM      7  C   UNL     1       6.446  -5.414  -4.894  0.00  0.00    -0.014 A 
ATOM      8  C   UNL     1       7.832  -5.264  -4.878  0.00  0.00    +0.013 A 
ATOM      9  C   UNL     1       8.488  -4.923  -6.011  0.00  0.00    +0.046 A 
ATOM     10  S   UNL     1       7.149  -4.794  -7.187  0.00  0.00    -0.101 S 
ATOM     11  C   UNL     1       5.634  -5.801  -3.664  0.00  0.00    +0.144 C 
ENDROOT
BRANCH   1  12
ATOM     12  C   UNL     1       1.973  -4.688  -3.401  0.00  0.00    +0.205 C 
BRANCH  12  16
ATOM     13  N   UNL     1       0.738  -1.962  -1.265  0.00  0.00    -0.299 N 
ATOM     14  C   UNL     1       1.321  -2.623  -2.285  0.00  0.00    +0.303 C 
ATOM     15  O   UNL     1       1.831  -2.003  -3.198  0.00  0.00    -0.253 OA
ATOM     16  N   UNL     1       1.339  -3.970  -2.292  0.00  0.00    -0.274 N 
ATOM     17  H   UNL     1       0.332  -2.457  -0.536  0.00  0.00    +0.150 HD
BRANCH  13  18
ATOM     18  C   UNL     1       0.718  -0.497  -1.257  0.00  0.00    +0.105 C 
BRANCH  18  20
ATOM     19  C   UNL     1      -0.019   1.526   0.010  0.00  0.00    +0.005 C 
ATOM     20  C   UNL     1       0.002  -0.004   0.002  0.00  0.00    +0.015 C 
ENDBRANCH  18  20
ENDBRANCH  13  18
BRANCH  16  21
ATOM     21  C   UNL     1       0.726  -4.717  -1.192  0.00  0.00    +0.141 C 
BRANCH  21  22
ATOM     22  C   UNL     1      -0.744  -4.990  -1.518  0.00  0.00    +0.136 C 
ATOM     23  C   UNL     1      -1.422  -5.750  -0.350  0.00  0.00    +0.035 C 
ATOM     24  C   UNL     1      -2.908  -5.353  -0.563  0.00  0.00    +0.031 C 
ATOM     25  C   UNL     1      -2.788  -3.910  -1.099  0.00  0.00    +0.160 C 
ATOM     26  O   UNL     1      -1.467  -3.755  -1.634  0.00  0.00    -0.375 OA
ENDBRANCH  21  22
ENDBRANCH  16  21
ENDBRANCH  12  16
ENDBRANCH   1  12
BRANCH  11  27
ATOM     27  C   UNL     1       5.860  -7.280  -3.344  0.00  0.00    +0.256 C 
BRANCH  27  28
ATOM     28  O   UNL     1       5.590  -8.066  -4.507  0.00  0.00    -0.490 OA
BRANCH  28  29
ATOM     29  C   UNL     1       5.744  -9.411  -4.392  0.00  0.00    +0.121 A 
ATOM     30  C   UNL     1       6.141  -9.965  -3.184  0.00  0.00    +0.046 A 
ATOM     31  C   UNL     1       6.297 -11.332  -3.070  0.00  0.00    +0.007 A 
ATOM     32  C   UNL     1       6.057 -12.150  -4.159  0.00  0.00    -0.045 A 
ATOM     33  C   UNL     1       5.660 -11.601  -5.364  0.00  0.00    +0.007 A 
ATOM     34  C   UNL     1       5.498 -10.234  -5.482  0.00  0.00    +0.046 A 
BRANCH  32  35
ATOM     35  C   UNL     1       6.227 -13.642  -4.031  0.00  0.00    +0.013 C 
ATOM     36  C   UNL     1       4.897 -14.335  -4.334  0.00  0.00    +0.012 C 
ATOM     37  C   UNL     1       7.289 -14.120  -5.023  0.00  0.00    +0.012 C 
ENDBRANCH  32  35
ENDBRANCH  28  29
ENDBRANCH  27  28
ENDBRANCH  11  27
TORSDOF 10
