REMARK  Name = ZINC39868923
REMARK  13 active torsions:
REMARK  status: ('A' for Active; 'I' for Inactive)
REMARK    1  A    between atoms: C_1  and  C_2
REMARK    2  A    between atoms: C_2  and  C_3
REMARK    3  A    between atoms: C_3  and  C_4
REMARK    4  A    between atoms: C_4  and  O_5
REMARK    5  A    between atoms: O_5  and  C_6
REMARK    6  A    between atoms: C_9  and  C_13
REMARK    7  A    between atoms: N_15  and  C_16
REMARK    8  A    between atoms: C_17  and  C_25
REMARK    9  A    between atoms: N_27  and  C_28
REMARK   10  A    between atoms: C_28  and  C_29
REMARK   11  A    between atoms: C_29  and  C_30
REMARK   12  A    between atoms: C_30  and  O_31
REMARK   13  A    between atoms: O_31  and  C_32
REMARK                            x       y       z     vdW  Elec       q    Type
REMARK                         _______ _______ _______ _____ _____    ______ ____
ROOT
ATOM      1  C   UNL     1       0.992 -10.084  -3.937  0.00  0.00    +0.085 A 
ATOM      2  C   UNL     1       0.111 -10.936  -4.586  0.00  0.00    +0.069 A 
ATOM      3  C   UNL     1       0.457 -12.347  -4.621  0.00  0.00    -0.023 A 
ATOM      4  C   UNL     1       1.619 -12.646  -4.001  0.00  0.00    -0.004 A 
ATOM      5  S   UNL     1       2.223 -11.095  -3.404  0.00  0.00    -0.077 S 
ATOM      6  C   UNL     1       2.242 -14.001  -3.865  0.00  0.00    +0.043 C 
ATOM      7  C   UNL     1       1.181 -15.057  -4.208  0.00  0.00    +0.005 C 
ATOM      8  C   UNL     1       0.490 -14.659  -5.515  0.00  0.00    +0.005 C 
ATOM      9  C   UNL     1      -0.385 -13.425  -5.287  0.00  0.00    +0.037 C 
ENDROOT
BRANCH   1  12
ATOM     10  C   UNL     1       1.845  -8.036  -3.111  0.00  0.00    +0.249 C 
ATOM     11  O   UNL     1       2.807  -8.629  -2.662  0.00  0.00    -0.270 OA
ATOM     12  N   UNL     1       0.883  -8.713  -3.771  0.00  0.00    -0.275 N 
ATOM     13  H   UNL     1       0.116  -8.240  -4.129  0.00  0.00    +0.156 HD
BRANCH  10  17
ATOM     14  C   UNL     1       1.514  -3.832  -2.603  0.00  0.00    +0.157 A 
ATOM     15  C   UNL     1       2.614  -4.508  -2.088  0.00  0.00    +0.085 A 
ATOM     16  C   UNL     1       2.725  -5.872  -2.251  0.00  0.00    +0.036 A 
ATOM     17  C   UNL     1       1.729  -6.576  -2.935  0.00  0.00    +0.040 A 
ATOM     18  C   UNL     1       0.625  -5.893  -3.450  0.00  0.00    +0.036 A 
ATOM     19  C   UNL     1       0.518  -4.529  -3.279  0.00  0.00    +0.085 A 
ATOM     20 CL   UNL     1      -0.857  -3.681  -3.913  0.00  0.00    -0.080 Cl
ATOM     21 CL   UNL     1       3.850  -3.633  -1.240  0.00  0.00    -0.080 Cl
BRANCH  14  22
ATOM     22  O   UNL     1       1.408  -2.488  -2.441  0.00  0.00    -0.489 OA
BRANCH  22  23
ATOM     23  C   UNL     1       0.739  -2.027  -1.265  0.00  0.00    +0.229 C 
BRANCH  23  24
ATOM     24  C   UNL     1       0.718  -0.497  -1.257  0.00  0.00    +0.041 C 
BRANCH  24  26
ATOM     25  C   UNL     1      -0.019   1.526   0.010  0.00  0.00    +0.004 C 
ATOM     26  C   UNL     1       0.002  -0.004   0.002  0.00  0.00    -0.000 C 
ENDBRANCH  24  26
ENDBRANCH  23  24
ENDBRANCH  22  23
ENDBRANCH  14  22
ENDBRANCH  10  17
ENDBRANCH   1  12
BRANCH   2  27
ATOM     27  C   UNL     1      -1.117 -10.435  -5.209  0.00  0.00    +0.247 C 
ATOM     28  O   UNL     1      -1.106 -10.076  -6.373  0.00  0.00    -0.270 OA
ATOM     29  N   UNL     1      -2.258 -10.371  -4.495  0.00  0.00    -0.311 N 
ATOM     30  H   UNL     1      -2.267 -10.656  -3.568  0.00  0.00    +0.149 HD
BRANCH  29  31
ATOM     31  C   UNL     1      -3.486  -9.870  -5.118  0.00  0.00    +0.107 C 
BRANCH  31  32
ATOM     32  C   UNL     1      -4.625  -9.901  -4.098  0.00  0.00    +0.047 C 
BRANCH  32  33
ATOM     33  C   UNL     1      -5.907  -9.378  -4.749  0.00  0.00    +0.161 C 
BRANCH  33  34
ATOM     34  O   UNL     1      -6.971  -9.407  -3.796  0.00  0.00    -0.383 OA
ATOM     35  C   UNL     1      -8.221  -8.936  -4.305  0.00  0.00    +0.193 C 
ENDBRANCH  33  34
ENDBRANCH  32  33
ENDBRANCH  31  32
ENDBRANCH  29  31
ENDBRANCH   2  27
TORSDOF 11
