REMARK  Name = ZINC17307577
REMARK  9 active torsions:
REMARK  status: ('A' for Active; 'I' for Inactive)
REMARK    1  A    between atoms: C_1  and  C_2
REMARK    2  A    between atoms: C_2  and  O_3
REMARK    3  A    between atoms: O_3  and  C_4
REMARK    4  A    between atoms: C_7  and  C_10
REMARK    5  A    between atoms: C_15  and  S_19
REMARK    6  A    between atoms: S_19  and  C_20
REMARK    7  A    between atoms: C_20  and  C_21
REMARK    8  A    between atoms: C_33  and  C_35
REMARK    9  A    between atoms: C_33  and  C_36
REMARK                            x       y       z     vdW  Elec       q    Type
REMARK                         _______ _______ _______ _____ _____    ______ ____
ROOT
ATOM      1  C   UNL     1       1.144  -6.059   1.764  0.00  0.00    +0.092 C 
ATOM      2  C   UNL     1       0.458  -6.472   3.031  0.00  0.00    +0.071 A 
ATOM      3  C   UNL     1       1.193  -6.777   4.170  0.00  0.00    +0.135 A 
ATOM      4  N   UNL     1       0.557  -7.138   5.279  0.00  0.00    -0.206 NA
ATOM      5  C   UNL     1      -0.767  -7.208   5.302  0.00  0.00    +0.194 A 
ATOM      6  N   UNL     1      -1.500  -6.925   4.235  0.00  0.00    -0.183 NA
ATOM      7  C   UNL     1      -0.927  -6.557   3.092  0.00  0.00    +0.280 A 
ATOM      8  O   UNL     1      -1.684  -6.268   2.005  0.00  0.00    -0.265 OA
ATOM      9  N   UNL     1       2.575  -6.706   4.132  0.00  0.00    -0.302 N 
ATOM     10  C   UNL     1       3.240  -6.727   2.937  0.00  0.00    +0.017 C 
ATOM     11  C   UNL     1       2.604  -6.437   1.784  0.00  0.00    +0.024 C 
ATOM     12  C   UNL     1       3.285  -6.479   0.554  0.00  0.00    +0.162 C 
ATOM     13  C   UNL     1       4.739  -6.856   0.477  0.00  0.00    +0.086 C 
ATOM     14  C   UNL     1       5.075  -7.789   1.645  0.00  0.00    -0.023 C 
ATOM     15  C   UNL     1       4.708  -7.081   2.947  0.00  0.00    +0.058 C 
ATOM     16  C   UNL     1       6.572  -8.105   1.636  0.00  0.00    +0.011 C 
ATOM     17  C   UNL     1       4.270  -9.084   1.517  0.00  0.00    +0.011 C 
ATOM     18  O   UNL     1       2.686  -6.206  -0.467  0.00  0.00    -0.292 OA
ATOM     19  H   UNL     1       3.076  -6.639   4.960  0.00  0.00    +0.153 HD
ENDROOT
BRANCH   1  23
ATOM     20  C   UNL     1       0.802  -1.824   1.306  0.00  0.00    +0.121 A 
ATOM     21  C   UNL     1       0.260  -2.673   0.351  0.00  0.00    +0.046 A 
ATOM     22  C   UNL     1       0.372  -4.041   0.502  0.00  0.00    +0.008 A 
ATOM     23  C   UNL     1       1.024  -4.566   1.603  0.00  0.00    -0.035 A 
ATOM     24  C   UNL     1       1.565  -3.722   2.555  0.00  0.00    +0.008 A 
ATOM     25  C   UNL     1       1.460  -2.353   2.406  0.00  0.00    +0.046 A 
BRANCH  20  26
ATOM     26  O   UNL     1       0.693  -0.477   1.160  0.00  0.00    -0.492 OA
BRANCH  26  28
ATOM     27  C   UNL     1      -0.019   1.526   0.010  0.00  0.00    +0.048 C 
ATOM     28  C   UNL     1       0.002  -0.004   0.002  0.00  0.00    +0.225 C 
ENDBRANCH  26  28
ENDBRANCH  20  26
ENDBRANCH   1  23
BRANCH   5  29
ATOM     29  S   UNL     1      -1.574  -7.692   6.792  0.00  0.00    -0.081 S 
BRANCH  29  30
ATOM     30  C   UNL     1      -3.338  -7.650   6.370  0.00  0.00    +0.115 C 
BRANCH  30  31
ATOM     31  C   UNL     1      -4.152  -8.049   7.573  0.00  0.00    -0.002 A 
ATOM     32  C   UNL     1      -4.466  -9.378   7.787  0.00  0.00    +0.007 A 
ATOM     33  C   UNL     1      -5.213  -9.743   8.890  0.00  0.00    +0.000 A 
ATOM     34  C   UNL     1      -5.647  -8.780   9.783  0.00  0.00    +0.003 A 
ATOM     35  C   UNL     1      -5.335  -7.451   9.572  0.00  0.00    +0.038 A 
ATOM     36  C   UNL     1      -4.582  -7.084   8.469  0.00  0.00    +0.127 A 
ATOM     37  F   UNL     1      -4.271  -5.785   8.264  0.00  0.00    -0.205 F 
ENDBRANCH  30  31
ENDBRANCH  29  30
ENDBRANCH   5  29
TORSDOF 6
