REMARK  Name = ZINC21225342
REMARK  13 active torsions:
REMARK  status: ('A' for Active; 'I' for Inactive)
REMARK    1  A    between atoms: C_1  and  C_2
REMARK    2  A    between atoms: C_5  and  C_36
REMARK    3  A    between atoms: C_6  and  S_8
REMARK    4  A    between atoms: S_8  and  N_11
REMARK    5  A    between atoms: N_11  and  C_12
REMARK    6  A    between atoms: C_17  and  C_18
REMARK    7  A    between atoms: C_18  and  O_20
REMARK    8  A    between atoms: O_20  and  C_21
REMARK    9  A    between atoms: C_21  and  C_23
REMARK   10  A    between atoms: C_21  and  C_24
REMARK   11  A    between atoms: N_26  and  C_27
REMARK   12  A    between atoms: C_31  and  C_33
REMARK   13  A    between atoms: C_33  and  C_35
REMARK                            x       y       z     vdW  Elec       q    Type
REMARK                         _______ _______ _______ _____ _____    ______ ____
ROOT
ATOM      1  C   UNL     1      -1.050   0.253   2.284  0.00  0.00    +0.062 A 
ATOM      2  C   UNL     1      -0.920  -1.105   2.022  0.00  0.00    +0.025 A 
ATOM      3  C   UNL     1      -1.886  -1.989   2.455  0.00  0.00    +0.002 A 
ATOM      4  C   UNL     1      -2.992  -1.532   3.155  0.00  0.00    +0.001 A 
ATOM      5  C   UNL     1      -3.139  -0.190   3.425  0.00  0.00    +0.017 A 
ATOM      6  C   UNL     1      -2.167   0.719   2.998  0.00  0.00    +0.081 A 
ENDROOT
BRANCH   1   7
ATOM      7  N   UNL     1      -0.079   1.145   1.849  0.00  0.00    -0.215 N 
ATOM      8  H   UNL     1       0.182   2.018   2.465  0.00  0.00    +0.174 HD
BRANCH   7   9
ATOM      9  S   UNL     1       0.687   0.894   0.402  0.00  0.00    +0.073 S 
ATOM     10  O   UNL     1       1.216  -0.424   0.446  0.00  0.00    -0.150 OA
ATOM     11  O   UNL     1       1.502   2.034   0.171  0.00  0.00    -0.150 OA
BRANCH   9  17
ATOM     12  C   UNL     1      -2.104  -1.521  -3.300  0.00  0.00    +0.044 C 
ATOM     13  C   UNL     1      -1.801  -0.258  -2.535  0.00  0.00    -0.049 A 
ATOM     14  C   UNL     1      -2.496   0.904  -2.817  0.00  0.00    +0.004 A 
ATOM     15  C   UNL     1      -2.218   2.062  -2.116  0.00  0.00    +0.005 A 
ATOM     16  C   UNL     1      -1.246   2.059  -1.133  0.00  0.00    -0.024 A 
ATOM     17  C   UNL     1      -0.552   0.898  -0.851  0.00  0.00    +0.112 A 
ATOM     18  C   UNL     1      -0.826  -0.260  -1.556  0.00  0.00    +0.032 A 
ATOM     19  C   UNL     1      -0.944   3.322  -0.368  0.00  0.00    +0.046 C 
ENDBRANCH   9  17
ENDBRANCH   7   9
ENDBRANCH   1   7
BRANCH   6  20
ATOM     20  C   UNL     1      -2.314   2.155   3.289  0.00  0.00    +0.342 C 
ATOM     21  O   UNL     1      -1.468   2.942   2.911  0.00  0.00    -0.245 OA
BRANCH  20  22
ATOM     22  O   UNL     1      -3.388   2.597   3.974  0.00  0.00    -0.449 OA
BRANCH  22  23
ATOM     23  C   UNL     1      -3.467   4.025   4.224  0.00  0.00    +0.259 C 
ATOM     24  C   UNL     1      -2.778   4.349   5.551  0.00  0.00    +0.062 C 
BRANCH  23  25
ATOM     25  C   UNL     1      -4.914   4.442   4.295  0.00  0.00    +0.258 C 
ATOM     26  O   UNL     1      -5.790   3.605   4.239  0.00  0.00    -0.271 OA
ATOM     27  N   UNL     1      -5.234   5.745   4.420  0.00  0.00    -0.282 N 
ATOM     28  H   UNL     1      -4.444   6.510   4.395  0.00  0.00    +0.155 HD
BRANCH  27  29
ATOM     29  C   UNL     1      -6.571   6.125   4.580  0.00  0.00    +0.034 A 
ATOM     30  C   UNL     1      -6.894   7.201   5.399  0.00  0.00    +0.023 A 
ATOM     31  C   UNL     1      -8.213   7.582   5.562  0.00  0.00    +0.002 A 
ATOM     32  C   UNL     1      -9.219   6.897   4.913  0.00  0.00    +0.011 A 
ATOM     33  C   UNL     1      -8.906   5.813   4.087  0.00  0.00    +0.019 A 
ATOM     34  C   UNL     1      -7.572   5.433   3.919  0.00  0.00    +0.034 A 
BRANCH  33  35
ATOM     35  C   UNL     1      -9.977   5.080   3.393  0.00  0.00    +0.160 C 
ATOM     36  O   UNL     1      -9.703   4.141   2.677  0.00  0.00    -0.292 OA
ATOM     37  C   UNL     1     -11.414   5.497   3.571  0.00  0.00    +0.091 C 
ENDBRANCH  33  35
ENDBRANCH  27  29
ENDBRANCH  23  25
ENDBRANCH  22  23
ENDBRANCH  20  22
ENDBRANCH   6  20
TORSDOF 9
