REMARK  Name = ZINC12933822
REMARK  3 active torsions:
REMARK  status: ('A' for Active; 'I' for Inactive)
REMARK    1  A    between atoms: C_1  and  C_2
REMARK    2  A    between atoms: C_3  and  C_22
REMARK    3  A    between atoms: C_8  and  C_10
REMARK                            x       y       z     vdW  Elec       q    Type
REMARK                         _______ _______ _______ _____ _____    ______ ____
ROOT
ATOM      1  C   UNL     1      -0.415   4.041   1.525  0.00  0.00    +0.054 C 
ATOM      2  C   UNL     1      -1.435   3.291   0.708  0.00  0.00    +0.016 A 
ATOM      3  C   UNL     1      -1.310   2.116   0.020  0.00  0.00    +0.083 A 
ATOM      4  N   UNL     1      -2.355   1.631  -0.633  0.00  0.00    -0.224 NA
ATOM      5  C   UNL     1      -3.514   2.261  -0.637  0.00  0.00    +0.165 A 
ATOM      6  S   UNL     1      -3.145   3.692   0.370  0.00  0.00    -0.057 S 
ATOM      7  N   UNL     1      -4.706   1.907  -1.258  0.00  0.00    -0.262 N 
ATOM      8  C   UNL     1      -5.790   2.699  -1.137  0.00  0.00    +0.260 C 
ATOM      9  O   UNL     1      -5.726   3.720  -0.486  0.00  0.00    -0.271 OA
ATOM     10  H   UNL     1      -4.757   1.091  -1.779  0.00  0.00    +0.157 HD
ENDROOT
BRANCH   8  11
ATOM     11  C   UNL     1      -7.082   2.315  -1.811  0.00  0.00    +0.266 C 
ATOM     12  C   UNL     1      -6.894   2.341  -3.328  0.00  0.00    +0.090 C 
ATOM     13  C   UNL     1      -8.224   2.206  -4.022  0.00  0.00    -0.029 A 
ATOM     14  C   UNL     1      -8.275   1.772  -5.332  0.00  0.00    +0.004 A 
ATOM     15  C   UNL     1      -9.494   1.649  -5.975  0.00  0.00    +0.000 A 
ATOM     16  C   UNL     1     -10.670   1.958  -5.315  0.00  0.00    +0.001 A 
ATOM     17  C   UNL     1     -10.634   2.392  -4.005  0.00  0.00    +0.015 A 
ATOM     18  C   UNL     1      -9.408   2.516  -3.353  0.00  0.00    +0.062 A 
ATOM     19  C   UNL     1      -9.351   2.976  -1.946  0.00  0.00    +0.340 C 
ATOM     20  O   UNL     1     -10.357   3.091  -1.276  0.00  0.00    -0.245 OA
ATOM     21  O   UNL     1      -8.125   3.262  -1.439  0.00  0.00    -0.448 OA
ENDBRANCH   8  11
BRANCH   3  22
ATOM     22  C   UNL     1      -0.017   1.390   0.010  0.00  0.00    +0.001 A 
ATOM     23  C   UNL     1       1.184   2.098   0.002  0.00  0.00    +0.010 A 
ATOM     24  C   UNL     1       2.384   1.416  -0.013  0.00  0.00    +0.001 A 
ATOM     25  C   UNL     1       2.396   0.033  -0.021  0.00  0.00    +0.000 A 
ATOM     26  C   UNL     1       1.208  -0.675  -0.013  0.00  0.00    +0.001 A 
ATOM     27  C   UNL     1       0.002  -0.004   0.002  0.00  0.00    +0.010 A 
ENDBRANCH   3  22
TORSDOF 2
