REMARK  Name = ZINC29621452
REMARK  14 active torsions:
REMARK  status: ('A' for Active; 'I' for Inactive)
REMARK    1  A    between atoms: C_1  and  C_2
REMARK    2  A    between atoms: C_2  and  C_4
REMARK    3  A    between atoms: C_2  and  N_12
REMARK    4  A    between atoms: C_7  and  S_10
REMARK    5  A    between atoms: S_10  and  C_11
REMARK    6  A    between atoms: N_12  and  C_13
REMARK    7  A    between atoms: C_16  and  S_22
REMARK    8  A    between atoms: C_18  and  N_19
REMARK    9  A    between atoms: S_22  and  N_25
REMARK   10  A    between atoms: N_25  and  C_26
REMARK   11  A    between atoms: C_26  and  C_27
REMARK   12  A    between atoms: C_27  and  N_28
REMARK   13  A    between atoms: N_28  and  C_29
REMARK   14  A    between atoms: N_28  and  C_30
REMARK                            x       y       z     vdW  Elec       q    Type
REMARK                         _______ _______ _______ _____ _____    ______ ____
ROOT
ATOM      1  C   UNL     1       1.067   2.080  -0.024  0.00  0.00    +0.058 A 
ATOM      2  C   UNL     1       2.327   1.496  -0.019  0.00  0.00    +0.027 A 
ATOM      3  C   UNL     1       2.449   0.121  -0.000  0.00  0.00    +0.030 A 
ATOM      4  C   UNL     1       1.318  -0.675   0.013  0.00  0.00    +0.108 A 
ATOM      5  C   UNL     1       0.062  -0.097   0.008  0.00  0.00    +0.063 A 
ATOM      6  C   UNL     1      -0.067   1.278  -0.010  0.00  0.00    +0.149 A 
ENDROOT
BRANCH   6   7
ATOM      7  N   UNL     1      -1.412   1.896  -0.022  0.00  0.00    +0.058 N 
ATOM      8  O   UNL     1      -2.403   1.195  -0.128  0.00  0.00    -0.126 OA
ATOM      9  O   UNL     1      -1.528   3.104   0.074  0.00  0.00    -0.126 OA
ENDBRANCH   6   7
BRANCH   4  10
ATOM     10  S   UNL     1       1.478  -2.429   0.036  0.00  0.00    +0.058 S 
ATOM     11  O   UNL     1       2.757  -2.713   0.588  0.00  0.00    -0.153 OA
ATOM     12  O   UNL     1       0.276  -2.940   0.596  0.00  0.00    -0.153 OA
BRANCH  10  13
ATOM     13  N   UNL     1       1.520  -2.938  -1.540  0.00  0.00    -0.192 NA
ATOM     14  H   UNL     1       0.632  -3.424  -1.971  0.00  0.00    +0.148 HD
BRANCH  13  15
ATOM     15  C   UNL     1       2.636  -2.550  -2.405  0.00  0.00    +0.087 C 
BRANCH  15  16
ATOM     16  C   UNL     1       2.639  -3.429  -3.658  0.00  0.00    -0.063 C 
BRANCH  16  17
ATOM     17  N   UNL     1       3.758  -3.040  -4.526  0.00  0.00    +0.377 N 
ATOM     18  C   UNL     1       3.938  -4.007  -5.618  0.00  0.00    -0.097 C 
ATOM     19  C   UNL     1       3.570  -1.681  -5.052  0.00  0.00    -0.097 C 
ATOM     20  H   UNL     1       4.674  -3.043  -3.918  0.00  0.00    -0.083 HD
ENDBRANCH  16  17
ENDBRANCH  15  16
ENDBRANCH  13  15
ENDBRANCH  10  13
ENDBRANCH   4  10
BRANCH   1  21
ATOM     21  N   UNL     1       0.940   3.471  -0.043  0.00  0.00    -0.336 N 
ATOM     22  H   UNL     1      -0.054   3.934   0.045  0.00  0.00    +0.147 HD
BRANCH  21  24
ATOM     23  C   UNL     1       2.475   4.471  -1.663  0.00  0.00    +0.033 C 
ATOM     24  C   UNL     1       2.130   4.314  -0.181  0.00  0.00    +0.098 C 
BRANCH  24  25
ATOM     25  C   UNL     1       1.858   5.669   0.419  0.00  0.00    -0.028 A 
ATOM     26  C   UNL     1       0.630   6.275   0.227  0.00  0.00    +0.006 A 
ATOM     27  C   UNL     1       0.376   7.514   0.779  0.00  0.00    +0.015 A 
ATOM     28  C   UNL     1       1.360   8.159   1.520  0.00  0.00    +0.008 A 
ATOM     29  C   UNL     1       2.595   7.550   1.706  0.00  0.00    +0.015 A 
ATOM     30  C   UNL     1       2.840   6.307   1.155  0.00  0.00    +0.006 A 
BRANCH  28  31
ATOM     31  S   UNL     1       1.042   9.744   2.220  0.00  0.00    -0.129 S 
ATOM     32  C   UNL     1      -0.661  10.113   1.717  0.00  0.00    +0.090 C 
ENDBRANCH  28  31
ENDBRANCH  24  25
ENDBRANCH  21  24
ENDBRANCH   1  21
TORSDOF 10
