REMARK  Name = ZINC64891154
REMARK  5 active torsions:
REMARK  status: ('A' for Active; 'I' for Inactive)
REMARK    1  A    between atoms: C_1  and  C_2
REMARK    2  A    between atoms: C_2  and  C_3
REMARK    3  A    between atoms: C_2  and  N_4
REMARK    4  A    between atoms: C_8  and  C_15
REMARK    5  A    between atoms: C_17  and  C_20
REMARK                            x       y       z     vdW  Elec       q    Type
REMARK                         _______ _______ _______ _____ _____    ______ ____
ROOT
ATOM      1  N   UNL     1       0.711  -0.489   1.189  0.00  0.00    -0.290 N 
ATOM      2  C   UNL     1       0.176  -1.310   2.177  0.00  0.00    +0.070 A 
ATOM      3  C   UNL     1      -1.074  -1.887   2.359  0.00  0.00    +0.029 A 
ATOM      4  C   UNL     1      -1.316  -2.673   3.465  0.00  0.00    +0.014 A 
ATOM      5  C   UNL     1      -0.307  -2.891   4.404  0.00  0.00    +0.025 A 
ATOM      6  C   UNL     1       0.947  -2.314   4.226  0.00  0.00    +0.039 A 
ATOM      7  C   UNL     1       1.189  -1.526   3.115  0.00  0.00    +0.068 A 
ATOM      8  N   UNL     1       2.308  -0.828   2.665  0.00  0.00    -0.306 N 
ATOM      9  H   UNL     1       3.170  -0.789   3.110  0.00  0.00    +0.170 HD
ATOM     10  C   UNL     1       1.991  -0.222   1.506  0.00  0.00    +0.328 A 
ATOM     11  O   UNL     1       2.747   0.466   0.845  0.00  0.00    -0.247 OA
ENDROOT
BRANCH   5  12
ATOM     12  C   UNL     1      -0.573  -3.738   5.593  0.00  0.00    +0.202 A 
ATOM     13  N   UNL     1      -1.734  -4.351   5.873  0.00  0.00    -0.187 NA
ATOM     14  C   UNL     1      -1.628  -5.018   6.998  0.00  0.00    +0.259 A 
ATOM     15  O   UNL     1      -0.382  -4.847   7.473  0.00  0.00    -0.332 OA
ATOM     16  N   UNL     1       0.291  -4.015   6.541  0.00  0.00    -0.056 NA
BRANCH  14  17
ATOM     17  C   UNL     1      -2.696  -5.818   7.634  0.00  0.00    +0.039 A 
ATOM     18  C   UNL     1      -3.951  -5.918   7.032  0.00  0.00    +0.013 A 
ATOM     19  C   UNL     1      -4.942  -6.667   7.630  0.00  0.00    +0.001 A 
ATOM     20  C   UNL     1      -4.696  -7.319   8.825  0.00  0.00    +0.000 A 
ATOM     21  C   UNL     1      -3.454  -7.224   9.428  0.00  0.00    +0.001 A 
ATOM     22  C   UNL     1      -2.452  -6.482   8.838  0.00  0.00    +0.013 A 
ENDBRANCH  14  17
ENDBRANCH   5  12
BRANCH   1  24
ATOM     23  C   UNL     1      -0.019   1.526   0.010  0.00  0.00    +0.031 C 
ATOM     24  C   UNL     1       0.002  -0.004   0.002  0.00  0.00    +0.086 C 
ATOM     25  C   UNL     1       0.718  -0.497  -1.257  0.00  0.00    +0.031 C 
ENDBRANCH   1  24
TORSDOF 3
