REMARK  Name = ZINC20168493
REMARK  11 active torsions:
REMARK  status: ('A' for Active; 'I' for Inactive)
REMARK    1  A    between atoms: C_1  and  C_2
REMARK    2  A    between atoms: C_2  and  O_3
REMARK    3  A    between atoms: O_3  and  C_4
REMARK    4  A    between atoms: C_4  and  C_6
REMARK    5  A    between atoms: C_10  and  N_11
REMARK    6  A    between atoms: N_11  and  C_12
REMARK    7  A    between atoms: C_12  and  N_14
REMARK    8  A    between atoms: N_14  and  N_15
REMARK    9  A    between atoms: C_16  and  C_18
REMARK   10  A    between atoms: C_21  and  C_24
REMARK   11  A    between atoms: C_22  and  C_23
REMARK                            x       y       z     vdW  Elec       q    Type
REMARK                         _______ _______ _______ _____ _____    ______ ____
ROOT
ATOM      1  N   UNL     1      -6.978   2.271   0.156  0.00  0.00    -0.290 N 
ATOM      2  H   UNL     1      -6.360   2.437   1.051  0.00  0.00    +0.154 HD
ENDROOT
BRANCH   1   7
ATOM      3  C   UNL     1      -9.105   2.947   1.275  0.00  0.00    +0.091 A 
ATOM      4  C   UNL     1     -10.535   3.128   1.060  0.00  0.00    -0.021 A 
ATOM      5  C   UNL     1     -10.966   2.822  -0.182  0.00  0.00    -0.004 A 
ATOM      6  S   UNL     1      -9.511   2.322  -1.061  0.00  0.00    -0.077 S 
ATOM      7  C   UNL     1      -8.342   2.509   0.203  0.00  0.00    +0.086 A 
ATOM      8  C   UNL     1     -12.368   2.878  -0.703  0.00  0.00    +0.043 C 
ATOM      9  C   UNL     1     -12.993   4.230  -0.334  0.00  0.00    +0.005 C 
ATOM     10  C   UNL     1     -13.662   4.095   1.031  0.00  0.00    +0.001 C 
ATOM     11  C   UNL     1     -12.885   3.110   1.902  0.00  0.00    +0.005 C 
ATOM     12  C   UNL     1     -11.472   3.623   2.155  0.00  0.00    +0.037 C 
BRANCH   3  13
ATOM     13  C   UNL     1      -8.494   3.224   2.577  0.00  0.00    +0.342 C 
ATOM     14  O   UNL     1      -8.074   4.338   2.827  0.00  0.00    -0.245 OA
BRANCH  13  15
ATOM     15  O   UNL     1      -8.397   2.244   3.498  0.00  0.00    -0.461 OA
BRANCH  15  17
ATOM     16  C   UNL     1      -7.759   1.359   5.675  0.00  0.00    +0.048 C 
ATOM     17  C   UNL     1      -7.780   2.590   4.766  0.00  0.00    +0.229 C 
ENDBRANCH  15  17
ENDBRANCH  13  15
ENDBRANCH   3  13
ENDBRANCH   1   7
BRANCH   1  18
ATOM     18  C   UNL     1      -6.408   1.837  -0.985  0.00  0.00    +0.151 C 
ATOM     19  S   UNL     1      -7.370   1.579  -2.378  0.00  0.00    -0.017 S 
BRANCH  18  20
ATOM     20  N   UNL     1      -5.081   1.606  -1.031  0.00  0.00    -0.245 N 
ATOM     21  H   UNL     1      -4.616   1.252  -1.962  0.00  0.00    +0.172 HD
BRANCH  20  22
ATOM     22  N   UNL     1      -4.294   1.817   0.109  0.00  0.00    -0.231 N 
ATOM     23  C   UNL     1      -2.967   1.587   0.064  0.00  0.00    +0.261 C 
ATOM     24  O   UNL     1      -2.452   1.195  -0.967  0.00  0.00    -0.269 OA
ATOM     25  H   UNL     1      -4.759   2.172   1.041  0.00  0.00    +0.173 HD
BRANCH  23  26
ATOM     26  C   UNL     1      -2.140   1.808   1.261  0.00  0.00    +0.048 A 
ATOM     27  C   UNL     1      -2.692   2.247   2.446  0.00  0.00    +0.058 A 
ATOM     28  S   UNL     1      -1.327   2.349   3.506  0.00  0.00    -0.101 S 
ATOM     29  C   UNL     1      -0.047   1.810   2.392  0.00  0.00    -0.010 A 
ATOM     30  C   UNL     1      -0.718   1.572   1.248  0.00  0.00    -0.028 A 
ATOM     31  C   UNL     1      -0.013   1.086   0.008  0.00  0.00    +0.045 C 
ATOM     32  C   UNL     1       1.428   1.655   2.662  0.00  0.00    +0.052 C 
ENDBRANCH  23  26
ENDBRANCH  20  22
ENDBRANCH  18  20
ENDBRANCH   1  18
TORSDOF 8
