REMARK  Name = ZINC43978514
REMARK  5 active torsions:
REMARK  status: ('A' for Active; 'I' for Inactive)
REMARK    1  A    between atoms: C_1  and  O_2
REMARK    2  A    between atoms: O_2  and  C_3
REMARK    3  A    between atoms: C_3  and  C_5
REMARK    4  A    between atoms: C_8  and  N_23
REMARK    5  A    between atoms: C_9  and  N_11
REMARK                            x       y       z     vdW  Elec       q    Type
REMARK                         _______ _______ _______ _____ _____    ______ ____
ROOT
ATOM      1  C   UNL     1       0.292  -2.149  -1.289  0.00  0.00    +0.061 A 
ATOM      2  C   UNL     1       0.122  -2.849  -0.091  0.00  0.00    +0.017 A 
ATOM      3  C   UNL     1       0.565  -4.149   0.018  0.00  0.00    +0.026 A 
ATOM      4  C   UNL     1       1.182  -4.768  -1.063  0.00  0.00    +0.051 A 
ATOM      5  C   UNL     1       1.356  -4.074  -2.264  0.00  0.00    +0.057 A 
ATOM      6  C   UNL     1       0.908  -2.772  -2.379  0.00  0.00    +0.040 A 
ENDROOT
BRANCH   5   7
ATOM      7  N   UNL     1       1.980  -4.700  -3.352  0.00  0.00    -0.268 N 
ATOM      8  C   UNL     1       2.427  -3.963  -4.388  0.00  0.00    +0.307 C 
ATOM      9  O   UNL     1       2.369  -2.749  -4.340  0.00  0.00    -0.252 OA
ATOM     10  N   UNL     1       2.939  -4.571  -5.476  0.00  0.00    -0.281 N 
ATOM     11  C   UNL     1       3.552  -3.779  -6.554  0.00  0.00    +0.115 C 
ATOM     12  C   UNL     1       5.046  -4.131  -6.621  0.00  0.00    +0.062 C 
ATOM     13  C   UNL     1       5.196  -5.612  -6.491  0.00  0.00    -0.004 A 
ATOM     14  C   UNL     1       4.277  -6.509  -6.040  0.00  0.00    -0.020 A 
ATOM     15  C   UNL     1       4.671  -7.846  -6.009  0.00  0.00    +0.013 A 
ATOM     16  C   UNL     1       5.912  -8.195  -6.420  0.00  0.00    +0.046 A 
ATOM     17  S   UNL     1       6.604  -6.615  -6.884  0.00  0.00    -0.101 S 
ATOM     18  C   UNL     1       2.898  -6.034  -5.601  0.00  0.00    +0.145 C 
ATOM     19  H   UNL     1       2.090  -5.664  -3.360  0.00  0.00    +0.156 HD
ENDBRANCH   5   7
BRANCH   4  20
ATOM     20  N   UNL     1       1.629  -6.082  -0.949  0.00  0.00    -0.328 N 
ATOM     21  C   UNL     1       2.964  -6.496  -0.492  0.00  0.00    +0.105 C 
ATOM     22  C   UNL     1       3.011  -8.037  -0.554  0.00  0.00    +0.020 C 
ATOM     23  C   UNL     1       1.897  -8.378  -1.578  0.00  0.00    +0.020 C 
ATOM     24  C   UNL     1       0.841  -7.288  -1.260  0.00  0.00    +0.105 C 
ENDBRANCH   4  20
BRANCH   1  25
ATOM     25  C   UNL     1      -0.182  -0.758  -1.405  0.00  0.00    +0.339 C 
ATOM     26  O   UNL     1      -0.038  -0.152  -2.448  0.00  0.00    -0.245 OA
BRANCH  25  28
ATOM     27  C   UNL     1      -1.211   1.190  -0.537  0.00  0.00    +0.280 C 
ATOM     28  O   UNL     1      -0.776  -0.159  -0.354  0.00  0.00    -0.464 OA
ENDBRANCH  25  28
ENDBRANCH   1  25
TORSDOF 4
