REMARK  Name = ZINC13133883
REMARK  12 active torsions:
REMARK  status: ('A' for Active; 'I' for Inactive)
REMARK    1  A    between atoms: C_1  and  C_2
REMARK    2  A    between atoms: C_4  and  N_34
REMARK    3  A    between atoms: C_5  and  C_33
REMARK    4  A    between atoms: C_6  and  S_8
REMARK    5  A    between atoms: S_8  and  N_11
REMARK    6  A    between atoms: N_11  and  C_12
REMARK    7  A    between atoms: C_17  and  C_18
REMARK    8  A    between atoms: C_18  and  O_20
REMARK    9  A    between atoms: O_20  and  C_21
REMARK   10  A    between atoms: C_21  and  C_23
REMARK   11  A    between atoms: C_21  and  C_24
REMARK   12  A    between atoms: N_26  and  C_27
REMARK                            x       y       z     vdW  Elec       q    Type
REMARK                         _______ _______ _______ _____ _____    ______ ____
ROOT
ATOM      1  C   UNL     1       0.353  -2.182   2.294  0.00  0.00    +0.062 A 
ATOM      2  C   UNL     1       0.353  -3.558   2.106  0.00  0.00    +0.025 A 
ATOM      3  C   UNL     1       0.544  -4.083   0.844  0.00  0.00    +0.002 A 
ATOM      4  C   UNL     1       0.737  -3.245  -0.243  0.00  0.00    +0.001 A 
ATOM      5  C   UNL     1       0.734  -1.878  -0.077  0.00  0.00    +0.017 A 
ATOM      6  C   UNL     1       0.548  -1.330   1.195  0.00  0.00    +0.081 A 
ENDROOT
BRANCH   1   7
ATOM      7  N   UNL     1       0.160  -1.651   3.563  0.00  0.00    -0.215 N 
ATOM      8  H   UNL     1      -0.339  -0.827   3.673  0.00  0.00    +0.174 HD
BRANCH   7   9
ATOM      9  S   UNL     1       0.781  -2.426   4.888  0.00  0.00    +0.073 S 
ATOM     10  O   UNL     1       0.541  -1.580   6.003  0.00  0.00    -0.150 OA
ATOM     11  O   UNL     1       0.310  -3.766   4.832  0.00  0.00    -0.150 OA
BRANCH   9  17
ATOM     12  C   UNL     1       5.216  -5.109   4.212  0.00  0.00    +0.044 C 
ATOM     13  C   UNL     1       4.530  -3.776   4.368  0.00  0.00    -0.046 A 
ATOM     14  C   UNL     1       5.272  -2.610   4.346  0.00  0.00    +0.036 A 
ATOM     15  C   UNL     1       4.642  -1.388   4.490  0.00  0.00    +0.131 A 
ATOM     16  C   UNL     1       3.270  -1.331   4.650  0.00  0.00    +0.006 A 
ATOM     17  C   UNL     1       2.529  -2.498   4.677  0.00  0.00    +0.114 A 
ATOM     18  C   UNL     1       3.159  -3.720   4.534  0.00  0.00    +0.032 A 
ATOM     19  C   UNL     1       2.583   0.002   4.800  0.00  0.00    +0.048 C 
BRANCH  15  20
ATOM     20  N   UNL     1       5.437  -0.139   4.467  0.00  0.00    +0.057 N 
ATOM     21  O   UNL     1       6.651  -0.191   4.393  0.00  0.00    -0.126 OA
ATOM     22  O   UNL     1       4.876   0.941   4.523  0.00  0.00    -0.126 OA
ENDBRANCH  15  20
ENDBRANCH   9  17
ENDBRANCH   7   9
ENDBRANCH   1   7
BRANCH   6  23
ATOM     23  C   UNL     1       0.550   0.131   1.381  0.00  0.00    +0.342 C 
ATOM     24  O   UNL     1       0.382   0.603   2.488  0.00  0.00    -0.245 OA
BRANCH  23  25
ATOM     25  O   UNL     1       0.737   0.945   0.323  0.00  0.00    -0.449 OA
BRANCH  25  26
ATOM     26  C   UNL     1       0.727   2.374   0.580  0.00  0.00    +0.259 C 
ATOM     27  C   UNL     1       2.147   2.845   0.899  0.00  0.00    +0.062 C 
BRANCH  26  28
ATOM     28  C   UNL     1       0.219   3.100  -0.639  0.00  0.00    +0.254 C 
ATOM     29  O   UNL     1      -0.103   2.474  -1.627  0.00  0.00    -0.272 OA
ATOM     30  N   UNL     1       0.122   4.444  -0.631  0.00  0.00    -0.309 N 
ATOM     31  H   UNL     1       0.380   4.944   0.160  0.00  0.00    +0.149 HD
BRANCH  30  32
ATOM     32  C   UNL     1      -0.372   5.150  -1.816  0.00  0.00    +0.073 C 
ATOM     33  C   UNL     1       0.786   5.386  -2.788  0.00  0.00    +0.022 C 
ATOM     34  C   UNL     1       0.270   6.123  -4.026  0.00  0.00    +0.002 C 
ATOM     35  C   UNL     1      -0.326   7.468  -3.606  0.00  0.00    +0.000 C 
ATOM     36  C   UNL     1      -1.483   7.233  -2.634  0.00  0.00    +0.002 C 
ATOM     37  C   UNL     1      -0.967   6.495  -1.396  0.00  0.00    +0.022 C 
ENDBRANCH  30  32
ENDBRANCH  26  28
ENDBRANCH  25  26
ENDBRANCH  23  25
ENDBRANCH   6  23
TORSDOF 9
