REMARK  Name = ZINC33813991
REMARK  10 active torsions:
REMARK  status: ('A' for Active; 'I' for Inactive)
REMARK    1  A    between atoms: C_1  and  C_2
REMARK    2  A    between atoms: C_2  and  C_3
REMARK    3  A    between atoms: C_3  and  C_4
REMARK    4  A    between atoms: C_4  and  O_5
REMARK    5  A    between atoms: O_5  and  C_6
REMARK    6  A    between atoms: C_9  and  C_12
REMARK    7  A    between atoms: C_14  and  C_15
REMARK    8  A    between atoms: C_15  and  C_16
REMARK    9  A    between atoms: C_17  and  C_25
REMARK   10  A    between atoms: C_35  and  C_37
REMARK                            x       y       z     vdW  Elec       q    Type
REMARK                         _______ _______ _______ _____ _____    ______ ____
ROOT
ATOM      1  C   UNL     1       1.341   1.871  -0.160  0.00  0.00    +0.152 C 
ATOM      2  C   UNL     1       0.048   1.094  -0.079  0.00  0.00    +0.078 C 
ATOM      3  C   UNL     1       0.371  -0.233  -0.363  0.00  0.00    +0.250 C 
ATOM      4  O   UNL     1      -0.411  -1.169  -0.390  0.00  0.00    -0.282 OA
ATOM      5  C   UNL     1       1.829  -0.312  -0.628  0.00  0.00    +0.293 C 
ATOM      6  O   UNL     1       2.432  -1.329  -0.908  0.00  0.00    -0.266 OA
ATOM      7  N   UNL     1       2.388   0.904  -0.504  0.00  0.00    -0.230 N 
ATOM      8  C   UNL     1       3.734   1.198  -0.678  0.00  0.00    +0.191 A 
ATOM      9  N   UNL     1       4.374   2.356  -0.585  0.00  0.00    -0.125 NA
ATOM     10  N   UNL     1       5.617   2.446  -0.777  0.00  0.00    -0.145 NA
ATOM     11  C   UNL     1       6.358   1.399  -1.082  0.00  0.00    +0.101 A 
ATOM     12  S   UNL     1       5.104   0.120  -1.087  0.00  0.00    -0.035 S 
ATOM     13  C   UNL     1       7.839   1.304  -1.345  0.00  0.00    +0.075 C 
ENDROOT
BRANCH   1  17
ATOM     14  C   UNL     1       2.201   3.683   3.613  0.00  0.00    +0.121 A 
ATOM     15  C   UNL     1       1.791   4.466   2.544  0.00  0.00    +0.046 A 
ATOM     16  C   UNL     1       1.513   3.878   1.325  0.00  0.00    +0.009 A 
ATOM     17  C   UNL     1       1.644   2.510   1.171  0.00  0.00    -0.022 A 
ATOM     18  C   UNL     1       2.047   1.727   2.236  0.00  0.00    +0.009 A 
ATOM     19  C   UNL     1       2.331   2.311   3.455  0.00  0.00    +0.046 A 
BRANCH  14  20
ATOM     20  O   UNL     1       2.475   4.259   4.813  0.00  0.00    -0.492 OA
BRANCH  20  21
ATOM     21  C   UNL     1       2.892   3.392   5.869  0.00  0.00    +0.229 C 
BRANCH  21  22
ATOM     22  C   UNL     1       3.153   4.215   7.133  0.00  0.00    +0.041 C 
BRANCH  22  24
ATOM     23  C   UNL     1       3.861   4.109   9.526  0.00  0.00    +0.004 C 
ATOM     24  C   UNL     1       3.600   3.286   8.263  0.00  0.00    -0.000 C 
ENDBRANCH  22  24
ENDBRANCH  21  22
ENDBRANCH  20  21
ENDBRANCH  14  20
ENDBRANCH   1  17
BRANCH   2  25
ATOM     25  C   UNL     1      -1.214   1.600   0.221  0.00  0.00    +0.213 C 
ATOM     26  O   UNL     1      -2.262   0.758   0.371  0.00  0.00    -0.285 OA
BRANCH  25  27
ATOM     27  C   UNL     1      -1.399   2.989   0.368  0.00  0.00    +0.116 A 
ATOM     28  C   UNL     1      -1.662   3.676   1.550  0.00  0.00    +0.068 A 
ATOM     29  N   UNL     1      -1.766   4.961   1.264  0.00  0.00    -0.232 NA
ATOM     30  C   UNL     1      -1.594   5.151  -0.045  0.00  0.00    +0.138 A 
ATOM     31  N   UNL     1      -1.363   3.942  -0.636  0.00  0.00    -0.296 N 
ATOM     32  C   UNL     1      -1.153   3.853  -1.976  0.00  0.00    +0.093 A 
ATOM     33  C   UNL     1      -1.169   4.963  -2.751  0.00  0.00    +0.018 A 
ATOM     34  C   UNL     1      -1.403   6.218  -2.176  0.00  0.00    +0.005 A 
ATOM     35  C   UNL     1      -1.615   6.315  -0.832  0.00  0.00    +0.047 A 
ATOM     36  C   UNL     1      -1.799   3.060   2.918  0.00  0.00    +0.068 C 
ENDBRANCH  25  27
ENDBRANCH   2  25
TORSDOF 7
