REMARK  Name = ZINC64061568
REMARK  2 active torsions:
REMARK  status: ('A' for Active; 'I' for Inactive)
REMARK    1  A    between atoms: C_5  and  C_7
REMARK    2  A    between atoms: C_22  and  C_24
REMARK                            x       y       z     vdW  Elec       q    Type
REMARK                         _______ _______ _______ _____ _____    ______ ____
ROOT
ATOM      1  C   UNL     1       1.351  -2.154  -0.556  0.00  0.00    +0.134 C 
ATOM      2  C   UNL     1       1.888  -3.192   0.434  0.00  0.00    +0.131 C 
ATOM      3  C   UNL     1       1.720  -4.553  -0.229  0.00  0.00    -0.035 C 
ATOM      4  C   UNL     1       2.923  -5.113  -0.248  0.00  0.00    -0.001 A 
ATOM      5  C   UNL     1       3.380  -6.439  -0.695  0.00  0.00    +0.010 A 
ATOM      6  C   UNL     1       4.712  -6.685  -0.580  0.00  0.00    +0.001 A 
ATOM      7  C   UNL     1       5.624  -5.755  -0.072  0.00  0.00    +0.002 A 
ATOM      8  C   UNL     1       5.292  -4.514   0.366  0.00  0.00    +0.026 A 
ATOM      9  C   UNL     1       3.918  -4.141   0.300  0.00  0.00    +0.043 A 
ATOM     10  N   UNL     1       3.322  -3.023   0.675  0.00  0.00    -0.375 N 
ATOM     11  C   UNL     1       0.400  -5.024  -0.789  0.00  0.00    +0.052 C 
ATOM     12  C   UNL     1      -0.122  -3.897  -1.700  0.00  0.00    +0.113 C 
ATOM     13  N   UNL     1       0.029  -2.608  -1.016  0.00  0.00    -0.288 N 
ATOM     14  C   UNL     1      -1.054  -1.834  -0.804  0.00  0.00    +0.249 C 
ATOM     15  O   UNL     1      -0.923  -0.721  -0.332  0.00  0.00    -0.270 OA
ATOM     16  H   UNL     1       3.747  -2.230   1.039  0.00  0.00    +0.160 HD
ENDROOT
BRANCH  14  17
ATOM     17  C   UNL     1      -2.397  -2.337  -1.145  0.00  0.00    +0.053 A 
ATOM     18  C   UNL     1      -2.699  -3.714  -1.014  0.00  0.00    +0.020 A 
ATOM     19  C   UNL     1      -3.946  -4.150  -1.336  0.00  0.00    +0.071 A 
ATOM     20  C   UNL     1      -4.907  -3.227  -1.790  0.00  0.00    +0.249 A 
ATOM     21  N   UNL     1      -4.599  -1.923  -1.907  0.00  0.00    -0.328 N 
ATOM     22  C   UNL     1      -3.373  -1.468  -1.590  0.00  0.00    +0.099 A 
ATOM     23  O   UNL     1      -6.027  -3.613  -2.080  0.00  0.00    -0.268 OA
ATOM     24  H   UNL     1      -5.273  -1.300  -2.222  0.00  0.00    +0.168 HD
ENDBRANCH  14  17
BRANCH   1  29
ATOM     25  C   UNL     1       0.944   0.472   2.126  0.00  0.00    +0.000 A 
ATOM     26  C   UNL     1       0.982   1.636   1.382  0.00  0.00    +0.001 A 
ATOM     27  C   UNL     1       1.139   1.575   0.010  0.00  0.00    +0.020 A 
ATOM     28  C   UNL     1       1.258   0.348  -0.618  0.00  0.00    +0.046 A 
ATOM     29  C   UNL     1       1.221  -0.817   0.127  0.00  0.00    -0.006 A 
ATOM     30  C   UNL     1       1.063  -0.754   1.499  0.00  0.00    +0.007 A 
ATOM     31 CL   UNL     1       1.455   0.270  -2.341  0.00  0.00    -0.083 Cl
ENDBRANCH   1  29
TORSDOF 2
