REMARK  Name = ZINC09231758
REMARK  10 active torsions:
REMARK  status: ('A' for Active; 'I' for Inactive)
REMARK    1  A    between atoms: C_1  and  C_2
REMARK    2  A    between atoms: C_2  and  C_4
REMARK    3  A    between atoms: C_2  and  O_19
REMARK    4  A    between atoms: N_6  and  C_7
REMARK    5  A    between atoms: C_11  and  N_13
REMARK    6  A    between atoms: C_14  and  C_16
REMARK    7  A    between atoms: C_16  and  C_17
REMARK    8  A    between atoms: C_16  and  C_18
REMARK    9  A    between atoms: O_19  and  C_20
REMARK   10  A    between atoms: C_23  and  N_26
REMARK                            x       y       z     vdW  Elec       q    Type
REMARK                         _______ _______ _______ _____ _____    ______ ____
ROOT
ATOM      1  C   UNL     1      -0.883  -0.448   2.643  0.00  0.00    +0.258 C 
ATOM      2  O   UNL     1      -1.357  -0.948   3.642  0.00  0.00    -0.271 OA
ATOM      3  N   UNL     1      -1.622  -0.357   1.520  0.00  0.00    -0.282 N 
ATOM      4  H   UNL     1      -1.221  -0.027   0.701  0.00  0.00    +0.155 HD
ENDROOT
BRANCH   3   5
ATOM      5  C   UNL     1      -2.968  -0.740   1.535  0.00  0.00    +0.035 A 
ATOM      6  C   UNL     1      -3.541  -1.313   0.406  0.00  0.00    +0.023 A 
ATOM      7  C   UNL     1      -4.869  -1.691   0.421  0.00  0.00    +0.004 A 
ATOM      8  C   UNL     1      -5.633  -1.500   1.556  0.00  0.00    +0.023 A 
ATOM      9  C   UNL     1      -5.066  -0.926   2.687  0.00  0.00    +0.035 A 
ATOM     10  C   UNL     1      -3.731  -0.551   2.678  0.00  0.00    +0.046 A 
BRANCH   9  11
ATOM     11  N   UNL     1      -5.840  -0.733   3.837  0.00  0.00    -0.285 N 
ATOM     12  C   UNL     1      -6.829  -1.598   4.137  0.00  0.00    +0.220 C 
ATOM     13  O   UNL     1      -6.987  -2.595   3.465  0.00  0.00    -0.275 OA
ATOM     14  H   UNL     1      -5.665   0.024   4.418  0.00  0.00    +0.155 HD
BRANCH  12  15
ATOM     15  C   UNL     1      -7.739  -1.326   5.308  0.00  0.00    +0.069 C 
ATOM     16  C   UNL     1      -8.464   0.004   5.092  0.00  0.00    +0.017 C 
ATOM     17  C   UNL     1      -8.766  -2.453   5.428  0.00  0.00    +0.017 C 
ENDBRANCH  12  15
ENDBRANCH   9  11
ENDBRANCH   3   5
BRANCH   1  19
ATOM     18  C   UNL     1       1.389  -0.756   1.700  0.00  0.00    +0.062 C 
ATOM     19  C   UNL     1       0.531   0.072   2.659  0.00  0.00    +0.256 C 
BRANCH  19  20
ATOM     20  O   UNL     1       1.062  -0.030   3.982  0.00  0.00    -0.480 OA
BRANCH  20  21
ATOM     21  C   UNL     1       2.104   0.784   4.293  0.00  0.00    +0.122 A 
ATOM     22  C   UNL     1       2.561   1.712   3.368  0.00  0.00    +0.048 A 
ATOM     23  C   UNL     1       3.621   2.539   3.687  0.00  0.00    +0.036 A 
ATOM     24  C   UNL     1       4.226   2.443   4.927  0.00  0.00    +0.126 A 
ATOM     25  C   UNL     1       3.772   1.519   5.850  0.00  0.00    +0.036 A 
ATOM     26  C   UNL     1       2.709   0.694   5.538  0.00  0.00    +0.048 A 
BRANCH  24  27
ATOM     27  N   UNL     1       5.361   3.330   5.266  0.00  0.00    +0.056 N 
ATOM     28  O   UNL     1       5.758   4.138   4.459  0.00  0.00    -0.126 OA
ATOM     29  O   UNL     1       5.890   3.247   6.349  0.00  0.00    -0.126 OA
ENDBRANCH  24  27
ENDBRANCH  20  21
ENDBRANCH  19  20
ENDBRANCH   1  19
TORSDOF 7
