REMARK  Name = ZINC67428442
REMARK  3 active torsions:
REMARK  status: ('A' for Active; 'I' for Inactive)
REMARK    1  A    between atoms: C_10  and  S_14
REMARK    2  A    between atoms: S_14  and  C_15
REMARK    3  A    between atoms: C_18  and  C_20
REMARK                            x       y       z     vdW  Elec       q    Type
REMARK                         _______ _______ _______ _____ _____    ______ ____
ROOT
ATOM      1  C   UNL     1       6.436  -0.144   1.613  0.00  0.00    +0.278 A 
ATOM      2  N   UNL     1       5.747   0.970   1.680  0.00  0.00    -0.101 NA
ATOM      3  N   UNL     1       6.549   1.962   1.845  0.00  0.00    -0.106 NA
ATOM      4  C   UNL     1       7.784   1.521   1.891  0.00  0.00    +0.251 A 
ATOM      5  O   UNL     1       7.738   0.178   1.750  0.00  0.00    -0.411 OA
ENDROOT
BRANCH   4   6
ATOM      6  C   UNL     1       8.998   2.341   2.069  0.00  0.00    +0.063 A 
ATOM      7  C   UNL     1      10.280   1.893   2.111  0.00  0.00    +0.097 A 
ATOM      8  N   UNL     1      11.129   2.946   2.289  0.00  0.00    -0.360 N 
ATOM      9  H   UNL     1      12.094   2.876   2.350  0.00  0.00    +0.165 HD
ATOM     10  C   UNL     1      10.417   4.124   2.369  0.00  0.00    +0.047 A 
ATOM     11  C   UNL     1       9.056   3.804   2.229  0.00  0.00    +0.012 A 
ATOM     12  C   UNL     1       8.095   4.812   2.265  0.00  0.00    +0.011 A 
ATOM     13  C   UNL     1       8.486   6.122   2.434  0.00  0.00    +0.001 A 
ATOM     14  C   UNL     1       9.830   6.440   2.568  0.00  0.00    +0.002 A 
ATOM     15  C   UNL     1      10.791   5.453   2.543  0.00  0.00    +0.026 A 
ENDBRANCH   4   6
BRANCH   1  16
ATOM     16  S   UNL     1       5.781  -1.764   1.392  0.00  0.00    -0.054 S 
BRANCH  16  26
ATOM     17  C   UNL     1      -0.017   1.381   0.010  0.00  0.00    +0.000 A 
ATOM     18  C   UNL     1       1.167   2.099   0.002  0.00  0.00    +0.001 A 
ATOM     19  C   UNL     1       2.380   1.440   0.001  0.00  0.00    +0.011 A 
ATOM     20  C   UNL     1       2.403   0.043  -0.001  0.00  0.00    +0.022 A 
ATOM     21  C   UNL     1       1.207  -0.671  -0.016  0.00  0.00    -0.037 A 
ATOM     22  C   UNL     1       0.002  -0.004   0.002  0.00  0.00    +0.004 A 
ATOM     23  C   UNL     1       1.236  -2.187  -0.093  0.00  0.00    +0.036 C 
ATOM     24  C   UNL     1       1.773  -2.746   1.220  0.00  0.00    +0.006 C 
ATOM     25  C   UNL     1       3.292  -2.836   1.208  0.00  0.00    +0.023 C 
ATOM     26  C   UNL     1       3.990  -1.501   1.277  0.00  0.00    +0.127 C 
ATOM     27  C   UNL     1       3.683  -0.686   0.036  0.00  0.00    +0.177 C 
ATOM     28  O   UNL     1       4.461  -0.637  -0.893  0.00  0.00    -0.291 OA
ENDBRANCH  16  26
ENDBRANCH   1  16
TORSDOF 3
