REMARK  Name = ZINC02087530
REMARK  5 active torsions:
REMARK  status: ('A' for Active; 'I' for Inactive)
REMARK    1  A    between atoms: C_1  and  C_2
REMARK    2  A    between atoms: C_2  and  O_4
REMARK    3  A    between atoms: O_4  and  C_5
REMARK    4  A    between atoms: C_9  and  C_31
REMARK    5  A    between atoms: C_21  and  C_30
REMARK                            x       y       z     vdW  Elec       q    Type
REMARK                         _______ _______ _______ _____ _____    ______ ____
ROOT
ATOM      1  C   UNL     1      -1.547   3.284   2.683  0.00  0.00    +0.177 C 
ATOM      2  C   UNL     1      -0.533   3.436   3.819  0.00  0.00    +0.045 C 
ATOM      3  C   UNL     1      -1.260   3.853   5.099  0.00  0.00    +0.011 C 
ATOM      4  C   UNL     1      -1.972   5.188   4.869  0.00  0.00    -0.026 C 
ATOM      5  C   UNL     1      -2.986   5.036   3.733  0.00  0.00    -0.001 C 
ATOM      6  C   UNL     1      -2.259   4.618   2.453  0.00  0.00    +0.048 C 
ATOM      7  C   UNL     1      -3.699   6.370   3.502  0.00  0.00    +0.004 C 
ATOM      8  C   UNL     1      -4.425   6.788   4.783  0.00  0.00    +0.004 C 
ATOM      9  C   UNL     1      -3.410   6.941   5.917  0.00  0.00    -0.003 C 
ATOM     10  C   UNL     1      -2.699   5.607   6.149  0.00  0.00    -0.001 C 
ATOM     11  C   UNL     1      -1.681   5.766   7.281  0.00  0.00    +0.005 C 
ATOM     12  C   UNL     1      -2.408   6.181   8.561  0.00  0.00    +0.016 C 
ATOM     13  C   UNL     1      -3.120   7.518   8.339  0.00  0.00    +0.048 C 
ATOM     14  C   UNL     1      -4.112   7.382   7.180  0.00  0.00    +0.016 C 
ATOM     15  C   UNL     1      -5.176   6.335   7.589  0.00  0.00    +0.101 C 
ATOM     16  C   UNL     1      -5.806   6.747   8.894  0.00  0.00    +0.220 C 
ATOM     17  O   UNL     1      -6.945   6.410   9.137  0.00  0.00    -0.275 OA
ATOM     18  N   UNL     1      -5.131   7.481   9.793  0.00  0.00    -0.256 N 
ATOM     19  C   UNL     1      -3.868   7.888   9.596  0.00  0.00    +0.225 C 
ATOM     20  O   UNL     1      -3.320   8.564  10.440  0.00  0.00    -0.275 OA
ATOM     21  C   UNL     1      -2.091   8.602   8.013  0.00  0.00    +0.021 C 
ATOM     22  C   UNL     1      -0.944   6.256   4.493  0.00  0.00    +0.012 C 
ATOM     23  H   UNL     1      -5.575   7.727  10.619  0.00  0.00    +0.157 HD
ENDROOT
BRANCH   1  24
ATOM     24  O   UNL     1      -0.857   2.889   1.469  0.00  0.00    -0.462 OA
BRANCH  24  26
ATOM     25  C   UNL     1      -0.013   1.086   0.008  0.00  0.00    +0.136 C 
ATOM     26  C   UNL     1      -0.718   1.572   1.248  0.00  0.00    +0.304 C 
ATOM     27  O   UNL     1      -1.159   0.776   2.043  0.00  0.00    -0.251 OA
ENDBRANCH  24  26
ENDBRANCH   1  24
TORSDOF 2
