REMARK  Name = ZINC21190755
REMARK  6 active torsions:
REMARK  status: ('A' for Active; 'I' for Inactive)
REMARK    1  A    between atoms: C_1  and  C_2
REMARK    2  A    between atoms: C_7  and  C_16
REMARK    3  A    between atoms: C_11  and  C_12
REMARK    4  A    between atoms: C_12  and  O_14
REMARK    5  A    between atoms: O_14  and  C_15
REMARK    6  A    between atoms: C_17  and  C_18
REMARK                            x       y       z     vdW  Elec       q    Type
REMARK                         _______ _______ _______ _____ _____    ______ ____
ROOT
ATOM      1  C   UNL     1      -3.729  -2.303   0.038  0.00  0.00    +0.046 C 
ATOM      2  C   UNL     1      -2.348  -2.905   0.015  0.00  0.00    -0.015 A 
ATOM      3  C   UNL     1      -2.191  -4.291   0.001  0.00  0.00    +0.076 A 
ATOM      4  C   UNL     1      -3.229  -5.346   0.006  0.00  0.00    +0.282 A 
ATOM      5  O   UNL     1      -4.412  -5.056   0.018  0.00  0.00    -0.265 OA
ATOM      6  N   UNL     1      -2.836  -6.635  -0.004  0.00  0.00    -0.190 NA
ATOM      7  C   UNL     1      -1.506  -6.971  -0.018  0.00  0.00    +0.154 A 
ATOM      8  N   UNL     1      -0.560  -6.046  -0.023  0.00  0.00    -0.333 N 
ATOM      9  C   UNL     1      -0.853  -4.758  -0.014  0.00  0.00    +0.093 A 
ATOM     10  S   UNL     1       0.102  -3.261  -0.016  0.00  0.00    -0.064 S 
ATOM     11  C   UNL     1      -1.248  -2.095   0.003  0.00  0.00    +0.102 A 
ATOM     12  H   UNL     1       0.499  -6.343  -0.035  0.00  0.00    +0.168 HD
ENDROOT
BRANCH   7  13
ATOM     13  C   UNL     1      -1.138  -8.338  -0.028  0.00  0.00    +0.084 C 
ATOM     14  C   UNL     1       0.173  -8.687  -0.042  0.00  0.00    +0.038 C 
ATOM     15 CL   UNL     1      -2.363  -9.567  -0.022  0.00  0.00    -0.080 Cl
BRANCH  14  16
ATOM     16  C   UNL     1       0.542 -10.055  -0.051  0.00  0.00    +0.015 A 
ATOM     17  C   UNL     1       1.811 -10.620  -0.071  0.00  0.00    +0.031 A 
ATOM     18  C   UNL     1       1.914 -11.988  -0.073  0.00  0.00    +0.025 A 
ATOM     19  C   UNL     1       0.780 -12.743  -0.066  0.00  0.00    +0.061 A 
ATOM     20  S   UNL     1      -0.503 -11.502  -0.049  0.00  0.00    -0.096 S 
ATOM     21 BR   UNL     1       3.613 -12.818  -0.091  0.00  0.00    -0.050 Br
ENDBRANCH  14  16
ENDBRANCH   7  13
BRANCH  11  22
ATOM     22  C   UNL     1      -1.192  -0.633   0.010  0.00  0.00    +0.346 C 
ATOM     23  O   UNL     1      -2.221   0.016   0.023  0.00  0.00    -0.244 OA
BRANCH  22  24
ATOM     24  O   UNL     1       0.002  -0.004   0.002  0.00  0.00    -0.464 OA
ATOM     25  C   UNL     1      -0.017   1.425   0.010  0.00  0.00    +0.280 C 
ENDBRANCH  22  24
ENDBRANCH  11  22
TORSDOF 4
