REMARK  Name = ZINC12099458
REMARK  8 active torsions:
REMARK  status: ('A' for Active; 'I' for Inactive)
REMARK    1  A    between atoms: C_1  and  C_2
REMARK    2  A    between atoms: C_4  and  C_7
REMARK    3  A    between atoms: C_7  and  C_9
REMARK    4  A    between atoms: C_7  and  N_10
REMARK    5  A    between atoms: C_21  and  N_56
REMARK    6  A    between atoms: C_25  and  C_26
REMARK    7  A    between atoms: C_25  and  N_56
REMARK    8  A    between atoms: C_26  and  C_27
REMARK                            x       y       z     vdW  Elec       q    Type
REMARK                         _______ _______ _______ _____ _____    ______ ____
ROOT
ATOM      1  N   UNL     1       1.825   0.155  -8.619  0.00  0.00    -0.290 N 
ATOM      2  C   UNL     1       2.997   0.832  -8.676  0.00  0.00    +0.203 A 
ATOM      3  N   UNL     1       3.470   1.531  -7.667  0.00  0.00    -0.230 NA
ATOM      4  C   UNL     1       2.747   1.559  -6.551  0.00  0.00    +0.116 A 
ATOM      5  C   UNL     1       1.515   0.887  -6.395  0.00  0.00    +0.076 A 
ATOM      6  C   UNL     1       1.034   0.137  -7.520  0.00  0.00    +0.263 A 
ATOM      7  O   UNL     1      -0.018  -0.479  -7.488  0.00  0.00    -0.267 OA
ATOM      8  C   UNL     1       0.866   1.032  -5.104  0.00  0.00    -0.023 A 
ATOM      9  C   UNL     1       1.506   1.792  -4.184  0.00  0.00    -0.006 A 
ATOM     10  S   UNL     1       2.988   2.346  -4.990  0.00  0.00    -0.073 S 
ATOM     11  C   UNL     1       1.058   2.097  -2.788  0.00  0.00    +0.027 C 
ATOM     12  C   UNL     1      -0.062   1.117  -2.413  0.00  0.00    -0.067 C 
ATOM     13  C   UNL     1      -1.080   1.075  -3.557  0.00  0.00    -0.011 C 
ATOM     14  C   UNL     1      -0.469   0.371  -4.769  0.00  0.00    +0.035 C 
ENDROOT
BRANCH  12  15
ATOM     15  N   UNL     1      -0.732   1.579  -1.182  0.00  0.00    +0.381 N 
ATOM     16  H   UNL     1      -1.695   1.223  -1.167  0.00  0.00    -0.086 HD
ATOM     17  H   UNL     1      -0.746   2.605  -1.168  0.00  0.00    -0.086 HD
BRANCH  15  18
ATOM     18  C   UNL     1      -0.013   1.086   0.008  0.00  0.00    -0.078 C 
BRANCH  18  19
ATOM     19  C   UNL     1      -0.729   1.579   1.267  0.00  0.00    +0.016 C 
BRANCH  19  20
ATOM     20  C   UNL     1       0.000   1.080   2.488  0.00  0.00    -0.046 A 
ATOM     21  C   UNL     1       1.012   1.838   3.046  0.00  0.00    +0.004 A 
ATOM     22  C   UNL     1       1.681   1.382   4.167  0.00  0.00    +0.003 A 
ATOM     23  C   UNL     1       1.339   0.167   4.729  0.00  0.00    +0.038 A 
ATOM     24  C   UNL     1       0.326  -0.594   4.170  0.00  0.00    +0.124 A 
ATOM     25  C   UNL     1      -0.347  -0.133   3.052  0.00  0.00    +0.042 A 
ATOM     26  F   UNL     1      -0.009  -1.782   4.720  0.00  0.00    -0.205 F 
ENDBRANCH  19  20
ENDBRANCH  18  19
ENDBRANCH  15  18
ENDBRANCH  12  15
BRANCH   1  27
ATOM     27  C   UNL     1       1.392  -0.591  -9.803  0.00  0.00    +0.137 C 
ATOM     28  C   UNL     1       1.232   0.371 -10.982  0.00  0.00    +0.038 C 
BRANCH  27  32
ATOM     29  C   UNL     1       6.060  -2.389  -9.740  0.00  0.00    +0.073 C 
ATOM     30  C   UNL     1       4.589  -2.387 -10.070  0.00  0.00    +0.076 A 
ATOM     31  N   UNL     1       3.680  -1.486  -9.780  0.00  0.00    -0.247 NA
ATOM     32  C   UNL     1       2.424  -1.635 -10.144  0.00  0.00    +0.071 A 
ATOM     33  C   UNL     1       2.079  -2.755 -10.829  0.00  0.00    +0.072 A 
ATOM     34  S   UNL     1       3.663  -3.578 -10.930  0.00  0.00    -0.080 S 
ENDBRANCH  27  32
ENDBRANCH   1  27
TORSDOF 6
