REMARK  Name = ZINC17913356
REMARK  11 active torsions:
REMARK  status: ('A' for Active; 'I' for Inactive)
REMARK    1  A    between atoms: C_1  and  N_69
REMARK    2  A    between atoms: C_2  and  N_69
REMARK    3  A    between atoms: C_3  and  C_5
REMARK    4  A    between atoms: C_3  and  C_27
REMARK    5  A    between atoms: C_3  and  N_69
REMARK    6  A    between atoms: C_5  and  N_6
REMARK    7  A    between atoms: C_7  and  C_9
REMARK    8  A    between atoms: N_12  and  S_15
REMARK    9  A    between atoms: S_15  and  C_18
REMARK   10  A    between atoms: C_30  and  O_33
REMARK   11  A    between atoms: O_33  and  C_34
REMARK                            x       y       z     vdW  Elec       q    Type
REMARK                         _______ _______ _______ _____ _____    ______ ____
ROOT
ATOM      1  N   UNL     1       1.394   2.652   0.614  0.00  0.00    -0.316 N 
ATOM      2  C   UNL     1       0.128   2.223   0.792  0.00  0.00    +0.216 C 
ATOM      3  O   UNL     1      -0.127   1.040   0.718  0.00  0.00    -0.276 OA
ATOM      4  H   UNL     1       1.598   3.598   0.673  0.00  0.00    +0.149 HD
ENDROOT
BRANCH   2   5
ATOM      5  C   UNL     1      -0.970   3.215   1.079  0.00  0.00    +0.077 C 
ATOM      6  C   UNL     1      -0.652   3.968   2.373  0.00  0.00    +0.030 C 
ATOM      7  C   UNL     1      -1.752   4.999   2.642  0.00  0.00    +0.110 C 
ATOM      8  N   UNL     1      -3.052   4.314   2.646  0.00  0.00    -0.177 NA
ATOM      9  C   UNL     1      -3.419   3.487   1.488  0.00  0.00    +0.110 C 
ATOM     10  C   UNL     1      -2.300   2.473   1.232  0.00  0.00    +0.030 C 
BRANCH   8  11
ATOM     11  S   UNL     1      -4.084   4.470   3.932  0.00  0.00    +0.061 S 
ATOM     12  O   UNL     1      -3.748   5.691   4.576  0.00  0.00    -0.153 OA
ATOM     13  O   UNL     1      -5.390   4.202   3.439  0.00  0.00    -0.153 OA
BRANCH  11  14
ATOM     14  C   UNL     1      -3.700   3.179   5.068  0.00  0.00    +0.106 A 
ATOM     15  C   UNL     1      -2.760   3.387   6.060  0.00  0.00    +0.029 A 
ATOM     16  C   UNL     1      -2.461   2.374   6.950  0.00  0.00    +0.006 A 
ATOM     17  C   UNL     1      -3.099   1.149   6.851  0.00  0.00    -0.044 A 
ATOM     18  C   UNL     1      -4.038   0.940   5.859  0.00  0.00    -0.042 A 
ATOM     19  C   UNL     1      -4.341   1.959   4.971  0.00  0.00    +0.032 A 
ATOM     20  C   UNL     1      -4.588  -0.466   5.962  0.00  0.00    +0.036 C 
ATOM     21  C   UNL     1      -4.209  -0.945   7.380  0.00  0.00    +0.009 C 
ATOM     22  C   UNL     1      -2.953  -0.104   7.689  0.00  0.00    +0.036 C 
ENDBRANCH  11  14
ENDBRANCH   8  11
ENDBRANCH   2   5
BRANCH   1  23
ATOM     23  C   UNL     1       2.460   1.688   0.330  0.00  0.00    +0.093 C 
BRANCH  23  24
ATOM     24  C   UNL     1       3.762   2.438   0.043  0.00  0.00    -0.021 C 
BRANCH  24  25
ATOM     25  C   UNL     1       3.596   3.277  -1.198  0.00  0.00    -0.059 A 
ATOM     26  C   UNL     1       3.704   2.693  -2.446  0.00  0.00    +0.005 A 
ATOM     27  C   UNL     1       3.546   3.459  -3.585  0.00  0.00    +0.046 A 
ATOM     28  C   UNL     1       3.290   4.818  -3.475  0.00  0.00    +0.120 A 
ATOM     29  C   UNL     1       3.188   5.403  -2.222  0.00  0.00    +0.046 A 
ATOM     30  C   UNL     1       3.341   4.632  -1.086  0.00  0.00    +0.005 A 
BRANCH  28  31
ATOM     31  O   UNL     1       3.141   5.575  -4.594  0.00  0.00    -0.495 OA
ATOM     32  C   UNL     1       3.259   4.905  -5.851  0.00  0.00    +0.277 C 
ENDBRANCH  28  31
ENDBRANCH  24  25
BRANCH  24  35
ATOM     33  C   UNL     1       6.128   2.158  -0.389  0.00  0.00    -0.096 C 
ATOM     34  C   UNL     1       4.946   0.540   0.970  0.00  0.00    -0.096 C 
ATOM     35  N   UNL     1       4.843   1.457  -0.186  0.00  0.00    +0.382 N 
ATOM     36  H   UNL     1       4.625   0.910  -1.027  0.00  0.00    -0.082 HD
ENDBRANCH  24  35
ENDBRANCH  23  24
ENDBRANCH   1  23
TORSDOF 8
