REMARK  Name = ZINC09071212
REMARK  4 active torsions:
REMARK  status: ('A' for Active; 'I' for Inactive)
REMARK    1  A    between atoms: C_1  and  C_2
REMARK    2  A    between atoms: C_5  and  C_31
REMARK    3  A    between atoms: C_10  and  C_12
REMARK    4  A    between atoms: C_23  and  C_25
REMARK                            x       y       z     vdW  Elec       q    Type
REMARK                         _______ _______ _______ _____ _____    ______ ____
ROOT
ATOM      1  C   UNL     1      -4.953   1.407   0.031  0.00  0.00    +0.124 C 
ATOM      2  C   UNL     1      -5.891   2.527  -0.423  0.00  0.00    +0.019 C 
ATOM      3  C   UNL     1      -5.657   3.784   0.418  0.00  0.00    +0.006 C 
ATOM      4  C   UNL     1      -4.288   4.378   0.048  0.00  0.00    +0.044 C 
ATOM      5  C   UNL     1      -3.287   3.274   0.036  0.00  0.00    +0.015 A 
ATOM      6  C   UNL     1      -3.523   1.936   0.029  0.00  0.00    +0.066 A 
ATOM      7  N   UNL     1      -2.446   1.154   0.020  0.00  0.00    -0.229 NA
ATOM      8  C   UNL     1      -1.223   1.644   0.017  0.00  0.00    +0.165 A 
ATOM      9  S   UNL     1      -1.517   3.357   0.035  0.00  0.00    -0.057 S 
ATOM     10  N   UNL     1      -0.011   0.966   0.007  0.00  0.00    -0.261 N 
ATOM     11  C   UNL     1       1.147   1.655   0.000  0.00  0.00    +0.250 C 
ATOM     12  O   UNL     1       1.130   2.871   0.007  0.00  0.00    -0.270 OA
ATOM     13  H   UNL     1       0.002  -0.004   0.002  0.00  0.00    +0.157 HD
ENDROOT
BRANCH   1  21
ATOM     14  C   UNL     1      -5.068  -2.112   1.835  0.00  0.00    +0.009 C 
ATOM     15  C   UNL     1      -3.675  -2.212   1.210  0.00  0.00    +0.004 C 
ATOM     16  C   UNL     1      -3.623  -3.419   0.270  0.00  0.00    +0.009 C 
ATOM     17  C   UNL     1      -4.690  -3.268  -0.817  0.00  0.00    +0.004 C 
ATOM     18  C   UNL     1      -4.404  -2.005  -1.635  0.00  0.00    +0.111 C 
ATOM     19  N   UNL     1      -4.309  -0.860  -0.720  0.00  0.00    -0.300 N 
ATOM     20  C   UNL     1      -3.374  -0.935   0.411  0.00  0.00    +0.111 C 
ATOM     21  C   UNL     1      -5.062   0.241  -0.917  0.00  0.00    +0.225 C 
ATOM     22  O   UNL     1      -5.826   0.293  -1.857  0.00  0.00    -0.275 OA
ATOM     23  C   UNL     1      -4.659  -4.491  -1.737  0.00  0.00    +0.009 C 
ENDBRANCH   1  21
BRANCH  11  24
ATOM     24  C   UNL     1       2.437   0.934  -0.016  0.00  0.00    +0.037 A 
ATOM     25  C   UNL     1       2.459  -0.462  -0.018  0.00  0.00    +0.013 A 
ATOM     26  C   UNL     1       3.667  -1.129  -0.039  0.00  0.00    +0.001 A 
ATOM     27  C   UNL     1       4.853  -0.418  -0.046  0.00  0.00    +0.000 A 
ATOM     28  C   UNL     1       4.838   0.966  -0.039  0.00  0.00    +0.001 A 
ATOM     29  C   UNL     1       3.638   1.645  -0.024  0.00  0.00    +0.013 A 
ENDBRANCH  11  24
TORSDOF 2
