REMARK  Name = ZINC27126672
REMARK  10 active torsions:
REMARK  status: ('A' for Active; 'I' for Inactive)
REMARK    1  A    between atoms: C_1  and  C_2
REMARK    2  A    between atoms: C_4  and  C_23
REMARK    3  A    between atoms: C_5  and  N_9
REMARK    4  A    between atoms: C_6  and  C_8
REMARK    5  A    between atoms: C_10  and  C_12
REMARK    6  A    between atoms: C_12  and  N_13
REMARK    7  A    between atoms: N_13  and  C_14
REMARK    8  A    between atoms: N_13  and  C_15
REMARK    9  A    between atoms: C_15  and  C_16
REMARK   10  A    between atoms: C_16  and  C_17
REMARK                            x       y       z     vdW  Elec       q    Type
REMARK                         _______ _______ _______ _____ _____    ______ ____
ROOT
ATOM      1  C   UNL     1      -4.993   3.846  -0.655  0.00  0.00    +0.018 C 
ENDROOT
BRANCH   1   3
ATOM      2  N   UNL     1      -2.598   3.812  -0.037  0.00  0.00    -0.287 N 
ATOM      3  C   UNL     1      -3.676   3.135  -0.478  0.00  0.00    +0.201 C 
ATOM      4  O   UNL     1      -3.587   1.952  -0.733  0.00  0.00    -0.278 OA
ATOM      5  H   UNL     1      -2.695   4.867   0.261  0.00  0.00    +0.155 HD
BRANCH   2  10
ATOM      6  C   UNL     1       2.442   1.227   0.283  0.00  0.00    +0.044 C 
ATOM      7  C   UNL     1       1.103   1.913   0.198  0.00  0.00    -0.050 A 
ATOM      8  C   UNL     1       0.487   2.075  -1.030  0.00  0.00    +0.008 A 
ATOM      9  C   UNL     1      -0.737   2.709  -1.111  0.00  0.00    -0.029 A 
ATOM     10  C   UNL     1      -1.355   3.175   0.042  0.00  0.00    +0.039 A 
ATOM     11  C   UNL     1      -0.734   3.010   1.273  0.00  0.00    -0.029 A 
ATOM     12  C   UNL     1       0.493   2.380   1.348  0.00  0.00    +0.008 A 
ATOM     13  C   UNL     1      -1.398   3.519   2.526  0.00  0.00    +0.045 C 
ATOM     14  C   UNL     1      -1.405   2.890  -2.450  0.00  0.00    +0.045 C 
ENDBRANCH   2  10
ENDBRANCH   1   3
BRANCH   1  15
ATOM     15  N   UNL     1      -6.001   2.895  -1.142  0.00  0.00    +0.384 N 
ATOM     16  C   UNL     1      -5.673   2.427  -2.495  0.00  0.00    -0.096 C 
ATOM     17  H   UNL     1      -5.995   2.023  -0.471  0.00  0.00    -0.082 HD
BRANCH  15  18
ATOM     18  C   UNL     1      -7.345   3.487  -1.101  0.00  0.00    -0.069 C 
BRANCH  18  19
ATOM     19  C   UNL     1      -8.389   2.402  -1.374  0.00  0.00    +0.078 C 
BRANCH  19  20
ATOM     20  C   UNL     1      -9.768   3.009  -1.332  0.00  0.00    +0.219 C 
ATOM     21  O   UNL     1      -9.902   4.192  -1.107  0.00  0.00    -0.275 OA
ATOM     22  N   UNL     1     -10.851   2.236  -1.545  0.00  0.00    -0.240 N 
ATOM     23  C   UNL     1     -12.084   2.778  -1.508  0.00  0.00    +0.303 C 
ATOM     24  O   UNL     1     -12.219   3.965  -1.282  0.00  0.00    -0.253 OA
ATOM     25  N   UNL     1     -13.167   2.005  -1.721  0.00  0.00    -0.313 N 
ATOM     26  H   UNL     1     -10.729   1.162  -1.750  0.00  0.00    +0.159 HD
ATOM     27  H   UNL     1     -14.174   2.449  -1.691  0.00  0.00    +0.146 HD
ATOM     28  H   UNL     1     -13.045   0.931  -1.926  0.00  0.00    +0.146 HD
ENDBRANCH  19  20
ENDBRANCH  18  19
ENDBRANCH  15  18
ENDBRANCH   1  15
TORSDOF 6
