REMARK  Name = ZINC20697026
REMARK  8 active torsions:
REMARK  status: ('A' for Active; 'I' for Inactive)
REMARK    1  A    between atoms: C_1  and  C_2
REMARK    2  A    between atoms: C_2  and  N_3
REMARK    3  A    between atoms: N_3  and  C_4
REMARK    4  A    between atoms: N_3  and  C_6
REMARK    5  A    between atoms: C_4  and  C_5
REMARK    6  A    between atoms: C_9  and  C_12
REMARK    7  A    between atoms: C_25  and  C_28
REMARK    8  A    between atoms: N_30  and  C_31
REMARK                            x       y       z     vdW  Elec       q    Type
REMARK                         _______ _______ _______ _____ _____    ______ ____
ROOT
ATOM      1  C   UNL     1       0.387  -6.212  -1.473  0.00  0.00    +0.105 C 
ATOM      2  C   UNL     1       1.343  -6.742  -2.527  0.00  0.00    +0.029 C 
ATOM      3  C   UNL     1       2.821  -6.353  -2.393  0.00  0.00    +0.033 C 
ATOM      4  C   UNL     1       3.275  -6.368  -3.854  0.00  0.00    -0.030 C 
ATOM      5  C   UNL     1       2.240  -6.141  -4.654  0.00  0.00    -0.023 C 
ATOM      6  C   UNL     1       1.012  -5.946  -3.825  0.00  0.00    +0.049 C 
ATOM      7  C   UNL     1      -0.337  -6.353  -4.273  0.00  0.00    -0.019 A 
ATOM      8  C   UNL     1      -0.675  -6.450  -5.604  0.00  0.00    +0.006 A 
ATOM      9  C   UNL     1      -1.955  -6.824  -5.983  0.00  0.00    +0.001 A 
ATOM     10  C   UNL     1      -2.908  -7.100  -5.027  0.00  0.00    +0.015 A 
ATOM     11  C   UNL     1      -2.583  -7.011  -3.672  0.00  0.00    +0.058 A 
ATOM     12  C   UNL     1      -1.285  -6.644  -3.285  0.00  0.00    +0.044 A 
ATOM     13  N   UNL     1      -0.966  -6.598  -1.928  0.00  0.00    -0.336 N 
ATOM     14  H   UNL     1      -1.642  -6.824  -1.270  0.00  0.00    +0.147 HD
ENDROOT
BRANCH   1  18
ATOM     15  C   UNL     1       0.696  -1.960  -1.205  0.00  0.00    +0.013 A 
ATOM     16  C   UNL     1      -0.215  -2.533  -2.072  0.00  0.00    +0.022 A 
ATOM     17  C   UNL     1      -0.315  -3.909  -2.159  0.00  0.00    +0.007 A 
ATOM     18  C   UNL     1       0.496  -4.712  -1.379  0.00  0.00    -0.027 A 
ATOM     19  C   UNL     1       1.408  -4.138  -0.512  0.00  0.00    +0.007 A 
ATOM     20  C   UNL     1       1.511  -2.762  -0.428  0.00  0.00    +0.022 A 
BRANCH  15  21
ATOM     21  N   UNL     1       0.796  -0.568  -1.117  0.00  0.00    -0.394 NA
ATOM     22  H   UNL     1       1.508  -0.324  -0.444  0.00  0.00    +0.126 HD
BRANCH  21  24
ATOM     23  C   UNL     1       1.389   1.488  -2.308  0.00  0.00    +0.022 C 
ATOM     24  C   UNL     1       1.156  -0.019  -2.431  0.00  0.00    +0.081 C 
ENDBRANCH  21  24
BRANCH  21  25
ATOM     25  C   UNL     1      -0.493  -0.010  -0.690  0.00  0.00    +0.081 C 
ATOM     26  C   UNL     1      -0.809  -0.483   0.731  0.00  0.00    +0.022 C 
ENDBRANCH  21  25
ENDBRANCH  15  21
ENDBRANCH   1  18
BRANCH  11  27
ATOM     27  C   UNL     1      -3.604  -7.301  -2.649  0.00  0.00    +0.246 C 
ATOM     28  O   UNL     1      -3.357  -7.113  -1.473  0.00  0.00    -0.270 OA
ATOM     29  N   UNL     1      -4.811  -7.775  -3.016  0.00  0.00    -0.308 N 
ATOM     30  H   UNL     1      -5.008  -7.925  -3.954  0.00  0.00    +0.149 HD
BRANCH  29  31
ATOM     31  C   UNL     1      -5.825  -8.063  -1.999  0.00  0.00    +0.073 C 
ATOM     32  C   UNL     1      -5.605  -9.472  -1.444  0.00  0.00    +0.022 C 
ATOM     33  C   UNL     1      -6.664  -9.773  -0.382  0.00  0.00    +0.002 C 
ATOM     34  C   UNL     1      -8.056  -9.685  -1.011  0.00  0.00    +0.000 C 
ATOM     35  C   UNL     1      -8.277  -8.276  -1.566  0.00  0.00    +0.002 C 
ATOM     36  C   UNL     1      -7.218  -7.975  -2.628  0.00  0.00    +0.022 C 
ENDBRANCH  29  31
ENDBRANCH  11  27
TORSDOF 6
