REMARK  Name = ZINC13108036
REMARK  10 active torsions:
REMARK  status: ('A' for Active; 'I' for Inactive)
REMARK    1  A    between atoms: C_4  and  C_7
REMARK    2  A    between atoms: C_10  and  O_13
REMARK    3  A    between atoms: O_13  and  C_14
REMARK    4  A    between atoms: C_14  and  C_15
REMARK    5  A    between atoms: C_15  and  C_17
REMARK    6  A    between atoms: C_15  and  O_36
REMARK    7  A    between atoms: C_17  and  N_18
REMARK    8  A    between atoms: N_21  and  S_24
REMARK    9  A    between atoms: S_24  and  C_27
REMARK   10  A    between atoms: C_31  and  N_33
REMARK                            x       y       z     vdW  Elec       q    Type
REMARK                         _______ _______ _______ _____ _____    ______ ____
ROOT
ATOM      1  C   UNL     1       1.423   1.615  -0.003  0.00  0.00    +0.119 C 
ENDROOT
BRANCH   1   2
ATOM      2  N   UNL     1       2.110   1.142  -1.212  0.00  0.00    -0.297 NA
ATOM      3  C   UNL     1       2.269  -0.319  -1.189  0.00  0.00    +0.101 C 
ATOM      4  C   UNL     1       2.823  -0.790  -2.538  0.00  0.00    +0.125 C 
ATOM      5  N   UNL     1       4.051  -0.035  -2.828  0.00  0.00    -0.174 NA
ATOM      6  C   UNL     1       4.005   1.432  -2.736  0.00  0.00    +0.125 C 
ATOM      7  C   UNL     1       3.405   1.816  -1.379  0.00  0.00    +0.101 C 
BRANCH   5   8
ATOM      8  S   UNL     1       5.450  -0.817  -3.247  0.00  0.00    +0.061 S 
ATOM      9  O   UNL     1       5.067  -2.076  -3.783  0.00  0.00    -0.153 OA
ATOM     10  O   UNL     1       6.233   0.116  -3.978  0.00  0.00    -0.153 OA
BRANCH   8  11
ATOM     11  C   UNL     1       6.327  -1.151  -1.755  0.00  0.00    +0.108 A 
ATOM     12  C   UNL     1       7.236  -0.230  -1.267  0.00  0.00    +0.028 A 
ATOM     13  C   UNL     1       7.920  -0.490  -0.095  0.00  0.00    +0.004 A 
ATOM     14  C   UNL     1       7.703  -1.675   0.585  0.00  0.00    +0.033 A 
ATOM     15  C   UNL     1       6.798  -2.597   0.094  0.00  0.00    +0.128 A 
ATOM     16  C   UNL     1       6.110  -2.335  -1.076  0.00  0.00    +0.061 A 
BRANCH  15  17
ATOM     17  N   UNL     1       6.566  -3.865   0.821  0.00  0.00    +0.056 N 
ATOM     18  O   UNL     1       5.769  -4.678   0.389  0.00  0.00    -0.126 OA
ATOM     19  O   UNL     1       7.172  -4.096   1.852  0.00  0.00    -0.126 OA
ENDBRANCH  15  17
ENDBRANCH   8  11
ENDBRANCH   5   8
ENDBRANCH   1   2
BRANCH   1  20
ATOM     20  C   UNL     1      -0.013   1.086   0.008  0.00  0.00    +0.166 C 
BRANCH  20  21
ATOM     21  O   UNL     1      -0.704   1.559  -1.150  0.00  0.00    -0.387 OA
ATOM     22  H   UNL     1      -0.334   1.304  -2.154  0.00  0.00    +0.210 HD
ENDBRANCH  20  21
BRANCH  20  23
ATOM     23  C   UNL     1      -0.729   1.579   1.267  0.00  0.00    +0.261 C 
BRANCH  23  24
ATOM     24  O   UNL     1      -2.030   0.991   1.336  0.00  0.00    -0.489 OA
BRANCH  24  28
ATOM     25  C   UNL     1      -4.378   2.013   4.575  0.00  0.00    -0.018 A 
ATOM     26  C   UNL     1      -4.863   1.131   3.611  0.00  0.00    +0.012 A 
ATOM     27  C   UNL     1      -4.077   0.792   2.530  0.00  0.00    +0.046 A 
ATOM     28  C   UNL     1      -2.802   1.328   2.402  0.00  0.00    +0.121 A 
ATOM     29  C   UNL     1      -2.314   2.202   3.363  0.00  0.00    +0.046 A 
ATOM     30  C   UNL     1      -3.098   2.549   4.444  0.00  0.00    +0.012 A 
BRANCH  25  34
ATOM     31  C   UNL     1      -6.795   3.064   7.911  0.00  0.00    +0.000 A 
ATOM     32  C   UNL     1      -5.526   3.599   7.785  0.00  0.00    +0.001 A 
ATOM     33  C   UNL     1      -4.737   3.261   6.704  0.00  0.00    +0.008 A 
ATOM     34  C   UNL     1      -5.221   2.380   5.739  0.00  0.00    -0.018 A 
ATOM     35  C   UNL     1      -6.503   1.848   5.869  0.00  0.00    +0.008 A 
ATOM     36  C   UNL     1      -7.281   2.188   6.957  0.00  0.00    +0.001 A 
ENDBRANCH  25  34
ENDBRANCH  24  28
ENDBRANCH  23  24
ENDBRANCH  20  23
ENDBRANCH   1  20
TORSDOF 10
