REMARK  Name = ZINC54558565
REMARK  7 active torsions:
REMARK  status: ('A' for Active; 'I' for Inactive)
REMARK    1  A    between atoms: C_1  and  C_2
REMARK    2  A    between atoms: C_4  and  C_20
REMARK    3  A    between atoms: N_5  and  C_7
REMARK    4  A    between atoms: C_10  and  C_17
REMARK    5  A    between atoms: C_14  and  O_16
REMARK    6  A    between atoms: C_17  and  C_18
REMARK    7  A    between atoms: C_17  and  C_19
REMARK                            x       y       z     vdW  Elec       q    Type
REMARK                         _______ _______ _______ _____ _____    ______ ____
ROOT
ATOM      1  C   UNL     1       0.053  -3.309   1.425  0.00  0.00    +0.138 C 
ATOM      2  C   UNL     1      -1.192  -3.344   2.313  0.00  0.00    +0.033 C 
ATOM      3  C   UNL     1      -1.205  -2.112   3.221  0.00  0.00    -0.006 C 
ATOM      4  C   UNL     1       0.048  -2.113   4.099  0.00  0.00    +0.006 C 
ATOM      5  C   UNL     1       1.293  -2.079   3.211  0.00  0.00    +0.034 C 
ATOM      6  C   UNL     1       1.306  -3.310   2.303  0.00  0.00    +0.139 C 
ENDROOT
BRANCH   1  11
ATOM      7  C   UNL     1      -0.018   1.503   0.010  0.00  0.00    +0.090 C 
ATOM      8  C   UNL     1       0.002  -0.004   0.002  0.00  0.00    +0.148 A 
ATOM      9  N   UNL     1       0.008  -0.772  -1.087  0.00  0.00    -0.217 NA
ATOM     10  C   UNL     1       0.027  -2.034  -0.740  0.00  0.00    +0.125 A 
ATOM     11  N   UNL     1       0.033  -2.097   0.603  0.00  0.00    -0.244 N 
ATOM     12  N   UNL     1       0.022  -0.769   1.062  0.00  0.00    -0.155 NA
ATOM     13  C   UNL     1       0.038  -3.210  -1.681  0.00  0.00    +0.088 C 
ENDBRANCH   1  11
BRANCH   3  14
ATOM     14  C   UNL     1      -2.451  -2.147   4.110  0.00  0.00    -0.014 C 
ATOM     15  C   UNL     1      -2.463  -0.915   5.018  0.00  0.00    +0.007 C 
ATOM     16  C   UNL     1      -3.704  -2.146   3.232  0.00  0.00    +0.007 C 
ENDBRANCH   3  14
BRANCH   6  17
ATOM     17  O   UNL     1       2.469  -3.278   1.474  0.00  0.00    -0.390 OA
ATOM     18  H   UNL     1       3.302  -3.276   1.964  0.00  0.00    +0.210 HD
ENDBRANCH   6  17
TORSDOF 3
