REMARK  Name = ZINC47890990
REMARK  7 active torsions:
REMARK  status: ('A' for Active; 'I' for Inactive)
REMARK    1  A    between atoms: C_1  and  C_2
REMARK    2  A    between atoms: C_2  and  C_3
REMARK    3  A    between atoms: C_2  and  N_13
REMARK    4  A    between atoms: C_7  and  O_9
REMARK    5  A    between atoms: O_9  and  C_10
REMARK    6  A    between atoms: N_16  and  C_17
REMARK    7  A    between atoms: C_21  and  N_23
REMARK                            x       y       z     vdW  Elec       q    Type
REMARK                         _______ _______ _______ _____ _____    ______ ____
ROOT
ATOM      1  N   UNL     1       0.716  -0.449  -1.218  0.00  0.00    -0.293 N 
ATOM      2  C   UNL     1       0.025  -0.598  -2.366  0.00  0.00    +0.304 C 
ATOM      3  O   UNL     1      -1.164  -0.342  -2.397  0.00  0.00    -0.252 OA
ATOM      4  N   UNL     1       0.650  -1.029  -3.479  0.00  0.00    -0.269 N 
ATOM      5  H   UNL     1       1.664  -0.653  -1.194  0.00  0.00    +0.151 HD
ATOM      6  H   UNL     1       1.610  -1.171  -3.471  0.00  0.00    +0.156 HD
ENDROOT
BRANCH   4   7
ATOM      7  C   UNL     1      -0.084  -1.273  -4.645  0.00  0.00    +0.037 A 
ATOM      8  C   UNL     1      -1.173  -0.470  -4.961  0.00  0.00    +0.023 A 
ATOM      9  C   UNL     1      -1.898  -0.710  -6.112  0.00  0.00    +0.004 A 
ATOM     10  C   UNL     1      -1.544  -1.748  -6.952  0.00  0.00    +0.024 A 
ATOM     11  C   UNL     1      -0.456  -2.554  -6.641  0.00  0.00    +0.040 A 
ATOM     12  C   UNL     1       0.278  -2.312  -5.489  0.00  0.00    +0.047 A 
BRANCH  11  13
ATOM     13  N   UNL     1      -0.098  -3.605  -7.493  0.00  0.00    -0.254 N 
ATOM     14  C   UNL     1      -0.708  -3.889  -8.800  0.00  0.00    +0.134 C 
ATOM     15  C   UNL     1       0.050  -5.134  -9.299  0.00  0.00    +0.125 C 
ATOM     16  N   UNL     1       1.007  -5.420  -8.220  0.00  0.00    -0.297 N 
ATOM     17  C   UNL     1       0.860  -4.510  -7.248  0.00  0.00    +0.307 C 
ATOM     18  O   UNL     1       1.531  -4.507  -6.235  0.00  0.00    -0.252 OA
ATOM     19  H   UNL     1       1.647  -6.149  -8.214  0.00  0.00    +0.150 HD
ENDBRANCH  11  13
ENDBRANCH   4   7
BRANCH   1  21
ATOM     20  C   UNL     1      -0.008   1.550  -0.009  0.00  0.00    +0.033 C 
ATOM     21  C   UNL     1       0.035   0.020  -0.009  0.00  0.00    +0.102 C 
BRANCH  21  22
ATOM     22  C   UNL     1       0.784  -0.461   1.207  0.00  0.00    -0.024 A 
ATOM     23  C   UNL     1       2.167  -0.450   1.216  0.00  0.00    +0.006 A 
ATOM     24  C   UNL     1       2.857  -0.891   2.330  0.00  0.00    +0.004 A 
ATOM     25  C   UNL     1       2.166  -1.344   3.438  0.00  0.00    +0.046 A 
ATOM     26  C   UNL     1       0.779  -1.355   3.431  0.00  0.00    +0.127 A 
ATOM     27  C   UNL     1       0.089  -0.907   2.314  0.00  0.00    +0.051 A 
BRANCH  26  28
ATOM     28  O   UNL     1       0.097  -1.800   4.519  0.00  0.00    -0.434 OA
BRANCH  28  29
ATOM     29  C   UNL     1       0.872  -2.241   5.636  0.00  0.00    +0.541 C 
ATOM     30  F   UNL     1       1.690  -3.306   5.243  0.00  0.00    -0.166 F 
ATOM     31  F   UNL     1       1.669  -1.187   6.096  0.00  0.00    -0.166 F 
ENDBRANCH  28  29
ENDBRANCH  26  28
ENDBRANCH  21  22
ENDBRANCH   1  21
TORSDOF 6
