REMARK  Name = ZINC12482159
REMARK  11 active torsions:
REMARK  status: ('A' for Active; 'I' for Inactive)
REMARK    1  A    between atoms: C_1  and  C_2
REMARK    2  A    between atoms: C_6  and  C_8
REMARK    3  A    between atoms: C_8  and  C_9
REMARK    4  A    between atoms: C_9  and  N_10
REMARK    5  A    between atoms: N_10  and  C_11
REMARK    6  A    between atoms: C_11  and  C_13
REMARK    7  A    between atoms: C_11  and  C_18
REMARK    8  A    between atoms: N_20  and  C_21
REMARK    9  A    between atoms: C_21  and  C_22
REMARK   10  A    between atoms: C_28  and  C_30
REMARK   11  A    between atoms: C_30  and  N_31
REMARK                            x       y       z     vdW  Elec       q    Type
REMARK                         _______ _______ _______ _____ _____    ______ ____
ROOT
ATOM      1  N   UNL     1      -0.731   5.308   0.864  0.00  0.00    -0.282 N 
ATOM      2  C   UNL     1      -1.096   5.659   2.113  0.00  0.00    +0.238 C 
ATOM      3  O   UNL     1      -2.181   5.328   2.543  0.00  0.00    -0.274 OA
ENDROOT
BRANCH   1   4
ATOM      4  C   UNL     1       0.579   5.707   0.345  0.00  0.00    +0.113 C 
BRANCH   4   5
ATOM      5  C   UNL     1       0.458   7.058  -0.364  0.00  0.00    +0.054 C 
BRANCH   5  11
ATOM      6  C   UNL     1       4.675   9.577   0.590  0.00  0.00    +0.044 C 
ATOM      7  C   UNL     1       3.842   8.730  -0.337  0.00  0.00    -0.050 A 
ATOM      8  C   UNL     1       4.332   8.382  -1.583  0.00  0.00    +0.003 A 
ATOM      9  C   UNL     1       3.568   7.605  -2.433  0.00  0.00    +0.001 A 
ATOM     10  C   UNL     1       2.314   7.176  -2.038  0.00  0.00    +0.004 A 
ATOM     11  C   UNL     1       1.825   7.524  -0.794  0.00  0.00    -0.046 A 
ATOM     12  C   UNL     1       2.587   8.306   0.055  0.00  0.00    +0.007 A 
ENDBRANCH   5  11
ENDBRANCH   4   5
ENDBRANCH   1   4
BRANCH   1  13
ATOM     13  C   UNL     1      -1.645   4.529   0.025  0.00  0.00    +0.228 C 
BRANCH  13  14
ATOM     14  C   UNL     1      -2.906   5.319  -0.213  0.00  0.00    +0.134 A 
ATOM     15  C   UNL     1      -3.587   5.383  -1.371  0.00  0.00    +0.047 A 
ATOM     16  C   UNL     1      -4.694   6.234  -1.149  0.00  0.00    +0.041 A 
ATOM     17  C   UNL     1      -4.628   6.631   0.134  0.00  0.00    +0.195 A 
ATOM     18  O   UNL     1      -3.543   6.075   0.696  0.00  0.00    -0.465 OA
ENDBRANCH  13  14
BRANCH  13  19
ATOM     19  C   UNL     1      -1.987   3.237   0.721  0.00  0.00    +0.241 C 
ATOM     20  O   UNL     1      -1.610   3.042   1.858  0.00  0.00    -0.273 OA
ATOM     21  N   UNL     1      -2.711   2.297   0.081  0.00  0.00    -0.311 N 
ATOM     22  H   UNL     1      -3.012   2.453  -0.828  0.00  0.00    +0.149 HD
BRANCH  21  23
ATOM     23  C   UNL     1      -3.043   1.041   0.757  0.00  0.00    +0.135 C 
BRANCH  23  24
ATOM     24  C   UNL     1      -3.865   0.157  -0.183  0.00  0.00    +0.135 C 
ATOM     25  C   UNL     1      -4.219  -1.168   0.520  0.00  0.00    +0.035 C 
ATOM     26  C   UNL     1      -5.767  -1.206   0.499  0.00  0.00    +0.031 C 
ATOM     27  C   UNL     1      -6.100  -0.222  -0.652  0.00  0.00    +0.160 C 
ATOM     28  O   UNL     1      -5.102   0.811  -0.512  0.00  0.00    -0.375 OA
ENDBRANCH  23  24
ENDBRANCH  21  23
ENDBRANCH  13  19
ENDBRANCH   1  13
BRANCH   2  29
ATOM     29  C   UNL     1      -0.156   6.460   2.976  0.00  0.00    +0.241 C 
BRANCH  29  30
ATOM     30  N   UNL     1      -0.781   6.710   4.277  0.00  0.00    -0.235 N 
ATOM     31  C   UNL     1      -1.565   7.786   4.620  0.00  0.00    +0.090 A 
ATOM     32  C   UNL     1      -2.022   8.906   3.935  0.00  0.00    +0.029 A 
ATOM     33  C   UNL     1      -2.817   9.816   4.574  0.00  0.00    +0.002 A 
ATOM     34  C   UNL     1      -3.179   9.629   5.902  0.00  0.00    +0.002 A 
ATOM     35  C   UNL     1      -2.750   8.535   6.594  0.00  0.00    +0.032 A 
ATOM     36  C   UNL     1      -1.933   7.587   5.963  0.00  0.00    +0.113 A 
ATOM     37  N   UNL     1      -1.367   6.436   6.376  0.00  0.00    -0.129 NA
ATOM     38  N   UNL     1      -0.691   5.902   5.421  0.00  0.00    -0.064 NA
ENDBRANCH  29  30
ENDBRANCH   2  29
TORSDOF 10
