REMARK  Name = ZINC36332424
REMARK  13 active torsions:
REMARK  status: ('A' for Active; 'I' for Inactive)
REMARK    1  A    between atoms: C_1  and  C_2
REMARK    2  A    between atoms: C_2  and  C_3
REMARK    3  A    between atoms: C_6  and  C_9
REMARK    4  A    between atoms: C_9  and  C_11
REMARK    5  A    between atoms: C_9  and  N_34
REMARK    6  A    between atoms: C_11  and  N_12
REMARK    7  A    between atoms: C_13  and  C_15
REMARK    8  A    between atoms: C_19  and  S_21
REMARK    9  A    between atoms: S_21  and  N_24
REMARK   10  A    between atoms: C_26  and  C_33
REMARK   11  A    between atoms: C_29  and  C_32
REMARK   12  A    between atoms: N_34  and  C_35
REMARK   13  A    between atoms: N_34  and  C_36
REMARK                            x       y       z     vdW  Elec       q    Type
REMARK                         _______ _______ _______ _____ _____    ______ ____
ROOT
ATOM      1  N   UNL     1       3.266  -3.747   6.204  0.00  0.00    -0.313 N 
ATOM      2  C   UNL     1       3.276  -5.034   6.607  0.00  0.00    +0.244 C 
ATOM      3  O   UNL     1       2.685  -5.877   5.961  0.00  0.00    -0.270 OA
ATOM      4  H   UNL     1       3.737  -3.074   6.720  0.00  0.00    +0.149 HD
ENDROOT
BRANCH   2   5
ATOM      5  C   UNL     1       4.005  -5.419   7.834  0.00  0.00    +0.039 A 
ATOM      6  C   UNL     1       4.680  -4.452   8.581  0.00  0.00    +0.013 A 
ATOM      7  C   UNL     1       5.358  -4.818   9.725  0.00  0.00    +0.003 A 
ATOM      8  C   UNL     1       5.371  -6.140  10.132  0.00  0.00    +0.028 A 
ATOM      9  C   UNL     1       4.705  -7.104   9.396  0.00  0.00    +0.106 A 
ATOM     10  C   UNL     1       4.018  -6.750   8.253  0.00  0.00    +0.041 A 
BRANCH   9  11
ATOM     11  S   UNL     1       4.728  -8.785   9.923  0.00  0.00    +0.061 S 
ATOM     12  O   UNL     1       4.487  -9.576   8.768  0.00  0.00    -0.153 OA
ATOM     13  O   UNL     1       5.890  -8.943  10.725  0.00  0.00    -0.153 OA
BRANCH  11  14
ATOM     14  N   UNL     1       3.428  -9.002  10.925  0.00  0.00    -0.172 NA
ATOM     15  C   UNL     1       3.543  -8.774  12.375  0.00  0.00    +0.140 C 
ATOM     16  C   UNL     1       2.399  -7.852  12.811  0.00  0.00    +0.131 C 
ATOM     17  O   UNL     1       1.158  -8.390  12.349  0.00  0.00    -0.371 OA
ATOM     18  C   UNL     1       1.049  -8.473  10.926  0.00  0.00    +0.131 C 
ATOM     19  C   UNL     1       2.122  -9.422  10.392  0.00  0.00    +0.140 C 
ATOM     20  C   UNL     1      -0.337  -9.000  10.549  0.00  0.00    +0.039 C 
ATOM     21  C   UNL     1       2.608  -6.460  12.212  0.00  0.00    +0.039 C 
ENDBRANCH  11  14
ENDBRANCH   9  11
ENDBRANCH   2   5
BRANCH   1  22
ATOM     22  C   UNL     1       2.543  -3.366   4.989  0.00  0.00    +0.094 C 
BRANCH  22  23
ATOM     23  C   UNL     1       2.798  -1.888   4.686  0.00  0.00    -0.021 C 
BRANCH  23  27
ATOM     24  C   UNL     1       6.931  -1.317   3.768  0.00  0.00    -0.048 A 
ATOM     25  C   UNL     1       6.455  -1.011   5.029  0.00  0.00    +0.004 A 
ATOM     26  C   UNL     1       5.117  -1.196   5.327  0.00  0.00    +0.002 A 
ATOM     27  C   UNL     1       4.256  -1.685   4.362  0.00  0.00    -0.059 A 
ATOM     28  C   UNL     1       4.732  -1.990   3.101  0.00  0.00    +0.002 A 
ATOM     29  C   UNL     1       6.069  -1.802   2.803  0.00  0.00    +0.004 A 
BRANCH  24  31
ATOM     30  C   UNL     1       8.601   0.302   2.908  0.00  0.00    +0.009 C 
ATOM     31  C   UNL     1       8.389  -1.115   3.444  0.00  0.00    +0.032 C 
ENDBRANCH  24  31
ENDBRANCH  23  27
BRANCH  23  32
ATOM     32  N   UNL     1       1.980  -1.474   3.539  0.00  0.00    +0.382 N 
ATOM     33  C   UNL     1       0.558  -1.655   3.862  0.00  0.00    -0.096 C 
ATOM     34  C   UNL     1       2.238  -0.060   3.238  0.00  0.00    -0.096 C 
ATOM     35  H   UNL     1       2.216  -2.038   2.736  0.00  0.00    -0.082 HD
ENDBRANCH  23  32
ENDBRANCH  22  23
ENDBRANCH   1  22
TORSDOF 8
