REMARK  Name = ZINC12419338
REMARK  13 active torsions:
REMARK  status: ('A' for Active; 'I' for Inactive)
REMARK    1  A    between atoms: C_1  and  C_2
REMARK    2  A    between atoms: C_2  and  C_3
REMARK    3  A    between atoms: C_3  and  C_4
REMARK    4  A    between atoms: C_4  and  N_5
REMARK    5  A    between atoms: C_6  and  C_7
REMARK    6  A    between atoms: C_6  and  C_13
REMARK    7  A    between atoms: C_14  and  N_26
REMARK    8  A    between atoms: C_16  and  C_23
REMARK    9  A    between atoms: C_18  and  C_22
REMARK   10  A    between atoms: C_23  and  O_24
REMARK   11  A    between atoms: O_24  and  C_25
REMARK   12  A    between atoms: C_27  and  C_29
REMARK   13  A    between atoms: C_32  and  N_35
REMARK                            x       y       z     vdW  Elec       q    Type
REMARK                         _______ _______ _______ _____ _____    ______ ____
ROOT
ATOM      1  C   UNL     1      -0.195   4.005  -0.631  0.00  0.00    +0.060 A 
ATOM      2  C   UNL     1      -0.867   3.592   0.494  0.00  0.00    +0.060 A 
ATOM      3  C   UNL     1      -2.208   4.105   0.727  0.00  0.00    +0.035 A 
ATOM      4  C   UNL     1      -3.090   3.824   1.801  0.00  0.00    -0.009 A 
ATOM      5  C   UNL     1      -4.326   4.425   1.823  0.00  0.00    +0.029 A 
ATOM      6  C   UNL     1      -4.702   5.293   0.808  0.00  0.00    +0.040 A 
ATOM      7  N   UNL     1      -3.874   5.561  -0.183  0.00  0.00    -0.245 NA
ATOM      8  C   UNL     1      -2.684   5.006  -0.252  0.00  0.00    +0.111 A 
ATOM      9  S   UNL     1      -1.349   5.112  -1.418  0.00  0.00    -0.065 S 
ATOM     10  C   UNL     1      -6.060   5.946   0.847  0.00  0.00    +0.065 C 
ENDROOT
BRANCH   2  11
ATOM     11  N   UNL     1      -0.279   2.698   1.389  0.00  0.00    -0.280 N 
ATOM     12  C   UNL     1       0.805   3.070   2.098  0.00  0.00    +0.248 C 
ATOM     13  O   UNL     1       1.285   4.176   1.940  0.00  0.00    -0.270 OA
ATOM     14  H   UNL     1      -0.701   1.690   1.516  0.00  0.00    +0.155 HD
BRANCH  12  15
ATOM     15  C   UNL     1       1.414   2.131   3.063  0.00  0.00    +0.037 A 
ATOM     16  C   UNL     1       0.804   0.903   3.327  0.00  0.00    +0.015 A 
ATOM     17  C   UNL     1       1.381   0.029   4.225  0.00  0.00    +0.033 A 
ATOM     18  C   UNL     1       2.556   0.371   4.871  0.00  0.00    +0.126 A 
ATOM     19  C   UNL     1       3.163   1.589   4.618  0.00  0.00    +0.033 A 
ATOM     20  C   UNL     1       2.599   2.470   3.719  0.00  0.00    +0.015 A 
BRANCH  18  21
ATOM     21  N   UNL     1       3.166  -0.569   5.838  0.00  0.00    +0.056 N 
ATOM     22  O   UNL     1       4.200  -0.271   6.408  0.00  0.00    -0.126 OA
ATOM     23  O   UNL     1       2.634  -1.642   6.063  0.00  0.00    -0.126 OA
ENDBRANCH  18  21
ENDBRANCH  12  15
ENDBRANCH   2  11
BRANCH   1  25
ATOM     24  N   UNL     1       2.163   3.714  -0.254  0.00  0.00    -0.383 N 
ATOM     25  C   UNL     1       1.151   3.625  -1.078  0.00  0.00    +0.058 C 
ATOM     26  H   UNL     1       1.999   4.025   0.788  0.00  0.00    +0.160 HD
BRANCH  25  27
ATOM     27  C   UNL     1       1.363   3.141  -2.463  0.00  0.00    -0.001 A 
ATOM     28  C   UNL     1       2.374   3.692  -3.250  0.00  0.00    +0.010 A 
ATOM     29  C   UNL     1       2.569   3.234  -4.537  0.00  0.00    +0.001 A 
ATOM     30  C   UNL     1       1.758   2.238  -5.051  0.00  0.00    +0.000 A 
ATOM     31  C   UNL     1       0.750   1.692  -4.277  0.00  0.00    +0.001 A 
ATOM     32  C   UNL     1       0.548   2.138  -2.987  0.00  0.00    +0.010 A 
ENDBRANCH  25  27
BRANCH  24  33
ATOM     33  C   UNL     1       3.517   3.399  -0.719  0.00  0.00    +0.113 C 
BRANCH  33  34
ATOM     34  C   UNL     1       4.421   4.616  -0.518  0.00  0.00    +0.021 C 
BRANCH  34  36
ATOM     35  C   UNL     1       6.704   5.549  -0.918  0.00  0.00    +0.004 C 
ATOM     36  C   UNL     1       5.799   4.332  -1.119  0.00  0.00    -0.002 C 
ENDBRANCH  34  36
ENDBRANCH  33  34
ENDBRANCH  24  33
ENDBRANCH   1  25
BRANCH   4  37
ATOM     37  C   UNL     1      -2.679   2.879   2.901  0.00  0.00    +0.195 C 
BRANCH  37  38
ATOM     38  O   UNL     1      -3.738   2.768   3.853  0.00  0.00    -0.378 OA
ATOM     39  C   UNL     1      -3.449   1.891   4.944  0.00  0.00    +0.194 C 
ENDBRANCH  37  38
ENDBRANCH   4  37
TORSDOF 10
