REMARK  Name = ZINC15783920
REMARK  9 active torsions:
REMARK  status: ('A' for Active; 'I' for Inactive)
REMARK    1  A    between atoms: C_1  and  C_2
REMARK    2  A    between atoms: C_5  and  C_29
REMARK    3  A    between atoms: C_6  and  S_8
REMARK    4  A    between atoms: S_8  and  N_11
REMARK    5  A    between atoms: N_11  and  C_12
REMARK    6  A    between atoms: C_12  and  C_13
REMARK    7  A    between atoms: C_13  and  C_14
REMARK    8  A    between atoms: C_20  and  C_22
REMARK    9  A    between atoms: C_27  and  C_28
REMARK                            x       y       z     vdW  Elec       q    Type
REMARK                         _______ _______ _______ _____ _____    ______ ____
ROOT
ATOM      1  C   UNL     1      -3.410  -5.415  -0.060  0.00  0.00    +0.073 C 
ENDROOT
BRANCH   1   2
ATOM      2  C   UNL     1      -3.993  -4.025  -0.065  0.00  0.00    +0.054 A 
ATOM      3  C   UNL     1      -5.306  -3.861  -0.241  0.00  0.00    +0.072 A 
ATOM      4  S   UNL     1      -5.462  -2.083  -0.166  0.00  0.00    -0.056 S 
ATOM      5  C   UNL     1      -3.745  -1.709   0.098  0.00  0.00    +0.196 A 
ATOM      6  N   UNL     1      -3.167  -2.942   0.111  0.00  0.00    -0.210 N 
ATOM      7  N   UNL     1      -1.788  -2.679   0.320  0.00  0.00    -0.144 NA
ATOM      8  C   UNL     1      -1.640  -1.377   0.412  0.00  0.00    +0.183 A 
ATOM      9  N   UNL     1      -2.837  -0.792   0.281  0.00  0.00    -0.200 NA
BRANCH   8  10
ATOM     10  C   UNL     1      -0.355  -0.669   0.633  0.00  0.00    +0.024 A 
ATOM     11  C   UNL     1       0.524  -1.106   1.623  0.00  0.00    +0.012 A 
ATOM     12  C   UNL     1       1.718  -0.445   1.824  0.00  0.00    +0.001 A 
ATOM     13  C   UNL     1       2.044   0.651   1.044  0.00  0.00    +0.000 A 
ATOM     14  C   UNL     1       1.176   1.090   0.061  0.00  0.00    +0.004 A 
ATOM     15  C   UNL     1      -0.021   0.435  -0.148  0.00  0.00    -0.040 A 
ATOM     16  C   UNL     1      -0.963   0.910  -1.225  0.00  0.00    +0.044 C 
ENDBRANCH   8  10
ENDBRANCH   1   2
BRANCH   1  17
ATOM     17  C   UNL     1      -3.127  -5.855  -1.497  0.00  0.00    +0.112 C 
BRANCH  17  18
ATOM     18  N   UNL     1      -2.560  -7.206  -1.492  0.00  0.00    -0.190 NA
ATOM     19  H   UNL     1      -2.197  -7.576  -0.672  0.00  0.00    +0.148 HD
BRANCH  18  20
ATOM     20  S   UNL     1      -2.540  -8.101  -2.885  0.00  0.00    +0.059 S 
ATOM     21  O   UNL     1      -1.899  -9.329  -2.569  0.00  0.00    -0.153 OA
ATOM     22  O   UNL     1      -3.853  -8.044  -3.423  0.00  0.00    -0.153 OA
BRANCH  20  28
ATOM     23  C   UNL     1      -1.768  -5.509  -7.357  0.00  0.00    +0.044 C 
ATOM     24  C   UNL     1      -1.194  -6.082  -6.087  0.00  0.00    -0.049 A 
ATOM     25  C   UNL     1       0.156  -5.952  -5.818  0.00  0.00    +0.004 A 
ATOM     26  C   UNL     1       0.682  -6.478  -4.653  0.00  0.00    +0.005 A 
ATOM     27  C   UNL     1      -0.141  -7.134  -3.758  0.00  0.00    -0.024 A 
ATOM     28  C   UNL     1      -1.491  -7.264  -4.026  0.00  0.00    +0.108 A 
ATOM     29  C   UNL     1      -2.016  -6.742  -5.194  0.00  0.00    +0.032 A 
ATOM     30  C   UNL     1       0.433  -7.708  -2.488  0.00  0.00    +0.046 C 
ENDBRANCH  20  28
ENDBRANCH  18  20
ENDBRANCH  17  18
ENDBRANCH   1  17
TORSDOF 6
