REMARK  Name = ZINC20733849
REMARK  14 active torsions:
REMARK  status: ('A' for Active; 'I' for Inactive)
REMARK    1  A    between atoms: C_1  and  C_2
REMARK    2  A    between atoms: C_2  and  C_3
REMARK    3  A    between atoms: C_3  and  N_4
REMARK    4  A    between atoms: N_4  and  C_5
REMARK    5  A    between atoms: N_4  and  C_8
REMARK    6  A    between atoms: C_5  and  C_6
REMARK    7  A    between atoms: C_6  and  C_7
REMARK    8  A    between atoms: C_8  and  C_9
REMARK    9  A    between atoms: C_9  and  C_10
REMARK   10  A    between atoms: C_10  and  N_11
REMARK   11  A    between atoms: C_12  and  C_14
REMARK   12  A    between atoms: C_17  and  C_20
REMARK   13  A    between atoms: N_24  and  C_32
REMARK   14  A    between atoms: C_32  and  C_33
REMARK                            x       y       z     vdW  Elec       q    Type
REMARK                         _______ _______ _______ _____ _____    ______ ____
ROOT
ATOM      1  C   UNL     1      -3.253  -0.977   1.404  0.00  0.00    +0.037 A 
ATOM      2  C   UNL     1      -4.226   0.020   1.518  0.00  0.00    +0.013 A 
ATOM      3  C   UNL     1      -4.879   0.206   2.703  0.00  0.00    +0.009 A 
ATOM      4  C   UNL     1      -4.564  -0.594   3.808  0.00  0.00    -0.021 A 
ATOM      5  C   UNL     1      -3.584  -1.589   3.694  0.00  0.00    +0.009 A 
ATOM      6  C   UNL     1      -2.938  -1.776   2.506  0.00  0.00    +0.013 A 
ENDROOT
BRANCH   4   7
ATOM      7  C   UNL     1      -5.261  -0.391   5.086  0.00  0.00    +0.059 C 
ATOM      8  C   UNL     1      -6.077   0.675   5.249  0.00  0.00    +0.191 C 
ATOM      9  C   UNL     1      -7.003   0.771   6.400  0.00  0.00    +0.287 C 
ATOM     10  O   UNL     1      -7.410  -0.226   6.967  0.00  0.00    -0.266 OA
ATOM     11  N   UNL     1      -7.376   2.013   6.798  0.00  0.00    -0.257 N 
ATOM     12  C   UNL     1      -6.868   3.123   6.112  0.00  0.00    +0.079 A 
ATOM     13  C   UNL     1      -7.006   4.395   6.650  0.00  0.00    +0.027 A 
ATOM     14  C   UNL     1      -6.501   5.489   5.973  0.00  0.00    +0.002 A 
ATOM     15  C   UNL     1      -5.859   5.321   4.759  0.00  0.00    +0.004 A 
ATOM     16  C   UNL     1      -5.719   4.058   4.215  0.00  0.00    +0.048 A 
ATOM     17  C   UNL     1      -6.222   2.956   4.888  0.00  0.00    +0.150 A 
ATOM     18  O   UNL     1      -6.086   1.710   4.356  0.00  0.00    -0.449 OA
BRANCH  11  19
ATOM     19  C   UNL     1      -8.298   2.190   7.923  0.00  0.00    +0.152 C 
BRANCH  19  20
ATOM     20  C   UNL     1      -9.716   2.201   7.412  0.00  0.00    +0.005 A 
ATOM     21  C   UNL     1     -10.380   3.401   7.242  0.00  0.00    +0.008 A 
ATOM     22  C   UNL     1     -11.679   3.412   6.769  0.00  0.00    +0.000 A 
ATOM     23  C   UNL     1     -12.319   2.222   6.476  0.00  0.00    +0.003 A 
ATOM     24  C   UNL     1     -11.659   1.021   6.651  0.00  0.00    +0.038 A 
ATOM     25  C   UNL     1     -10.356   1.009   7.120  0.00  0.00    +0.128 A 
ATOM     26  F   UNL     1      -9.710  -0.165   7.292  0.00  0.00    -0.205 F 
ENDBRANCH  19  20
ENDBRANCH  11  19
ENDBRANCH   4   7
BRANCH   1  28
ATOM     27  N   UNL     1      -2.856  -0.410  -0.944  0.00  0.00    -0.311 N 
ATOM     28  C   UNL     1      -2.553  -1.181   0.120  0.00  0.00    +0.244 C 
ATOM     29  O   UNL     1      -1.702  -2.045   0.022  0.00  0.00    -0.270 OA
ATOM     30  H   UNL     1      -3.625   0.371  -0.855  0.00  0.00    +0.149 HD
BRANCH  27  31
ATOM     31  C   UNL     1      -2.161  -0.613  -2.217  0.00  0.00    +0.102 C 
BRANCH  31  32
ATOM     32  C   UNL     1      -2.690   0.384  -3.251  0.00  0.00    +0.000 C 
BRANCH  32  33
ATOM     33  C   UNL     1      -1.964   0.172  -4.581  0.00  0.00    -0.077 C 
BRANCH  33  34
ATOM     34  N   UNL     1      -2.471   1.130  -5.573  0.00  0.00    +0.380 N 
ATOM     35  H   UNL     1      -3.568   1.051  -5.589  0.00  0.00    -0.082 HD
BRANCH  34  36
ATOM     36  C   UNL     1      -2.124   2.507  -5.201  0.00  0.00    -0.079 C 
BRANCH  36  38
ATOM     37  C   UNL     1      -0.242   4.116  -4.862  0.00  0.00    +0.002 C 
ATOM     38  C   UNL     1      -0.603   2.675  -5.229  0.00  0.00    -0.022 C 
ENDBRANCH  36  38
ENDBRANCH  34  36
BRANCH  34  39
ATOM     39  C   UNL     1      -1.976   0.807  -6.918  0.00  0.00    -0.079 C 
BRANCH  39  40
ATOM     40  C   UNL     1      -2.805   1.558  -7.961  0.00  0.00    -0.022 C 
ATOM     41  C   UNL     1      -2.303   1.205  -9.362  0.00  0.00    +0.002 C 
ENDBRANCH  39  40
ENDBRANCH  34  39
ENDBRANCH  33  34
ENDBRANCH  32  33
ENDBRANCH  31  32
ENDBRANCH  27  31
ENDBRANCH   1  28
TORSDOF 12
