REMARK  Name = ZINC50770127
REMARK  12 active torsions:
REMARK  status: ('A' for Active; 'I' for Inactive)
REMARK    1  A    between atoms: C_1  and  C_2
REMARK    2  A    between atoms: C_2  and  C_3
REMARK    3  A    between atoms: C_3  and  C_4
REMARK    4  A    between atoms: C_4  and  N_5
REMARK    5  A    between atoms: N_8  and  C_9
REMARK    6  A    between atoms: C_9  and  C_15
REMARK    7  A    between atoms: N_17  and  C_18
REMARK    8  A    between atoms: C_18  and  C_19
REMARK    9  A    between atoms: C_20  and  C_28
REMARK   10  A    between atoms: C_21  and  O_26
REMARK   11  A    between atoms: C_22  and  C_25
REMARK   12  A    between atoms: O_26  and  C_27
REMARK                            x       y       z     vdW  Elec       q    Type
REMARK                         _______ _______ _______ _____ _____    ______ ____
ROOT
ATOM      1  C   UNL     1      -4.530  -5.804  -0.096  0.00  0.00    +0.112 C 
ATOM      2  C   UNL     1      -4.073  -6.619   1.115  0.00  0.00    +0.035 C 
ATOM      3  C   UNL     1      -4.753  -6.082   2.377  0.00  0.00    +0.003 C 
ATOM      4  C   UNL     1      -6.271  -6.199   2.227  0.00  0.00    +0.000 C 
ATOM      5  C   UNL     1      -6.728  -5.384   1.015  0.00  0.00    +0.003 C 
ATOM      6  C   UNL     1      -6.048  -5.920  -0.246  0.00  0.00    +0.035 C 
ENDROOT
BRANCH   1  10
ATOM      7  N   UNL     1      -2.528  -2.739   0.228  0.00  0.00    -0.299 N 
ATOM      8  C   UNL     1      -2.866  -4.041   0.153  0.00  0.00    +0.300 C 
ATOM      9  O   UNL     1      -2.000  -4.894   0.138  0.00  0.00    -0.253 OA
ATOM     10  N   UNL     1      -4.165  -4.398   0.095  0.00  0.00    -0.285 N 
ATOM     11  H   UNL     1      -3.220  -2.058   0.240  0.00  0.00    +0.150 HD
ATOM     12  H   UNL     1      -4.857  -3.724   0.180  0.00  0.00    +0.151 HD
BRANCH   7  13
ATOM     13  C   UNL     1      -1.117  -2.350   0.291  0.00  0.00    +0.106 C 
BRANCH  13  14
ATOM     14  C   UNL     1      -1.010  -0.826   0.369  0.00  0.00    +0.018 C 
BRANCH  14  16
ATOM     15  C   UNL     1       0.570   1.103   0.514  0.00  0.00    +0.004 C 
ATOM     16  C   UNL     1       0.464  -0.421   0.435  0.00  0.00    -0.002 C 
ENDBRANCH  14  16
ENDBRANCH  13  14
ENDBRANCH   7  13
ENDBRANCH   1  10
BRANCH   1  17
ATOM     17  C   UNL     1      -3.860  -6.332  -1.339  0.00  0.00    +0.237 C 
ATOM     18  O   UNL     1      -3.464  -7.478  -1.373  0.00  0.00    -0.273 OA
ATOM     19  N   UNL     1      -3.702  -5.532  -2.411  0.00  0.00    -0.308 N 
ATOM     20  H   UNL     1      -4.083  -4.640  -2.411  0.00  0.00    +0.149 HD
BRANCH  19  21
ATOM     21  C   UNL     1      -2.955  -6.009  -3.578  0.00  0.00    +0.160 C 
BRANCH  21  22
ATOM     22  C   UNL     1      -2.924  -4.931  -4.630  0.00  0.00    +0.065 A 
ATOM     23  C   UNL     1      -3.928  -4.873  -5.575  0.00  0.00    +0.014 A 
ATOM     24  C   UNL     1      -3.890  -3.873  -6.543  0.00  0.00    +0.129 A 
ATOM     25  C   UNL     1      -2.832  -2.967  -6.515  0.00  0.00    +0.010 A 
ATOM     26  C   UNL     1      -1.868  -3.092  -5.537  0.00  0.00    +0.118 A 
ATOM     27  N   UNL     1      -1.941  -4.051  -4.633  0.00  0.00    -0.258 NA
ATOM     28  C   UNL     1      -2.743  -1.865  -7.540  0.00  0.00    +0.049 C 
ATOM     29  C   UNL     1      -5.050  -5.879  -5.561  0.00  0.00    +0.049 C 
BRANCH  24  30
ATOM     30  O   UNL     1      -4.858  -3.783  -7.490  0.00  0.00    -0.494 OA
ATOM     31  C   UNL     1      -5.996  -2.976  -7.180  0.00  0.00    +0.277 C 
ENDBRANCH  24  30
ENDBRANCH  21  22
ENDBRANCH  19  21
ENDBRANCH   1  17
TORSDOF 8
