REMARK  Name = ZINC60354683
REMARK  8 active torsions:
REMARK  status: ('A' for Active; 'I' for Inactive)
REMARK    1  A    between atoms: C_1  and  C_2
REMARK    2  A    between atoms: C_7  and  C_8
REMARK    3  A    between atoms: C_8  and  C_9
REMARK    4  A    between atoms: C_8  and  C_10
REMARK    5  A    between atoms: C_8  and  C_11
REMARK    6  A    between atoms: C_11  and  N_12
REMARK    7  A    between atoms: C_13  and  C_15
REMARK    8  A    between atoms: C_19  and  N_21
REMARK                            x       y       z     vdW  Elec       q    Type
REMARK                         _______ _______ _______ _____ _____    ______ ____
ROOT
ATOM      1  C   UNL     1      -0.186  -0.898   7.444  0.00  0.00    +0.039 A 
ATOM      2  C   UNL     1       0.245   0.422   7.594  0.00  0.00    +0.013 A 
ATOM      3  C   UNL     1       0.713   0.860   8.816  0.00  0.00    +0.003 A 
ATOM      4  C   UNL     1       0.756  -0.003   9.895  0.00  0.00    +0.025 A 
ATOM      5  C   UNL     1       0.330  -1.318   9.756  0.00  0.00    +0.057 A 
ATOM      6  C   UNL     1      -0.147  -1.767   8.534  0.00  0.00    +0.038 A 
ENDROOT
BRANCH   5   7
ATOM      7  N   UNL     1       0.377  -2.188  10.851  0.00  0.00    -0.188 N 
ATOM      8  C   UNL     1      -0.133  -1.803  12.040  0.00  0.00    +0.240 C 
ATOM      9  O   UNL     1      -0.678  -0.725  12.149  0.00  0.00    -0.273 OA
ATOM     10  C   UNL     1      -0.021  -2.718  13.229  0.00  0.00    +0.093 C 
ATOM     11  C   UNL     1      -0.048  -1.909  14.527  0.00  0.00    +0.040 C 
ATOM     12  C   UNL     1       0.318  -2.797  15.683  0.00  0.00    -0.030 C 
ATOM     13  C   UNL     1       0.911  -3.942  15.560  0.00  0.00    -0.030 C 
ATOM     14  C   UNL     1       1.313  -4.546  14.244  0.00  0.00    +0.040 C 
ATOM     15  C   UNL     1       1.313  -3.476  13.154  0.00  0.00    +0.092 C 
ATOM     16  C   UNL     1       1.444  -4.101  11.791  0.00  0.00    +0.234 C 
ATOM     17  O   UNL     1       1.989  -5.178  11.664  0.00  0.00    -0.274 OA
ATOM     18  N   UNL     1       0.947  -3.461  10.710  0.00  0.00    -0.227 N 
ATOM     19  H   UNL     1       0.987  -3.879   9.836  0.00  0.00    +0.173 HD
ENDBRANCH   5   7
BRANCH   1  21
ATOM     20  N   UNL     1      -0.723  -0.529   5.084  0.00  0.00    -0.311 N 
ATOM     21  C   UNL     1      -0.687  -1.371   6.136  0.00  0.00    +0.244 C 
ATOM     22  O   UNL     1      -1.066  -2.518   6.009  0.00  0.00    -0.270 OA
ATOM     23  H   UNL     1      -0.420   0.387   5.185  0.00  0.00    +0.149 HD
BRANCH  20  24
ATOM     24  C   UNL     1      -1.220  -0.997   3.788  0.00  0.00    +0.115 C 
BRANCH  24  25
ATOM     25  C   UNL     1      -1.155   0.147   2.774  0.00  0.00    +0.006 C 
ATOM     26  C   UNL     1       0.294   0.616   2.626  0.00  0.00    +0.017 C 
ATOM     27  C   UNL     1      -2.021   1.310   3.261  0.00  0.00    +0.017 C 
BRANCH  25  34
ATOM     28  C   UNL     1      -0.952   1.849   0.448  0.00  0.00    +0.044 C 
ATOM     29  C   UNL     1      -1.569   0.480   0.328  0.00  0.00    -0.047 A 
ATOM     30  C   UNL     1      -2.032   0.035  -0.897  0.00  0.00    +0.003 A 
ATOM     31  C   UNL     1      -2.598  -1.221  -1.007  0.00  0.00    +0.000 A 
ATOM     32  C   UNL     1      -2.700  -2.034   0.106  0.00  0.00    +0.000 A 
ATOM     33  C   UNL     1      -2.235  -1.590   1.331  0.00  0.00    +0.004 A 
ATOM     34  C   UNL     1      -1.666  -0.335   1.440  0.00  0.00    -0.037 A 
ENDBRANCH  25  34
ENDBRANCH  24  25
ENDBRANCH  20  24
ENDBRANCH   1  21
TORSDOF 5
