REMARK  Name = ZINC39792866
REMARK  6 active torsions:
REMARK  status: ('A' for Active; 'I' for Inactive)
REMARK    1  A    between atoms: C_7  and  C_10
REMARK    2  A    between atoms: C_16  and  C_18
REMARK    3  A    between atoms: C_18  and  N_19
REMARK    4  A    between atoms: C_20  and  C_22
REMARK    5  A    between atoms: C_25  and  O_28
REMARK    6  A    between atoms: O_28  and  C_29
REMARK                            x       y       z     vdW  Elec       q    Type
REMARK                         _______ _______ _______ _____ _____    ______ ____
ROOT
ATOM      1  C   UNL     1       0.673  -3.130  -0.021  0.00  0.00    -0.043 C 
ATOM      2  C   UNL     1      -0.624  -2.873   0.090  0.00  0.00    -0.004 C 
ATOM      3  C   UNL     1      -1.677  -3.945   0.123  0.00  0.00    +0.135 C 
ATOM      4  N   UNL     1      -1.068  -5.230  -0.249  0.00  0.00    -0.296 N 
ATOM      5  C   UNL     1       0.242  -5.555   0.340  0.00  0.00    +0.113 C 
ATOM      6  C   UNL     1       1.250  -4.509  -0.149  0.00  0.00    +0.054 C 
ATOM      7  C   UNL     1      -1.685  -6.078  -1.096  0.00  0.00    +0.233 C 
ATOM      8  O   UNL     1      -1.161  -7.133  -1.387  0.00  0.00    -0.274 OA
ENDROOT
BRANCH   1  15
ATOM      9  C   UNL     1       5.151  -2.873  -0.693  0.00  0.00    +0.001 A 
ATOM     10  C   UNL     1       5.657  -1.572  -0.610  0.00  0.00    +0.002 A 
ATOM     11  C   UNL     1       4.859  -0.508  -0.351  0.00  0.00    +0.026 A 
ATOM     12  C   UNL     1       3.465  -0.702  -0.156  0.00  0.00    +0.043 A 
ATOM     13  N   UNL     1       2.496   0.148   0.103  0.00  0.00    -0.380 N 
ATOM     14  C   UNL     1       1.229  -0.583   0.211  0.00  0.00    +0.149 C 
ATOM     15  C   UNL     1       1.565  -2.039  -0.024  0.00  0.00    -0.016 C 
ATOM     16  C   UNL     1       2.936  -2.076  -0.245  0.00  0.00    +0.003 A 
ATOM     17  C   UNL     1       3.832  -3.135  -0.518  0.00  0.00    +0.010 A 
ATOM     18  H   UNL     1       2.602   1.107   0.207  0.00  0.00    +0.160 HD
ENDBRANCH   1  15
BRANCH   7  19
ATOM     19  C   UNL     1      -3.025  -5.716  -1.681  0.00  0.00    +0.200 C 
BRANCH  19  20
ATOM     20  N   UNL     1      -3.480  -6.794  -2.564  0.00  0.00    -0.303 N 
ATOM     21  C   UNL     1      -4.662  -6.689  -3.202  0.00  0.00    +0.244 C 
ATOM     22  O   UNL     1      -5.351  -5.699  -3.046  0.00  0.00    -0.270 OA
ATOM     23  H   UNL     1      -2.930  -7.583  -2.688  0.00  0.00    +0.150 HD
BRANCH  21  24
ATOM     24  C   UNL     1      -5.120  -7.775  -4.091  0.00  0.00    +0.037 A 
ATOM     25  C   UNL     1      -4.332  -8.915  -4.267  0.00  0.00    +0.016 A 
ATOM     26  C   UNL     1      -4.763  -9.926  -5.097  0.00  0.00    +0.046 A 
ATOM     27  C   UNL     1      -5.980  -9.813  -5.759  0.00  0.00    +0.127 A 
ATOM     28  C   UNL     1      -6.766  -8.680  -5.586  0.00  0.00    +0.046 A 
ATOM     29  C   UNL     1      -6.345  -7.667  -4.754  0.00  0.00    +0.016 A 
BRANCH  27  30
ATOM     30  O   UNL     1      -6.400 -10.811  -6.577  0.00  0.00    -0.434 OA
BRANCH  30  31
ATOM     31  C   UNL     1      -7.660 -10.630  -7.226  0.00  0.00    +0.541 C 
ATOM     32  F   UNL     1      -8.665 -10.485  -6.263  0.00  0.00    -0.166 F 
ATOM     33  F   UNL     1      -7.612  -9.484  -8.026  0.00  0.00    -0.166 F 
ENDBRANCH  30  31
ENDBRANCH  27  30
ENDBRANCH  21  24
ENDBRANCH  19  20
ENDBRANCH   7  19
TORSDOF 6
