REMARK  Name = ZINC49808716
REMARK  3 active torsions:
REMARK  status: ('A' for Active; 'I' for Inactive)
REMARK    1  A    between atoms: C_6  and  C_7
REMARK    2  A    between atoms: C_7  and  C_9
REMARK    3  A    between atoms: C_7  and  N_14
REMARK                            x       y       z     vdW  Elec       q    Type
REMARK                         _______ _______ _______ _____ _____    ______ ____
ROOT
ATOM      1  C   UNL     1      -1.293  -0.775   0.011  0.00  0.00    +0.029 C 
ENDROOT
BRANCH   1   7
ATOM      2  C   UNL     1      -0.017   1.378   0.010  0.00  0.00    +0.004 A 
ATOM      3  C   UNL     1       1.170   2.087   0.002  0.00  0.00    +0.023 A 
ATOM      4  C   UNL     1       2.378   1.413  -0.013  0.00  0.00    +0.076 A 
ATOM      5  C   UNL     1       2.397   0.028  -0.021  0.00  0.00    +0.142 A 
ATOM      6  C   UNL     1       1.208  -0.680  -0.013  0.00  0.00    +0.042 A 
ATOM      7  C   UNL     1       0.002  -0.004   0.002  0.00  0.00    -0.052 A 
ATOM      8  F   UNL     1       3.576  -0.632  -0.036  0.00  0.00    -0.204 F 
ATOM      9 CL   UNL     1       3.869   2.303  -0.023  0.00  0.00    -0.081 Cl
ENDBRANCH   1   7
BRANCH   1  10
ATOM     10  C   UNL     1      -1.612  -1.236  -1.388  0.00  0.00    +0.167 A 
ATOM     11  N   UNL     1      -1.034  -2.233  -2.042  0.00  0.00    -0.113 NA
ATOM     12  N   UNL     1      -1.587  -2.308  -3.205  0.00  0.00    -0.021 NA
ATOM     13  N   UNL     1      -2.490  -1.395  -3.300  0.00  0.00    -0.021 NA
ATOM     14  N   UNL     1      -2.529  -0.727  -2.198  0.00  0.00    -0.113 NA
ENDBRANCH   1  10
BRANCH   1  15
ATOM     15  N   UNL     1      -1.162  -1.942   0.893  0.00  0.00    +0.387 N 
ATOM     16  H   UNL     1      -2.030  -2.458   0.899  0.00  0.00    -0.089 HD
ATOM     17  H   UNL     1      -0.420  -2.536   0.558  0.00  0.00    -0.089 HD
ATOM     18  H   UNL     1      -0.949  -1.633   1.830  0.00  0.00    -0.089 HD
ENDBRANCH   1  15
TORSDOF 3
