REMARK  Name = ZINC39597842
REMARK  5 active torsions:
REMARK  status: ('A' for Active; 'I' for Inactive)
REMARK    1  A    between atoms: C_7  and  C_10
REMARK    2  A    between atoms: C_10  and  C_11
REMARK    3  A    between atoms: C_11  and  N_12
REMARK    4  A    between atoms: C_13  and  C_15
REMARK    5  A    between atoms: C_26  and  C_28
REMARK                            x       y       z     vdW  Elec       q    Type
REMARK                         _______ _______ _______ _____ _____    ______ ____
ROOT
ATOM      1  C   UNL     1      -5.728   7.023  -2.558  0.00  0.00    +0.100 C 
ATOM      2  C   UNL     1      -7.195   7.085  -2.077  0.00  0.00    +0.121 C 
ATOM      3  N   UNL     1      -7.819   8.137  -2.913  0.00  0.00    -0.297 N 
ATOM      4  C   UNL     1      -7.235   7.932  -4.260  0.00  0.00    +0.115 C 
ATOM      5  C   UNL     1      -5.759   7.579  -3.991  0.00  0.00    -0.004 C 
ATOM      6  C   UNL     1      -4.890   8.829  -4.091  0.00  0.00    -0.010 C 
ATOM      7  C   UNL     1      -4.891   9.331  -5.538  0.00  0.00    -0.082 C 
ATOM      8  N   UNL     1      -4.374   8.280  -6.423  0.00  0.00    +0.379 N 
ATOM      9  C   UNL     1      -5.267   7.115  -6.391  0.00  0.00    -0.082 C 
ATOM     10  C   UNL     1      -5.282   6.520  -4.980  0.00  0.00    -0.010 C 
ATOM     11  C   UNL     1      -8.715   9.070  -2.535  0.00  0.00    +0.260 C 
ATOM     12  O   UNL     1      -9.032   9.169  -1.368  0.00  0.00    -0.271 OA
ATOM     13  H   UNL     1      -4.319   8.633  -7.366  0.00  0.00    -0.086 HD
ATOM     14  H   UNL     1      -3.454   8.005  -6.114  0.00  0.00    -0.086 HD
ENDROOT
BRANCH  11  15
ATOM     15  C   UNL     1      -9.325   9.990  -3.561  0.00  0.00    +0.296 C 
ATOM     16  C   UNL     1     -10.234   9.187  -4.501  0.00  0.00    +0.283 C 
ATOM     17  O   UNL     1     -10.806  10.091  -5.452  0.00  0.00    -0.484 OA
ATOM     18  C   UNL     1     -11.316  11.254  -4.961  0.00  0.00    +0.162 A 
ATOM     19  C   UNL     1     -12.190  11.996  -5.741  0.00  0.00    +0.049 A 
ATOM     20  C   UNL     1     -12.714  13.180  -5.257  0.00  0.00    +0.004 A 
ATOM     21  C   UNL     1     -12.368  13.627  -3.995  0.00  0.00    +0.004 A 
ATOM     22  C   UNL     1     -11.498  12.891  -3.213  0.00  0.00    +0.049 A 
ATOM     23  C   UNL     1     -10.970  11.702  -3.692  0.00  0.00    +0.163 A 
ATOM     24  O   UNL     1     -10.121  10.984  -2.907  0.00  0.00    -0.473 OA
ENDBRANCH  11  15
BRANCH   1  26
ATOM     25  N   UNL     1      -3.914   5.342  -2.501  0.00  0.00    -0.315 N 
ATOM     26  C   UNL     1      -5.236   5.598  -2.558  0.00  0.00    +0.218 C 
ATOM     27  O   UNL     1      -6.030   4.683  -2.610  0.00  0.00    -0.275 OA
ATOM     28  H   UNL     1      -3.280   6.074  -2.460  0.00  0.00    +0.149 HD
BRANCH  25  29
ATOM     29  C   UNL     1      -3.436   3.957  -2.502  0.00  0.00    +0.109 C 
BRANCH  29  30
ATOM     30  C   UNL     1      -1.908   3.945  -2.431  0.00  0.00    +0.056 C 
BRANCH  30  37
ATOM     31  C   UNL     1      -0.986   0.872  -5.848  0.00  0.00    +0.001 A 
ATOM     32  C   UNL     1      -0.543  -0.353  -5.368  0.00  0.00    +0.002 A 
ATOM     33  C   UNL     1      -0.413  -0.573  -4.014  0.00  0.00    +0.026 A 
ATOM     34  C   UNL     1      -0.726   0.443  -3.117  0.00  0.00    +0.047 A 
ATOM     35  N   UNL     1      -0.703   0.535  -1.743  0.00  0.00    -0.360 N 
ATOM     36  C   UNL     1      -1.117   1.779  -1.353  0.00  0.00    +0.087 A 
ATOM     37  C   UNL     1      -1.416   2.521  -2.431  0.00  0.00    -0.021 A 
ATOM     38  C   UNL     1      -1.174   1.683  -3.608  0.00  0.00    +0.003 A 
ATOM     39  C   UNL     1      -1.294   1.885  -4.984  0.00  0.00    +0.010 A 
ATOM     40  H   UNL     1      -0.433  -0.177  -1.142  0.00  0.00    +0.165 HD
ENDBRANCH  30  37
ENDBRANCH  29  30
ENDBRANCH  25  29
ENDBRANCH   1  26
TORSDOF 5
