REMARK  Name = ZINC34690644
REMARK  7 active torsions:
REMARK  status: ('A' for Active; 'I' for Inactive)
REMARK    1  A    between atoms: C_1  and  C_2
REMARK    2  A    between atoms: C_2  and  C_3
REMARK    3  A    between atoms: C_2  and  C_4
REMARK    4  A    between atoms: C_4  and  C_6
REMARK    5  A    between atoms: C_4  and  N_20
REMARK    6  A    between atoms: C_12  and  C_14
REMARK    7  A    between atoms: N_23  and  C_24
REMARK                            x       y       z     vdW  Elec       q    Type
REMARK                         _______ _______ _______ _____ _____    ______ ____
ROOT
ATOM      1  C   UNL     1       0.732  -0.770   1.107  0.00  0.00    +0.163 C 
ENDROOT
BRANCH   1   2
ATOM      2  C   UNL     1       2.094  -0.139   1.235  0.00  0.00    +0.239 C 
ATOM      3  O   UNL     1       3.090  -0.832   1.196  0.00  0.00    -0.273 OA
ATOM      4  N   UNL     1       2.207   1.194   1.392  0.00  0.00    -0.262 N 
ATOM      5  C   UNL     1       3.454   1.764   1.622  0.00  0.00    +0.188 A 
ATOM      6  N   UNL     1       4.632   1.176   1.712  0.00  0.00    -0.125 NA
ATOM      7  N   UNL     1       5.691   1.831   1.926  0.00  0.00    -0.140 NA
ATOM      8  C   UNL     1       5.613   3.149   2.062  0.00  0.00    +0.134 A 
ATOM      9  S   UNL     1       3.854   3.386   1.849  0.00  0.00    -0.030 S 
ATOM     10  H   UNL     1       1.418   1.757   1.345  0.00  0.00    +0.157 HD
BRANCH   8  11
ATOM     11  C   UNL     1       6.679   4.141   2.314  0.00  0.00    +0.009 A 
ATOM     12  C   UNL     1       6.363   5.496   2.429  0.00  0.00    +0.010 A 
ATOM     13  C   UNL     1       7.363   6.417   2.664  0.00  0.00    +0.001 A 
ATOM     14  C   UNL     1       8.677   6.000   2.786  0.00  0.00    +0.000 A 
ATOM     15  C   UNL     1       8.997   4.659   2.672  0.00  0.00    +0.001 A 
ATOM     16  C   UNL     1       8.006   3.727   2.443  0.00  0.00    +0.010 A 
ENDBRANCH   8  11
ENDBRANCH   1   2
BRANCH   1  17
ATOM     17  N   UNL     1       0.820  -2.194   1.441  0.00  0.00    -0.288 N 
ATOM     18  C   UNL     1      -0.270  -2.850   1.887  0.00  0.00    +0.305 C 
ATOM     19  O   UNL     1      -1.325  -2.261   2.012  0.00  0.00    -0.252 OA
ATOM     20  N   UNL     1      -0.189  -4.160   2.194  0.00  0.00    -0.268 N 
ATOM     21  H   UNL     1       1.662  -2.664   1.341  0.00  0.00    +0.151 HD
ATOM     22  H   UNL     1       0.668  -4.614   2.159  0.00  0.00    +0.156 HD
BRANCH  20  23
ATOM     23  C   UNL     1      -1.341  -4.865   2.564  0.00  0.00    +0.053 A 
ATOM     24  C   UNL     1      -2.397  -4.201   3.173  0.00  0.00    +0.026 A 
ATOM     25  C   UNL     1      -3.532  -4.899   3.537  0.00  0.00    +0.022 A 
ATOM     26  C   UNL     1      -3.618  -6.259   3.294  0.00  0.00    +0.042 A 
ATOM     27  C   UNL     1      -2.568  -6.923   2.687  0.00  0.00    +0.041 A 
ATOM     28  C   UNL     1      -1.432  -6.229   2.316  0.00  0.00    +0.064 A 
ATOM     29 CL   UNL     1      -0.117  -7.062   1.546  0.00  0.00    -0.082 Cl
ATOM     30 CL   UNL     1      -5.047  -7.132   3.753  0.00  0.00    -0.083 Cl
ENDBRANCH  20  23
ENDBRANCH   1  17
BRANCH   1  32
ATOM     31  C   UNL     1       1.127  -1.416  -1.274  0.00  0.00    +0.009 C 
ATOM     32  C   UNL     1       0.230  -0.614  -0.330  0.00  0.00    +0.012 C 
ATOM     33  C   UNL     1      -1.206  -1.132  -0.428  0.00  0.00    +0.009 C 
ENDBRANCH   1  32
TORSDOF 5
