REMARK  Name = ZINC15530336
REMARK  8 active torsions:
REMARK  status: ('A' for Active; 'I' for Inactive)
REMARK    1  A    between atoms: C_4  and  C_7
REMARK    2  A    between atoms: C_10  and  C_12
REMARK    3  A    between atoms: C_12  and  C_13
REMARK    4  A    between atoms: C_13  and  C_14
REMARK    5  A    between atoms: N_16  and  N_17
REMARK    6  A    between atoms: N_17  and  C_18
REMARK    7  A    between atoms: C_18  and  N_20
REMARK    8  A    between atoms: N_20  and  C_21
REMARK                            x       y       z     vdW  Elec       q    Type
REMARK                         _______ _______ _______ _____ _____    ______ ____
ROOT
ATOM      1  C   UNL     1       0.207  -1.592   5.645  0.00  0.00    +0.229 C 
ATOM      2  O   UNL     1       0.086  -1.130   6.760  0.00  0.00    -0.274 OA
ATOM      3  N   UNL     1      -0.033  -0.821   4.566  0.00  0.00    -0.235 N 
ATOM      4  H   UNL     1       0.064  -1.190   3.674  0.00  0.00    +0.173 HD
ENDROOT
BRANCH   3   5
ATOM      5  N   UNL     1      -0.423   0.515   4.732  0.00  0.00    -0.246 N 
ATOM      6  H   UNL     1      -0.520   0.884   5.624  0.00  0.00    +0.172 HD
BRANCH   5   7
ATOM      7  C   UNL     1      -0.663   1.286   3.653  0.00  0.00    +0.147 C 
ATOM      8  S   UNL     1      -1.139   2.918   3.856  0.00  0.00    -0.017 S 
BRANCH   7   9
ATOM      9  N   UNL     1      -0.528   0.772   2.414  0.00  0.00    -0.323 N 
ATOM     10  H   UNL     1      -0.258  -0.152   2.299  0.00  0.00    +0.148 HD
BRANCH   9  11
ATOM     11  C   UNL     1      -0.789   1.611   1.242  0.00  0.00    +0.072 C 
ATOM     12  C   UNL     1      -0.013   1.086   0.008  0.00  0.00    +0.022 C 
ATOM     13  C   UNL     1      -0.809   1.622  -1.200  0.00  0.00    +0.002 C 
ATOM     14  C   UNL     1      -2.243   1.875  -0.703  0.00  0.00    +0.002 C 
ATOM     15  C   UNL     1      -2.268   1.485   0.789  0.00  0.00    +0.022 C 
ENDBRANCH   9  11
ENDBRANCH   7   9
ENDBRANCH   5   7
ENDBRANCH   3   5
BRANCH   1  16
ATOM     16  C   UNL     1       0.626  -3.029   5.466  0.00  0.00    +0.105 C 
BRANCH  16  17
ATOM     17  C   UNL     1       0.833  -3.674   6.838  0.00  0.00    +0.083 C 
BRANCH  17  21
ATOM     18  C   UNL     1       1.143  -7.290   6.421  0.00  0.00    +0.135 A 
ATOM     19  C   UNL     1       2.459  -6.951   6.399  0.00  0.00    +0.050 A 
ATOM     20  C   UNL     1       2.520  -5.551   6.552  0.00  0.00    +0.045 A 
ATOM     21  C   UNL     1       1.252  -5.111   6.659  0.00  0.00    +0.106 A 
ATOM     22  O   UNL     1       0.422  -6.165   6.585  0.00  0.00    -0.460 OA
BRANCH  18  26
ATOM     23  C   UNL     1      -0.423 -11.221   6.056  0.00  0.00    +0.000 A 
ATOM     24  C   UNL     1      -1.283 -10.149   6.214  0.00  0.00    +0.001 A 
ATOM     25  C   UNL     1      -0.781  -8.870   6.333  0.00  0.00    +0.011 A 
ATOM     26  C   UNL     1       0.598  -8.658   6.294  0.00  0.00    +0.017 A 
ATOM     27  C   UNL     1       1.460  -9.744   6.128  0.00  0.00    +0.011 A 
ATOM     28  C   UNL     1       0.945 -11.019   6.016  0.00  0.00    +0.001 A 
ENDBRANCH  18  26
ENDBRANCH  17  21
ENDBRANCH  16  17
ENDBRANCH   1  16
TORSDOF 8
