REMARK  Name = ZINC07836331
REMARK  14 active torsions:
REMARK  status: ('A' for Active; 'I' for Inactive)
REMARK    1  A    between atoms: C_1  and  C_2
REMARK    2  A    between atoms: C_2  and  C_4
REMARK    3  A    between atoms: C_2  and  O_13
REMARK    4  A    between atoms: N_6  and  C_7
REMARK    5  A    between atoms: N_6  and  C_10
REMARK    6  A    between atoms: C_7  and  C_8
REMARK    7  A    between atoms: C_7  and  C_9
REMARK    8  A    between atoms: C_10  and  C_11
REMARK    9  A    between atoms: C_10  and  C_12
REMARK   10  A    between atoms: O_13  and  C_14
REMARK   11  A    between atoms: C_14  and  C_16
REMARK   12  A    between atoms: C_17  and  C_25
REMARK   13  A    between atoms: C_25  and  O_26
REMARK   14  A    between atoms: O_26  and  C_27
REMARK                            x       y       z     vdW  Elec       q    Type
REMARK                         _______ _______ _______ _____ _____    ______ ____
ROOT
ATOM      1  C   UNL     1      -2.021   2.533  -1.210  0.00  0.00    +0.376 C 
ATOM      2  O   UNL     1      -1.619   2.939  -0.137  0.00  0.00    -0.241 OA
ENDROOT
BRANCH   1   3
ATOM      3  C   UNL     1      -3.456   2.571  -1.519  0.00  0.00    +0.218 A 
ATOM      4  C   UNL     1      -4.423   3.042  -0.688  0.00  0.00    +0.038 A 
ATOM      5  C   UNL     1      -5.686   2.885  -1.406  0.00  0.00    +0.026 A 
ATOM      6  C   UNL     1      -7.020   3.173  -1.105  0.00  0.00    +0.012 A 
ATOM      7  C   UNL     1      -7.995   2.897  -2.021  0.00  0.00    +0.001 A 
ATOM      8  C   UNL     1      -7.670   2.333  -3.248  0.00  0.00    +0.004 A 
ATOM      9  C   UNL     1      -6.361   2.042  -3.563  0.00  0.00    +0.047 A 
ATOM     10  C   UNL     1      -5.351   2.314  -2.648  0.00  0.00    +0.136 A 
ATOM     11  O   UNL     1      -4.014   2.150  -2.673  0.00  0.00    -0.448 OA
BRANCH   4  12
ATOM     12  C   UNL     1      -4.231   3.611   0.695  0.00  0.00    +0.199 C 
BRANCH  12  13
ATOM     13  O   UNL     1      -4.024   5.022   0.605  0.00  0.00    -0.378 OA
ATOM     14  C   UNL     1      -3.831   5.663   1.867  0.00  0.00    +0.194 C 
ENDBRANCH  12  13
ENDBRANCH   4  12
ENDBRANCH   1   3
BRANCH   1  15
ATOM     15  O   UNL     1      -1.149   2.047  -2.116  0.00  0.00    -0.447 OA
BRANCH  15  17
ATOM     16  C   UNL     1       0.880   3.357  -2.176  0.00  0.00    +0.062 C 
ATOM     17  C   UNL     1       0.232   2.039  -1.749  0.00  0.00    +0.259 C 
BRANCH  17  18
ATOM     18  C   UNL     1       0.928   0.892  -2.435  0.00  0.00    +0.257 C 
ATOM     19  O   UNL     1       0.460   0.417  -3.448  0.00  0.00    -0.272 OA
ATOM     20  N   UNL     1       2.070   0.393  -1.922  0.00  0.00    -0.293 N 
BRANCH  20  21
ATOM     21  C   UNL     1       2.602   0.924  -0.665  0.00  0.00    +0.070 C 
ATOM     22  C   UNL     1       2.128   0.051   0.499  0.00  0.00    +0.028 C 
ATOM     23  C   UNL     1       4.131   0.920  -0.715  0.00  0.00    +0.028 C 
ENDBRANCH  20  21
BRANCH  20  24
ATOM     24  C   UNL     1       2.780  -0.680  -2.623  0.00  0.00    +0.070 C 
ATOM     25  C   UNL     1       4.105  -0.143  -3.169  0.00  0.00    +0.028 C 
ATOM     26  C   UNL     1       3.057  -1.828  -1.650  0.00  0.00    +0.028 C 
ENDBRANCH  20  24
ENDBRANCH  17  18
ENDBRANCH  15  17
ENDBRANCH   1  15
TORSDOF 8
