REMARK  Name = ZINC14021047
REMARK  8 active torsions:
REMARK  status: ('A' for Active; 'I' for Inactive)
REMARK    1  A    between atoms: C_1  and  C_2
REMARK    2  A    between atoms: C_9  and  N_13
REMARK    3  A    between atoms: C_10  and  C_11
REMARK    4  A    between atoms: C_14  and  C_16
REMARK    5  A    between atoms: N_21  and  S_23
REMARK    6  A    between atoms: S_23  and  C_26
REMARK    7  A    between atoms: C_29  and  O_32
REMARK    8  A    between atoms: O_32  and  C_33
REMARK                            x       y       z     vdW  Elec       q    Type
REMARK                         _______ _______ _______ _____ _____    ______ ____
ROOT
ATOM      1  C   UNL     1      -1.933   1.441  -7.309  0.00  0.00    +0.091 C 
ATOM      2  C   UNL     1      -3.428   1.145  -7.451  0.00  0.00    +0.015 C 
ATOM      3  C   UNL     1      -3.836   1.262  -8.921  0.00  0.00    +0.018 C 
ATOM      4  C   UNL     1      -3.059   0.232  -9.747  0.00  0.00    +0.109 C 
ATOM      5  N   UNL     1      -1.622   0.418  -9.502  0.00  0.00    -0.176 NA
ATOM      6  C   UNL     1      -1.134   0.413  -8.116  0.00  0.00    +0.122 C 
ENDROOT
BRANCH   1   8
ATOM      7  N   UNL     1      -2.117   2.174  -4.954  0.00  0.00    -0.279 N 
ATOM      8  C   UNL     1      -1.539   1.357  -5.857  0.00  0.00    +0.222 C 
ATOM      9  O   UNL     1      -0.702   0.555  -5.501  0.00  0.00    -0.275 OA
ATOM     10  H   UNL     1      -2.786   2.815  -5.238  0.00  0.00    +0.155 HD
BRANCH   7  18
ATOM     11  C   UNL     1       0.139   1.360   2.493  0.00  0.00    +0.008 C 
ATOM     12  C   UNL     1      -0.742   1.586   1.263  0.00  0.00    -0.009 C 
ATOM     13  C   UNL     1      -1.027   3.083   1.103  0.00  0.00    +0.008 C 
ATOM     14  C   UNL     1      -2.099   3.298   0.033  0.00  0.00    +0.037 C 
ATOM     15  C   UNL     1      -1.681   2.564  -1.234  0.00  0.00    -0.018 A 
ATOM     16  C   UNL     1      -0.747   1.587  -1.197  0.00  0.00    -0.004 A 
ATOM     17  S   UNL     1      -0.595   1.043  -2.875  0.00  0.00    -0.077 S 
ATOM     18  C   UNL     1      -1.754   2.096  -3.616  0.00  0.00    +0.090 A 
ATOM     19  C   UNL     1      -2.231   2.843  -2.549  0.00  0.00    +0.084 A 
ATOM     20  C   UNL     1      -0.013   1.086   0.008  0.00  0.00    +0.046 C 
BRANCH  19  21
ATOM     21  C   UNL     1      -3.228   3.853  -2.737  0.00  0.00    +0.102 C 
ATOM     22  N   UNL     1      -4.019   4.654  -2.887  0.00  0.00    -0.191 NA
ENDBRANCH  19  21
ENDBRANCH   7  18
ENDBRANCH   1   8
BRANCH   5  23
ATOM     23  S   UNL     1      -0.572   0.629 -10.765  0.00  0.00    +0.061 S 
ATOM     24  O   UNL     1      -1.337   1.136 -11.850  0.00  0.00    -0.153 OA
ATOM     25  O   UNL     1       0.558   1.315 -10.244  0.00  0.00    -0.153 OA
BRANCH  23  26
ATOM     26  C   UNL     1      -0.011  -0.970 -11.249  0.00  0.00    +0.106 A 
ATOM     27  C   UNL     1       1.124  -1.508 -10.670  0.00  0.00    +0.032 A 
ATOM     28  C   UNL     1       1.562  -2.764 -11.044  0.00  0.00    +0.047 A 
ATOM     29  C   UNL     1       0.870  -3.480 -12.009  0.00  0.00    +0.120 A 
ATOM     30  C   UNL     1      -0.266  -2.936 -12.592  0.00  0.00    +0.047 A 
ATOM     31  C   UNL     1      -0.703  -1.682 -12.211  0.00  0.00    +0.032 A 
BRANCH  29  32
ATOM     32  O   UNL     1       1.302  -4.713 -12.382  0.00  0.00    -0.495 OA
ATOM     33  C   UNL     1       2.477  -5.211 -11.739  0.00  0.00    +0.277 C 
ENDBRANCH  29  32
ENDBRANCH  23  26
ENDBRANCH   5  23
TORSDOF 6
