REMARK  Name = ZINC20363253
REMARK  14 active torsions:
REMARK  status: ('A' for Active; 'I' for Inactive)
REMARK    1  A    between atoms: C_1  and  C_2
REMARK    2  A    between atoms: C_7  and  C_21
REMARK    3  A    between atoms: C_9  and  C_13
REMARK    4  A    between atoms: C_10  and  C_12
REMARK    5  A    between atoms: C_13  and  O_15
REMARK    6  A    between atoms: O_15  and  C_16
REMARK    7  A    between atoms: C_23  and  O_30
REMARK    8  A    between atoms: C_24  and  O_29
REMARK    9  A    between atoms: C_25  and  O_27
REMARK   10  A    between atoms: O_27  and  C_28
REMARK   11  A    between atoms: O_30  and  C_31
REMARK   12  A    between atoms: C_34  and  C_36
REMARK   13  A    between atoms: C_36  and  O_38
REMARK   14  A    between atoms: O_38  and  C_39
REMARK                            x       y       z     vdW  Elec       q    Type
REMARK                         _______ _______ _______ _____ _____    ______ ____
ROOT
ATOM      1  C   UNL     1       0.662   3.114  -2.135  0.00  0.00    +0.009 C 
ATOM      2  C   UNL     1       1.069   3.325  -0.675  0.00  0.00    +0.013 C 
ATOM      3  C   UNL     1      -0.047   4.064   0.067  0.00  0.00    +0.055 C 
ATOM      4  C   UNL     1      -1.306   3.233   0.046  0.00  0.00    +0.016 C 
ATOM      5  C   UNL     1      -1.248   1.884   0.018  0.00  0.00    +0.025 C 
ATOM      6  C   UNL     1      -2.511   1.060   0.019  0.00  0.00    +0.092 C 
ATOM      7  C   UNL     1      -3.692   1.888  -0.393  0.00  0.00    +0.065 C 
ATOM      8  C   UNL     1      -3.648   3.231  -0.361  0.00  0.00    +0.016 C 
ATOM      9  N   UNL     1      -2.514   3.877   0.045  0.00  0.00    -0.321 N 
ATOM     10  C   UNL     1      -4.857   4.030  -0.774  0.00  0.00    +0.061 C 
ATOM     11  C   UNL     1      -0.014   1.211   0.009  0.00  0.00    +0.176 C 
ATOM     12  O   UNL     1       0.002  -0.004   0.002  0.00  0.00    -0.291 OA
ATOM     13  C   UNL     1       1.286   1.967   0.000  0.00  0.00    +0.171 C 
ATOM     14  H   UNL     1      -2.579   4.925   0.374  0.00  0.00    +0.152 HD
ENDROOT
BRANCH   6  15
ATOM     15  C   UNL     1      -2.748   0.512   1.403  0.00  0.00    -0.028 A 
ATOM     16  C   UNL     1      -2.937   1.378   2.464  0.00  0.00    +0.054 A 
ATOM     17  C   UNL     1      -3.160   0.879   3.738  0.00  0.00    +0.165 A 
ATOM     18  C   UNL     1      -3.185  -0.495   3.949  0.00  0.00    +0.201 A 
ATOM     19  C   UNL     1      -2.990  -1.362   2.881  0.00  0.00    +0.165 A 
ATOM     20  C   UNL     1      -2.772  -0.854   1.609  0.00  0.00    +0.054 A 
BRANCH  19  21
ATOM     21  O   UNL     1      -3.014  -2.707   3.082  0.00  0.00    -0.491 OA
ATOM     22  C   UNL     1      -2.806  -3.538   1.938  0.00  0.00    +0.277 C 
ENDBRANCH  19  21
BRANCH  18  23
ATOM     23  O   UNL     1      -3.399  -0.989   5.199  0.00  0.00    -0.501 OA
ATOM     24  H   UNL     1      -3.418  -2.076   5.364  0.00  0.00    +0.292 HD
ENDBRANCH  18  23
BRANCH  17  25
ATOM     25  O   UNL     1      -3.351   1.731   4.780  0.00  0.00    -0.491 OA
ATOM     26  C   UNL     1      -3.312   3.130   4.489  0.00  0.00    +0.277 C 
ENDBRANCH  17  25
ENDBRANCH   6  15
BRANCH   7  27
ATOM     27  C   UNL     1      -4.875   1.243  -0.824  0.00  0.00    +0.338 C 
ATOM     28  O   UNL     1      -5.840   1.903  -1.161  0.00  0.00    -0.245 OA
BRANCH  27  29
ATOM     29  O   UNL     1      -4.934  -0.105  -0.862  0.00  0.00    -0.458 OA
BRANCH  29  30
ATOM     30  C   UNL     1      -6.159  -0.689  -1.307  0.00  0.00    +0.177 C 
ATOM     31  C   UNL     1      -7.080  -0.970  -0.102  0.00  0.00    +0.044 C 
ATOM     32  C   UNL     1      -7.775  -2.308  -0.460  0.00  0.00    +0.004 C 
ATOM     33  C   UNL     1      -6.645  -3.107  -1.155  0.00  0.00    +0.004 C 
ATOM     34  C   UNL     1      -5.883  -2.047  -1.977  0.00  0.00    +0.044 C 
ENDBRANCH  29  30
ENDBRANCH  27  29
ENDBRANCH   7  27
BRANCH  13  35
ATOM     35  C   UNL     1       2.321   1.183  -0.765  0.00  0.00    +0.318 C 
ATOM     36  O   UNL     1       2.839   1.663  -1.745  0.00  0.00    -0.250 OA
BRANCH  35  37
ATOM     37  O   UNL     1       2.666  -0.049  -0.358  0.00  0.00    -0.467 OA
ATOM     38  C   UNL     1       3.669  -0.746  -1.143  0.00  0.00    +0.280 C 
ENDBRANCH  35  37
ENDBRANCH  13  35
TORSDOF 9
