REMARK  Name = ZINC60304152
REMARK  4 active torsions:
REMARK  status: ('A' for Active; 'I' for Inactive)
REMARK    1  A    between atoms: C_3  and  C_6
REMARK    2  A    between atoms: C_9  and  C_14
REMARK    3  A    between atoms: N_16  and  C_17
REMARK    4  A    between atoms: C_20  and  N_23
REMARK                            x       y       z     vdW  Elec       q    Type
REMARK                         _______ _______ _______ _____ _____    ______ ____
ROOT
ATOM      1  C   UNL     1       7.812   0.350  -0.572  0.00  0.00    +0.253 C 
ATOM      2  O   UNL     1       8.483   1.194  -1.136  0.00  0.00    -0.270 OA
ATOM      3  N   UNL     1       8.411  -0.706   0.013  0.00  0.00    -0.281 N 
ATOM      4  H   UNL     1       7.874  -1.431   0.372  0.00  0.00    +0.155 HD
ENDROOT
BRANCH   1   8
ATOM      5  C   UNL     1       3.602   0.692  -0.436  0.00  0.00    +0.085 A 
ATOM      6  C   UNL     1       4.349   1.730  -0.979  0.00  0.00    +0.030 A 
ATOM      7  C   UNL     1       5.730   1.631  -1.030  0.00  0.00    +0.020 A 
ATOM      8  C   UNL     1       6.351   0.481  -0.530  0.00  0.00    +0.101 A 
ATOM      9  C   UNL     1       5.554  -0.556   0.015  0.00  0.00    +0.261 A 
ATOM     10  O   UNL     1       6.083  -1.563   0.453  0.00  0.00    -0.267 OA
ATOM     11  N   UNL     1       4.215  -0.428   0.056  0.00  0.00    -0.319 N 
ATOM     12  H   UNL     1       3.677  -1.141   0.435  0.00  0.00    +0.169 HD
BRANCH   5  15
ATOM     13  C   UNL     1       0.054   1.538  -0.588  0.00  0.00    +0.042 A 
ATOM     14  C   UNL     1       1.399   1.856  -0.836  0.00  0.00    +0.051 A 
ATOM     15  C   UNL     1       2.142   0.801  -0.384  0.00  0.00    +0.151 A 
ATOM     16  O   UNL     1       1.296  -0.121   0.117  0.00  0.00    -0.461 OA
ATOM     17  C   UNL     1       0.035   0.319  -0.004  0.00  0.00    +0.196 A 
ENDBRANCH   5  15
ENDBRANCH   1   8
BRANCH   3  18
ATOM     18  C   UNL     1       9.808  -0.757   0.105  0.00  0.00    +0.034 A 
ATOM     19  C   UNL     1      10.538   0.416   0.238  0.00  0.00    +0.025 A 
ATOM     20  C   UNL     1      11.915   0.366   0.328  0.00  0.00    +0.025 A 
ATOM     21  C   UNL     1      12.569  -0.858   0.286  0.00  0.00    +0.030 A 
ATOM     22  C   UNL     1      11.838  -2.032   0.154  0.00  0.00    +0.025 A 
ATOM     23  C   UNL     1      10.461  -1.982   0.068  0.00  0.00    +0.025 A 
BRANCH  21  24
ATOM     24  N   UNL     1      13.964  -0.909   0.378  0.00  0.00    -0.325 N 
ATOM     25  C   UNL     1      14.659  -2.202   0.458  0.00  0.00    +0.110 C 
ATOM     26  C   UNL     1      15.519  -2.368  -0.805  0.00  0.00    +0.061 C 
ATOM     27  C   UNL     1      16.206  -1.072  -1.089  0.00  0.00    -0.004 A 
ATOM     28  C   UNL     1      15.909   0.159  -0.591  0.00  0.00    -0.020 A 
ATOM     29  C   UNL     1      16.706   1.218  -1.024  0.00  0.00    +0.013 A 
ATOM     30  C   UNL     1      17.718   0.992  -1.893  0.00  0.00    +0.046 A 
ATOM     31  S   UNL     1      17.596  -0.772  -2.150  0.00  0.00    -0.101 S 
ATOM     32  C   UNL     1      14.756   0.329   0.389  0.00  0.00    +0.141 C 
ENDBRANCH  21  24
ENDBRANCH   3  18
TORSDOF 4
