REMARK  Name = ZINC24225038
REMARK  9 active torsions:
REMARK  status: ('A' for Active; 'I' for Inactive)
REMARK    1  A    between atoms: C_1  and  C_2
REMARK    2  A    between atoms: C_5  and  N_9
REMARK    3  A    between atoms: C_6  and  C_8
REMARK    4  A    between atoms: C_13  and  C_15
REMARK    5  A    between atoms: C_15  and  S_16
REMARK    6  A    between atoms: S_16  and  C_17
REMARK    7  A    between atoms: C_21  and  C_25
REMARK    8  A    between atoms: C_22  and  C_24
REMARK    9  A    between atoms: N_28  and  C_29
REMARK                            x       y       z     vdW  Elec       q    Type
REMARK                         _______ _______ _______ _____ _____    ______ ____
ROOT
ATOM      1  N   UNL     1      -1.137  -2.041   0.002  0.00  0.00    -0.269 N 
ATOM      2  C   UNL     1      -1.155  -0.694   0.013  0.00  0.00    +0.310 C 
ATOM      3  O   UNL     1      -2.216  -0.100   0.018  0.00  0.00    -0.252 OA
ATOM      4  N   UNL     1       0.003  -0.004   0.018  0.00  0.00    -0.239 N 
ATOM      5  C   UNL     1      -0.015   1.343   0.030  0.00  0.00    +0.231 C 
ATOM      6  O   UNL     1      -1.073   1.935   0.030  0.00  0.00    -0.274 OA
ATOM      7  H   UNL     1      -0.182  -2.578  -0.096  0.00  0.00    +0.156 HD
ATOM      8  H   UNL     1       0.963  -0.542   0.014  0.00  0.00    +0.159 HD
ENDROOT
BRANCH   1  13
ATOM      9  C   UNL     1      -5.989  -4.946   0.460  0.00  0.00    +0.044 C 
ATOM     10  C   UNL     1      -4.700  -4.175   0.339  0.00  0.00    -0.050 A 
ATOM     11  C   UNL     1      -4.614  -2.891   0.845  0.00  0.00    +0.005 A 
ATOM     12  C   UNL     1      -3.435  -2.181   0.735  0.00  0.00    +0.024 A 
ATOM     13  C   UNL     1      -2.334  -2.758   0.115  0.00  0.00    +0.038 A 
ATOM     14  C   UNL     1      -2.425  -4.045  -0.397  0.00  0.00    -0.029 A 
ATOM     15  C   UNL     1      -3.606  -4.752  -0.279  0.00  0.00    +0.008 A 
ATOM     16  C   UNL     1      -1.235  -4.673  -1.075  0.00  0.00    +0.045 C 
ENDBRANCH   1  13
BRANCH   5  17
ATOM     17  C   UNL     1       1.280   2.114   0.035  0.00  0.00    +0.173 C 
BRANCH  17  18
ATOM     18  S   UNL     1       0.925   3.889   0.050  0.00  0.00    -0.078 S 
BRANCH  18  19
ATOM     19  C   UNL     1       2.567   4.529   0.055  0.00  0.00    +0.173 A 
ATOM     20  N   UNL     1       3.589   3.697   0.053  0.00  0.00    -0.216 NA
ATOM     21  C   UNL     1       4.837   4.150   0.052  0.00  0.00    +0.117 A 
ATOM     22  C   UNL     1       5.131   5.526   0.064  0.00  0.00    +0.075 A 
ATOM     23  C   UNL     1       6.548   5.849   0.066  0.00  0.00    -0.026 A 
ATOM     24  C   UNL     1       7.447   4.854   0.058  0.00  0.00    -0.008 A 
ATOM     25  S   UNL     1       6.438   3.385   0.045  0.00  0.00    -0.073 S 
ATOM     26  C   UNL     1       8.950   4.954   0.059  0.00  0.00    +0.052 C 
ATOM     27  C   UNL     1       7.002   7.286   0.079  0.00  0.00    +0.045 C 
ATOM     28  C   UNL     1       4.002   6.404   0.071  0.00  0.00    +0.263 A 
ATOM     29  O   UNL     1       4.160   7.613   0.082  0.00  0.00    -0.267 OA
ATOM     30  N   UNL     1       2.763   5.879   0.066  0.00  0.00    -0.290 N 
ATOM     31  C   UNL     1       1.603   6.774   0.073  0.00  0.00    +0.154 C 
ENDBRANCH  18  19
ENDBRANCH  17  18
ENDBRANCH   5  17
TORSDOF 4
