REMARK  Name = ZINC06149533
REMARK  14 active torsions:
REMARK  status: ('A' for Active; 'I' for Inactive)
REMARK    1  A    between atoms: C_1  and  C_2
REMARK    2  A    between atoms: C_2  and  C_3
REMARK    3  A    between atoms: C_3  and  C_4
REMARK    4  A    between atoms: C_3  and  C_5
REMARK    5  A    between atoms: C_3  and  N_6
REMARK    6  A    between atoms: C_7  and  C_11
REMARK    7  A    between atoms: C_11  and  C_13
REMARK    8  A    between atoms: C_11  and  N_68
REMARK    9  A    between atoms: C_18  and  C_26
REMARK   10  A    between atoms: C_19  and  C_25
REMARK   11  A    between atoms: C_27  and  C_28
REMARK   12  A    between atoms: C_27  and  N_68
REMARK   13  A    between atoms: C_29  and  C_30
REMARK   14  A    between atoms: C_29  and  N_68
REMARK                            x       y       z     vdW  Elec       q    Type
REMARK                         _______ _______ _______ _____ _____    ______ ____
ROOT
ATOM      1  C   UNL     1       3.586   0.581  -0.204  0.00  0.00    +0.039 C 
ENDROOT
BRANCH   1   2
ATOM      2  C   UNL     1       3.920   0.401   1.254  0.00  0.00    +0.011 A 
ATOM      3  C   UNL     1       2.963  -0.016   2.120  0.00  0.00    +0.017 A 
ATOM      4  C   UNL     1       3.322  -0.185   3.530  0.00  0.00    -0.001 A 
ATOM      5  C   UNL     1       2.380  -0.617   4.469  0.00  0.00    +0.010 A 
ATOM      6  C   UNL     1       2.744  -0.759   5.778  0.00  0.00    +0.004 A 
ATOM      7  C   UNL     1       4.042  -0.479   6.184  0.00  0.00    -0.046 A 
ATOM      8  C   UNL     1       4.987  -0.054   5.276  0.00  0.00    -0.024 A 
ATOM      9  C   UNL     1       4.638   0.099   3.938  0.00  0.00    +0.052 A 
ATOM     10  N   UNL     1       5.563   0.525   3.008  0.00  0.00    -0.322 N 
ATOM     11  H   UNL     1       6.498   0.727   3.300  0.00  0.00    +0.169 HD
ATOM     12  C   UNL     1       5.226   0.673   1.715  0.00  0.00    +0.251 A 
ATOM     13  O   UNL     1       6.070   1.051   0.921  0.00  0.00    -0.268 OA
ATOM     14  C   UNL     1       6.392   0.246   5.731  0.00  0.00    +0.046 C 
ATOM     15  C   UNL     1       4.421  -0.643   7.633  0.00  0.00    +0.044 C 
ENDBRANCH   1   2
BRANCH   1  17
ATOM     16  N   UNL     1       1.794  -0.998  -1.100  0.00  0.00    -0.225 N 
ATOM     17  C   UNL     1       2.172   0.122  -0.456  0.00  0.00    +0.143 A 
ATOM     18  N   UNL     1       1.073   0.735  -0.090  0.00  0.00    -0.115 NA
ATOM     19  N   UNL     1       0.072   0.029  -0.488  0.00  0.00    -0.023 NA
ATOM     20  N   UNL     1       0.504  -1.019  -1.099  0.00  0.00    -0.043 NA
BRANCH  16  21
ATOM     21  C   UNL     1       2.680  -2.003  -1.691  0.00  0.00    +0.061 C 
ATOM     22  C   UNL     1       3.474  -1.373  -2.837  0.00  0.00    +0.036 C 
ATOM     23  C   UNL     1       3.648  -2.520  -0.624  0.00  0.00    +0.036 C 
BRANCH  21  25
ATOM     24  C   UNL     1       2.770  -4.217  -2.846  0.00  0.00    +0.006 C 
ATOM     25  C   UNL     1       1.845  -3.167  -2.228  0.00  0.00    +0.026 C 
ENDBRANCH  21  25
ENDBRANCH  16  21
ENDBRANCH   1  17
BRANCH   1  26
ATOM     26  N   UNL     1       3.738   2.008  -0.560  0.00  0.00    +0.392 N 
ATOM     27  H   UNL     1       4.717   2.284  -0.417  0.00  0.00    -0.080 HD
BRANCH  26  28
ATOM     28  C   UNL     1       2.873   2.839   0.304  0.00  0.00    -0.080 C 
ATOM     29  C   UNL     1       3.589   3.068   1.637  0.00  0.00    -0.017 C 
ENDBRANCH  26  28
BRANCH  26  30
ATOM     30  C   UNL     1       3.383   2.215  -1.979  0.00  0.00    -0.042 C 
BRANCH  30  31
ATOM     31  C   UNL     1       3.875   3.574  -2.408  0.00  0.00    -0.064 A 
ATOM     32  C   UNL     1       3.011   4.653  -2.409  0.00  0.00    +0.002 A 
ATOM     33  C   UNL     1       3.463   5.900  -2.797  0.00  0.00    +0.000 A 
ATOM     34  C   UNL     1       4.777   6.066  -3.194  0.00  0.00    +0.000 A 
ATOM     35  C   UNL     1       5.639   4.986  -3.199  0.00  0.00    +0.000 A 
ATOM     36  C   UNL     1       5.188   3.740  -2.805  0.00  0.00    +0.002 A 
ENDBRANCH  30  31
ENDBRANCH  26  30
ENDBRANCH   1  26
TORSDOF 8
