REMARK  Name = ZINC59787337
REMARK  8 active torsions:
REMARK  status: ('A' for Active; 'I' for Inactive)
REMARK    1  A    between atoms: C_1  and  C_2
REMARK    2  A    between atoms: C_5  and  C_8
REMARK    3  A    between atoms: C_8  and  C_10
REMARK    4  A    between atoms: C_8  and  N_29
REMARK    5  A    between atoms: C_10  and  N_11
REMARK    6  A    between atoms: C_12  and  C_14
REMARK    7  A    between atoms: C_16  and  N_26
REMARK    8  A    between atoms: C_19  and  N_20
REMARK                            x       y       z     vdW  Elec       q    Type
REMARK                         _______ _______ _______ _____ _____    ______ ____
ROOT
ATOM      1  N   UNL     1      -1.163  -6.369   0.298  0.00  0.00    -0.309 N 
ATOM      2  C   UNL     1      -2.239  -7.143   0.545  0.00  0.00    +0.246 C 
ATOM      3  O   UNL     1      -3.322  -6.631   0.750  0.00  0.00    -0.270 OA
ATOM      4  H   UNL     1      -0.299  -6.778   0.134  0.00  0.00    +0.149 HD
ENDROOT
BRANCH   2   5
ATOM      5  C   UNL     1      -2.101  -8.611   0.565  0.00  0.00    +0.060 A 
ATOM      6  C   UNL     1      -0.857  -9.204   0.335  0.00  0.00    +0.047 A 
ATOM      7  C   UNL     1      -0.735 -10.576   0.355  0.00  0.00    +0.127 A 
ATOM      8  C   UNL     1      -1.841 -11.374   0.602  0.00  0.00    +0.034 A 
ATOM      9  C   UNL     1      -3.077 -10.804   0.831  0.00  0.00    +0.026 A 
ATOM     10  C   UNL     1      -3.218  -9.421   0.821  0.00  0.00    +0.042 A 
BRANCH  10  11
ATOM     11  N   UNL     1      -4.459  -8.845   1.057  0.00  0.00    -0.325 N 
ATOM     12  C   UNL     1      -5.393  -8.576  -0.049  0.00  0.00    +0.133 C 
ATOM     13  C   UNL     1      -6.760  -9.163   0.320  0.00  0.00    +0.178 C 
ATOM     14  O   UNL     1      -7.147  -8.681   1.609  0.00  0.00    -0.377 OA
ATOM     15  C   UNL     1      -6.272  -9.077   2.668  0.00  0.00    +0.178 C 
ATOM     16  C   UNL     1      -4.882  -8.491   2.421  0.00  0.00    +0.133 C 
ENDBRANCH  10  11
BRANCH   7  17
ATOM     17  N   UNL     1       0.584 -11.202   0.110  0.00  0.00    +0.056 N 
ATOM     18  O   UNL     1       1.551 -10.509  -0.106  0.00  0.00    -0.126 OA
ATOM     19  O   UNL     1       0.695 -12.405   0.127  0.00  0.00    -0.126 OA
ENDBRANCH   7  17
ENDBRANCH   2   5
BRANCH   1  20
ATOM     20  C   UNL     1      -1.300  -4.911   0.278  0.00  0.00    +0.128 C 
BRANCH  20  21
ATOM     21  C   UNL     1       0.059  -4.275  -0.021  0.00  0.00    +0.104 C 
BRANCH  21  26
ATOM     22  C   UNL     1      -0.378   1.474   0.362  0.00  0.00    +0.044 C 
ATOM     23  C   UNL     1      -0.264  -0.025   0.262  0.00  0.00    -0.050 A 
ATOM     24  C   UNL     1       0.338  -0.601  -0.841  0.00  0.00    +0.003 A 
ATOM     25  C   UNL     1       0.443  -1.976  -0.933  0.00  0.00    +0.005 A 
ATOM     26  C   UNL     1      -0.054  -2.776   0.079  0.00  0.00    -0.029 A 
ATOM     27  C   UNL     1      -0.655  -2.201   1.183  0.00  0.00    +0.005 A 
ATOM     28  C   UNL     1      -0.756  -0.825   1.276  0.00  0.00    +0.003 A 
ENDBRANCH  21  26
BRANCH  21  29
ATOM     29  N   UNL     1       1.050  -4.758   0.950  0.00  0.00    -0.290 NA
ATOM     30  C   UNL     1       0.678  -4.371   2.318  0.00  0.00    +0.113 C 
ATOM     31  C   UNL     1       1.703  -4.943   3.301  0.00  0.00    +0.175 C 
ATOM     32  O   UNL     1       3.009  -4.481   2.944  0.00  0.00    -0.377 OA
ATOM     33  C   UNL     1       3.404  -4.840   1.617  0.00  0.00    +0.175 C 
ATOM     34  C   UNL     1       2.396  -4.267   0.618  0.00  0.00    +0.113 C 
ENDBRANCH  21  29
ENDBRANCH  20  21
ENDBRANCH   1  20
TORSDOF 7
