REMARK  Name = ZINC40157493
REMARK  9 active torsions:
REMARK  status: ('A' for Active; 'I' for Inactive)
REMARK    1  A    between atoms: C_1  and  O_2
REMARK    2  A    between atoms: O_2  and  C_3
REMARK    3  A    between atoms: C_8  and  C_9
REMARK    4  A    between atoms: C_9  and  C_11
REMARK    5  A    between atoms: C_9  and  N_28
REMARK    6  A    between atoms: C_11  and  N_12
REMARK    7  A    between atoms: C_13  and  C_15
REMARK    8  A    between atoms: C_15  and  N_16
REMARK    9  A    between atoms: C_17  and  C_19
REMARK                            x       y       z     vdW  Elec       q    Type
REMARK                         _______ _______ _______ _____ _____    ______ ____
ROOT
ATOM      1  N   UNL     1       1.945  -3.821   1.151  0.00  0.00    -0.315 N 
ATOM      2  C   UNL     1       2.700  -4.129   2.224  0.00  0.00    +0.230 C 
ATOM      3  O   UNL     1       2.437  -3.653   3.308  0.00  0.00    -0.274 OA
ATOM      4  H   UNL     1       2.155  -4.203   0.284  0.00  0.00    +0.149 HD
ENDROOT
BRANCH   1   5
ATOM      5  C   UNL     1       0.806  -2.911   1.293  0.00  0.00    +0.093 C 
BRANCH   5   6
ATOM      6  C   UNL     1       0.047  -2.832  -0.033  0.00  0.00    -0.017 C 
BRANCH   6   7
ATOM      7  N   UNL     1      -0.322  -4.186  -0.467  0.00  0.00    +0.385 N 
ATOM      8  C   UNL     1      -1.153  -4.102  -1.674  0.00  0.00    -0.078 C 
ATOM      9  C   UNL     1      -1.473  -5.511  -2.177  0.00  0.00    -0.019 C 
ATOM     10  C   UNL     1      -2.227  -6.278  -1.087  0.00  0.00    -0.004 C 
ATOM     11  C   UNL     1      -1.382  -6.295   0.189  0.00  0.00    -0.019 C 
ATOM     12  C   UNL     1      -1.066  -4.857   0.605  0.00  0.00    -0.078 C 
ATOM     13  H   UNL     1       0.515  -4.711  -0.674  0.00  0.00    -0.081 HD
ENDBRANCH   6   7
BRANCH   6  19
ATOM     14  C   UNL     1       1.063  -0.811  -1.114  0.00  0.00    +0.122 A 
ATOM     15  C   UNL     1       1.876  -0.224  -2.073  0.00  0.00    +0.046 A 
ATOM     16  C   UNL     1       2.541  -1.014  -2.991  0.00  0.00    +0.004 A 
ATOM     17  C   UNL     1       2.396  -2.389  -2.955  0.00  0.00    +0.000 A 
ATOM     18  C   UNL     1       1.587  -2.976  -2.001  0.00  0.00    +0.005 A 
ATOM     19  C   UNL     1       0.924  -2.191  -1.077  0.00  0.00    -0.018 A 
BRANCH  14  21
ATOM     20  C   UNL     1       0.599   1.377  -0.308  0.00  0.00    +0.277 C 
ATOM     21  O   UNL     1       0.409  -0.036  -0.210  0.00  0.00    -0.495 OA
ENDBRANCH  14  21
ENDBRANCH   6  19
ENDBRANCH   5   6
ENDBRANCH   1   5
BRANCH   2  22
ATOM     22  C   UNL     1       3.871  -5.066   2.077  0.00  0.00    +0.200 C 
BRANCH  22  23
ATOM     23  N   UNL     1       4.524  -5.239   3.377  0.00  0.00    -0.303 N 
ATOM     24  C   UNL     1       5.603  -6.039   3.488  0.00  0.00    +0.245 C 
ATOM     25  O   UNL     1       6.034  -6.618   2.510  0.00  0.00    -0.270 OA
ATOM     26  H   UNL     1       4.180  -4.777   4.158  0.00  0.00    +0.150 HD
BRANCH  24  27
ATOM     27  C   UNL     1       6.261  -6.213   4.798  0.00  0.00    +0.040 A 
ATOM     28  C   UNL     1       5.764  -5.553   5.925  0.00  0.00    +0.017 A 
ATOM     29  C   UNL     1       6.379  -5.717   7.146  0.00  0.00    +0.050 A 
ATOM     30  C   UNL     1       7.493  -6.537   7.263  0.00  0.00    +0.166 A 
ATOM     31  C   UNL     1       7.995  -7.198   6.142  0.00  0.00    +0.167 A 
ATOM     32  C   UNL     1       7.379  -7.042   4.915  0.00  0.00    +0.062 A 
ATOM     33  O   UNL     1       9.083  -7.932   6.520  0.00  0.00    -0.453 OA
ATOM     34  C   UNL     1       9.486  -7.394   7.793  0.00  0.00    +0.466 C 
ATOM     35  O   UNL     1       8.266  -6.858   8.340  0.00  0.00    -0.453 OA
ENDBRANCH  24  27
ENDBRANCH  22  23
ENDBRANCH   2  22
TORSDOF 8
