REMARK  Name = ZINC38547848
REMARK  9 active torsions:
REMARK  status: ('A' for Active; 'I' for Inactive)
REMARK    1  A    between atoms: C_1  and  C_2
REMARK    2  A    between atoms: C_2  and  C_3
REMARK    3  A    between atoms: C_5  and  C_16
REMARK    4  A    between atoms: C_6  and  N_8
REMARK    5  A    between atoms: C_9  and  C_11
REMARK    6  A    between atoms: C_16  and  C_18
REMARK    7  A    between atoms: C_16  and  N_25
REMARK    8  A    between atoms: C_21  and  C_24
REMARK    9  A    between atoms: C_30  and  C_32
REMARK                            x       y       z     vdW  Elec       q    Type
REMARK                         _______ _______ _______ _____ _____    ______ ____
ROOT
ATOM      1  C   UNL     1       3.955  -1.485  -2.738  0.00  0.00    +0.135 C 
ENDROOT
BRANCH   1   2
ATOM      2  N   UNL     1       4.762  -1.957  -1.610  0.00  0.00    -0.320 N 
ATOM      3  C   UNL     1       4.772  -3.307  -1.279  0.00  0.00    +0.097 A 
ATOM      4  C   UNL     1       3.960  -4.194  -1.978  0.00  0.00    +0.041 A 
ATOM      5  C   UNL     1       3.980  -5.535  -1.638  0.00  0.00    +0.005 A 
ATOM      6  C   UNL     1       4.816  -5.945  -0.608  0.00  0.00    +0.021 A 
ATOM      7  C   UNL     1       5.596  -5.010   0.043  0.00  0.00    +0.014 A 
ATOM      8  N   UNL     1       5.560  -3.738  -0.306  0.00  0.00    -0.347 N 
ATOM      9  C   UNL     1       6.505  -5.449   1.162  0.00  0.00    +0.063 C 
ATOM     10  H   UNL     1       5.288  -1.327  -1.093  0.00  0.00    +0.148 HD
ATOM     11  H   UNL     1       6.121  -3.102   0.165  0.00  0.00    +0.167 HD
ENDBRANCH   1   2
BRANCH   1  12
ATOM     12  C   UNL     1       4.552  -0.215  -3.287  0.00  0.00    -0.023 A 
ATOM     13  C   UNL     1       4.953   0.789  -2.425  0.00  0.00    +0.006 A 
ATOM     14  C   UNL     1       5.501   1.954  -2.928  0.00  0.00    +0.004 A 
ATOM     15  C   UNL     1       5.649   2.115  -4.293  0.00  0.00    -0.050 A 
ATOM     16  C   UNL     1       5.248   1.111  -5.154  0.00  0.00    +0.004 A 
ATOM     17  C   UNL     1       4.704  -0.056  -4.651  0.00  0.00    +0.006 A 
ATOM     18  C   UNL     1       6.245   3.386  -4.841  0.00  0.00    +0.044 C 
ENDBRANCH   1  12
BRANCH   1  21
ATOM     19  C   UNL     1       1.014  -0.665  -0.565  0.00  0.00    -0.008 A 
ATOM     20  C   UNL     1       2.291  -0.900  -0.951  0.00  0.00    +0.019 A 
ATOM     21  C   UNL     1       2.547  -1.218  -2.272  0.00  0.00    +0.006 A 
ATOM     22  C   UNL     1       1.503  -1.284  -3.145  0.00  0.00    +0.078 A 
ATOM     23  S   UNL     1       0.116  -0.899  -2.090  0.00  0.00    -0.078 S 
BRANCH  22  24
ATOM     24  N   UNL     1       1.514  -1.582  -4.509  0.00  0.00    -0.273 N 
ATOM     25  C   UNL     1       0.361  -1.597  -5.205  0.00  0.00    +0.284 C 
ATOM     26  O   UNL     1      -0.692  -1.351  -4.645  0.00  0.00    -0.266 OA
ATOM     27  H   UNL     1       2.353  -1.779  -4.955  0.00  0.00    +0.156 HD
BRANCH  25  28
ATOM     28  C   UNL     1       0.373  -1.910  -6.638  0.00  0.00    +0.189 A 
ATOM     29  C   UNL     1      -0.718  -1.954  -7.459  0.00  0.00    +0.054 A 
ATOM     30  C   UNL     1      -0.246  -2.290  -8.738  0.00  0.00    +0.042 A 
ATOM     31  C   UNL     1       1.094  -2.434  -8.643  0.00  0.00    +0.196 A 
ATOM     32  O   UNL     1       1.464  -2.200  -7.377  0.00  0.00    -0.458 OA
ENDBRANCH  25  28
ENDBRANCH  22  24
BRANCH  19  34
ATOM     33  C   UNL     1       0.467   1.216   0.955  0.00  0.00    +0.009 C 
ATOM     34  C   UNL     1       0.487  -0.306   0.800  0.00  0.00    +0.039 C 
ENDBRANCH  19  34
ENDBRANCH   1  21
TORSDOF 6
