REMARK  Name = ZINC36525588
REMARK  13 active torsions:
REMARK  status: ('A' for Active; 'I' for Inactive)
REMARK    1  A    between atoms: C_1  and  C_2
REMARK    2  A    between atoms: C_5  and  S_8
REMARK    3  A    between atoms: S_8  and  C_11
REMARK    4  A    between atoms: C_11  and  N_12
REMARK    5  A    between atoms: C_13  and  C_15
REMARK    6  A    between atoms: C_15  and  C_17
REMARK    7  A    between atoms: C_15  and  N_24
REMARK    8  A    between atoms: C_22  and  O_23
REMARK    9  A    between atoms: N_24  and  C_25
REMARK   10  A    between atoms: C_26  and  C_28
REMARK   11  A    between atoms: C_36  and  C_38
REMARK   12  A    between atoms: C_39  and  C_40
REMARK   13  A    between atoms: C_39  and  C_41
REMARK                            x       y       z     vdW  Elec       q    Type
REMARK                         _______ _______ _______ _____ _____    ______ ____
ROOT
ATOM      1  C   UNL     1       3.875  -4.609   3.171  0.00  0.00    +0.195 C 
ENDROOT
BRANCH   1   2
ATOM      2  C   UNL     1       5.237  -4.031   3.459  0.00  0.00    +0.023 A 
ATOM      3  C   UNL     1       6.320  -4.393   2.681  0.00  0.00    +0.009 A 
ATOM      4  C   UNL     1       7.570  -3.864   2.946  0.00  0.00    +0.001 A 
ATOM      5  C   UNL     1       7.739  -2.971   3.988  0.00  0.00    +0.004 A 
ATOM      6  C   UNL     1       6.659  -2.606   4.768  0.00  0.00    +0.046 A 
ATOM      7  C   UNL     1       5.403  -3.132   4.502  0.00  0.00    +0.122 A 
BRANCH   7   8
ATOM      8  O   UNL     1       4.338  -2.770   5.264  0.00  0.00    -0.506 OA
ATOM      9  H   UNL     1       4.197  -3.335   6.036  0.00  0.00    +0.292 HD
ENDBRANCH   7   8
ENDBRANCH   1   2
BRANCH   1  11
ATOM     10  N   UNL     1       4.115  -4.410   0.717  0.00  0.00    -0.294 N 
ATOM     11  C   UNL     1       3.862  -5.196   1.782  0.00  0.00    +0.239 C 
ATOM     12  O   UNL     1       3.624  -6.374   1.625  0.00  0.00    -0.273 OA
ATOM     13  H   UNL     1       4.306  -3.468   0.843  0.00  0.00    +0.150 HD
BRANCH  10  14
ATOM     14  C   UNL     1       4.103  -4.981  -0.633  0.00  0.00    +0.278 C 
BRANCH  14  15
ATOM     15  S   UNL     1       2.469  -4.729  -1.380  0.00  0.00    +0.013 S 
ATOM     16  O   UNL     1       1.449  -5.100  -0.464  0.00  0.00    -0.168 OA
ATOM     17  O   UNL     1       2.460  -5.220  -2.714  0.00  0.00    -0.168 OA
BRANCH  15  22
ATOM     18  C   UNL     1       1.926   1.254  -1.944  0.00  0.00    +0.044 C 
ATOM     19  C   UNL     1       2.062  -0.240  -1.803  0.00  0.00    -0.050 A 
ATOM     20  C   UNL     1       2.615  -0.984  -2.829  0.00  0.00    +0.005 A 
ATOM     21  C   UNL     1       2.740  -2.354  -2.700  0.00  0.00    +0.027 A 
ATOM     22  C   UNL     1       2.311  -2.981  -1.545  0.00  0.00    +0.090 A 
ATOM     23  C   UNL     1       1.759  -2.238  -0.519  0.00  0.00    +0.027 A 
ATOM     24  C   UNL     1       1.638  -0.867  -0.646  0.00  0.00    +0.005 A 
ENDBRANCH  15  22
ENDBRANCH  14  15
ENDBRANCH  10  14
ENDBRANCH   1  11
BRANCH   1  25
ATOM     25  N   UNL     1       3.573  -5.658   4.147  0.00  0.00    -0.289 N 
ATOM     26  C   UNL     1       4.505  -6.772   4.337  0.00  0.00    +0.133 C 
ATOM     27  C   UNL     1       2.438  -5.598   4.871  0.00  0.00    +0.220 C 
ATOM     28  O   UNL     1       1.715  -4.628   4.786  0.00  0.00    -0.275 OA
BRANCH  27  29
ATOM     29  C   UNL     1       2.063  -6.746   5.792  0.00  0.00    +0.079 C 
ATOM     30  C   UNL     1       1.613  -7.929   4.941  0.00  0.00    +0.017 C 
ATOM     31  C   UNL     1       0.464  -8.710   5.576  0.00  0.00    -0.004 C 
ATOM     32  C   UNL     1      -0.767  -7.805   5.803  0.00  0.00    +0.008 C 
ATOM     33  C   UNL     1      -0.020  -7.376   7.090  0.00  0.00    -0.001 C 
ATOM     34  C   UNL     1       0.980  -6.271   6.751  0.00  0.00    +0.001 C 
ATOM     35  C   UNL     1       1.602  -5.692   8.026  0.00  0.00    +0.008 C 
ATOM     36  C   UNL     1       0.539  -8.800   7.106  0.00  0.00    -0.029 C 
ATOM     37  C   UNL     1       1.935  -8.992   7.688  0.00  0.00    +0.011 C 
ATOM     38  C   UNL     1      -0.446  -9.830   7.696  0.00  0.00    +0.011 C 
ENDBRANCH  27  29
ENDBRANCH   1  25
TORSDOF 8
