REMARK  Name = ZINC38976818
REMARK  8 active torsions:
REMARK  status: ('A' for Active; 'I' for Inactive)
REMARK    1  A    between atoms: C_1  and  C_2
REMARK    2  A    between atoms: C_5  and  N_9
REMARK    3  A    between atoms: C_6  and  C_8
REMARK    4  A    between atoms: N_9  and  C_10
REMARK    5  A    between atoms: C_12  and  C_22
REMARK    6  A    between atoms: C_20  and  C_21
REMARK    7  A    between atoms: C_27  and  O_34
REMARK    8  A    between atoms: O_34  and  C_35
REMARK                            x       y       z     vdW  Elec       q    Type
REMARK                         _______ _______ _______ _____ _____    ______ ____
ROOT
ATOM      1  C   UNL     1      -0.272  -4.797  -1.384  0.00  0.00    +0.188 C 
ATOM      2  C   UNL     1      -1.026  -6.109  -1.099  0.00  0.00    +0.135 C 
ATOM      3  N   UNL     1       0.021  -7.135  -1.126  0.00  0.00    -0.365 N 
ATOM      4  C   UNL     1       1.192  -6.588  -1.376  0.00  0.00    +0.103 C 
ATOM      5  N   UNL     1       1.128  -5.226  -1.545  0.00  0.00    -0.272 N 
ATOM      6  C   UNL     1       2.249  -4.496  -1.813  0.00  0.00    +0.078 C 
ATOM      7  C   UNL     1       3.454  -5.092  -1.921  0.00  0.00    +0.016 C 
ATOM      8  C   UNL     1       3.568  -6.483  -1.758  0.00  0.00    +0.008 C 
ATOM      9  C   UNL     1       2.459  -7.229  -1.488  0.00  0.00    -0.012 C 
ATOM     10  C   UNL     1       2.569  -8.722  -1.311  0.00  0.00    +0.047 C 
ATOM     11  H   UNL     1      -0.128  -8.082  -0.980  0.00  0.00    +0.161 HD
ENDROOT
BRANCH   2  12
ATOM     12  C   UNL     1      -1.692  -6.056   0.278  0.00  0.00    +0.124 C 
ATOM     13  C   UNL     1      -0.601  -5.892   1.317  0.00  0.00    -0.002 C 
ATOM     14  C   UNL     1      -0.514  -6.845   2.288  0.00  0.00    -0.003 A 
ATOM     15  C   UNL     1       0.510  -6.763   3.329  0.00  0.00    +0.055 A 
ATOM     16  C   UNL     1       0.560  -7.738   4.279  0.00  0.00    +0.121 A 
ATOM     17  C   UNL     1      -0.346  -8.805   4.273  0.00  0.00    +0.047 A 
ATOM     18  C   UNL     1      -1.318  -8.934   3.334  0.00  0.00    +0.027 A 
ATOM     19  C   UNL     1      -1.453  -7.980   2.308  0.00  0.00    +0.041 A 
ATOM     20  N   UNL     1      -2.412  -8.119   1.392  0.00  0.00    -0.284 N 
ATOM     21  C   UNL     1      -2.595  -7.262   0.403  0.00  0.00    +0.226 C 
ATOM     22  O   UNL     1      -3.487  -7.443  -0.404  0.00  0.00    -0.275 OA
ATOM     23  H   UNL     1      -3.003  -8.886   1.455  0.00  0.00    +0.155 HD
BRANCH  16  24
ATOM     24  O   UNL     1       1.507  -7.673   5.252  0.00  0.00    -0.495 OA
ATOM     25  C   UNL     1       1.513  -8.722   6.222  0.00  0.00    +0.277 C 
ENDBRANCH  16  24
ENDBRANCH   2  12
BRANCH   1  26
ATOM     26  N   UNL     1      -0.401  -3.872  -0.255  0.00  0.00    -0.324 N 
ATOM     27  H   UNL     1       0.333  -3.763   0.369  0.00  0.00    +0.148 HD
BRANCH  26  32
ATOM     28  C   UNL     1      -5.195  -0.931   0.467  0.00  0.00    +0.044 C 
ATOM     29  C   UNL     1      -3.921  -1.712   0.275  0.00  0.00    -0.050 A 
ATOM     30  C   UNL     1      -3.756  -2.497  -0.851  0.00  0.00    +0.005 A 
ATOM     31  C   UNL     1      -2.590  -3.215  -1.030  0.00  0.00    +0.023 A 
ATOM     32  C   UNL     1      -1.582  -3.147  -0.077  0.00  0.00    +0.031 A 
ATOM     33  C   UNL     1      -1.751  -2.358   1.053  0.00  0.00    -0.029 A 
ATOM     34  C   UNL     1      -2.917  -1.639   1.223  0.00  0.00    +0.008 A 
ATOM     35  C   UNL     1      -0.660  -2.283   2.090  0.00  0.00    +0.045 C 
ENDBRANCH  26  32
ENDBRANCH   1  26
TORSDOF 4
