REMARK  Name = ZINC54064509
REMARK  8 active torsions:
REMARK  status: ('A' for Active; 'I' for Inactive)
REMARK    1  A    between atoms: C_1  and  C_2
REMARK    2  A    between atoms: C_2  and  C_4
REMARK    3  A    between atoms: C_2  and  N_11
REMARK    4  A    between atoms: N_14  and  N_15
REMARK    5  A    between atoms: C_16  and  C_18
REMARK    6  A    between atoms: C_18  and  C_20
REMARK    7  A    between atoms: C_18  and  O_21
REMARK    8  A    between atoms: O_21  and  C_22
REMARK                            x       y       z     vdW  Elec       q    Type
REMARK                         _______ _______ _______ _____ _____    ______ ____
ROOT
ATOM      1  N   UNL     1      -1.264  -1.151   0.528  0.00  0.00    -0.292 N 
ATOM      2  C   UNL     1      -2.056  -1.122   1.618  0.00  0.00    +0.316 C 
ATOM      3  O   UNL     1      -1.591  -0.817   2.700  0.00  0.00    -0.251 OA
ATOM      4  N   UNL     1      -3.364  -1.430   1.510  0.00  0.00    -0.218 N 
ATOM      5  H   UNL     1      -1.635  -1.394  -0.334  0.00  0.00    +0.151 HD
ATOM      6  H   UNL     1      -3.934  -1.408   2.294  0.00  0.00    +0.174 HD
ENDROOT
BRANCH   4   7
ATOM      7  N   UNL     1      -3.900  -1.781   0.264  0.00  0.00    -0.230 N 
ATOM      8  C   UNL     1      -5.207  -2.089   0.155  0.00  0.00    +0.270 C 
ATOM      9  O   UNL     1      -5.920  -2.062   1.136  0.00  0.00    -0.270 OA
ATOM     10  H   UNL     1      -3.330  -1.802  -0.521  0.00  0.00    +0.173 HD
BRANCH   8  11
ATOM     11  C   UNL     1      -5.784  -2.466  -1.185  0.00  0.00    +0.257 C 
ATOM     12  C   UNL     1      -5.707  -1.266  -2.130  0.00  0.00    +0.062 C 
BRANCH  11  13
ATOM     13  O   UNL     1      -7.148  -2.859  -1.023  0.00  0.00    -0.480 OA
BRANCH  13  14
ATOM     14  C   UNL     1      -7.666  -3.695  -1.962  0.00  0.00    +0.122 A 
ATOM     15  C   UNL     1      -6.912  -4.042  -3.074  0.00  0.00    +0.048 A 
ATOM     16  C   UNL     1      -7.439  -4.891  -4.027  0.00  0.00    +0.042 A 
ATOM     17  C   UNL     1      -8.719  -5.396  -3.874  0.00  0.00    +0.124 A 
ATOM     18  C   UNL     1      -9.473  -5.050  -2.766  0.00  0.00    +0.042 A 
ATOM     19  C   UNL     1      -8.946  -4.205  -1.807  0.00  0.00    +0.048 A 
ATOM     20  F   UNL     1      -9.233  -6.226  -4.808  0.00  0.00    -0.205 F 
ENDBRANCH  13  14
ENDBRANCH  11  13
ENDBRANCH   8  11
ENDBRANCH   4   7
BRANCH   1  22
ATOM     21  C   UNL     1       0.333   0.700   0.552  0.00  0.00    +0.033 C 
ATOM     22  C   UNL     1       0.157  -0.817   0.646  0.00  0.00    +0.103 C 
BRANCH  22  23
ATOM     23  C   UNL     1       0.924  -1.481  -0.468  0.00  0.00    -0.009 A 
ATOM     24  C   UNL     1       0.284  -1.806  -1.649  0.00  0.00    +0.007 A 
ATOM     25  C   UNL     1       0.988  -2.416  -2.671  0.00  0.00    +0.000 A 
ATOM     26  C   UNL     1       2.331  -2.701  -2.512  0.00  0.00    +0.001 A 
ATOM     27  C   UNL     1       2.972  -2.377  -1.331  0.00  0.00    +0.020 A 
ATOM     28  C   UNL     1       2.270  -1.761  -0.310  0.00  0.00    +0.046 A 
ATOM     29 CL   UNL     1       3.075  -1.347   1.171  0.00  0.00    -0.083 Cl
ENDBRANCH  22  23
ENDBRANCH   1  22
TORSDOF 6
