REMARK  Name = ZINC37189783
REMARK  5 active torsions:
REMARK  status: ('A' for Active; 'I' for Inactive)
REMARK    1  A    between atoms: C_3  and  C_6
REMARK    2  A    between atoms: C_8  and  C_11
REMARK    3  A    between atoms: C_11  and  S_12
REMARK    4  A    between atoms: S_12  and  C_13
REMARK    5  A    between atoms: C_18  and  N_19
REMARK                            x       y       z     vdW  Elec       q    Type
REMARK                         _______ _______ _______ _____ _____    ______ ____
ROOT
ATOM      1  C   UNL     1       6.749  -1.138  -0.077  0.00  0.00    +0.173 C 
ENDROOT
BRANCH   1   4
ATOM      2  C   UNL     1       3.572   0.620  -0.029  0.00  0.00    +0.237 A 
ATOM      3  N   UNL     1       4.332  -0.493  -0.048  0.00  0.00    -0.188 NA
ATOM      4  C   UNL     1       5.594  -0.171  -0.057  0.00  0.00    +0.238 A 
ATOM      5  O   UNL     1       5.693   1.165  -0.044  0.00  0.00    -0.337 OA
ATOM      6  N   UNL     1       4.364   1.667  -0.032  0.00  0.00    -0.053 NA
BRANCH   2   9
ATOM      7  C   UNL     1      -0.016   1.344   0.009  0.00  0.00    +0.042 A 
ATOM      8  C   UNL     1       1.324   1.775  -0.001  0.00  0.00    +0.053 A 
ATOM      9  C   UNL     1       2.096   0.655  -0.014  0.00  0.00    +0.175 A 
ATOM     10  O   UNL     1       1.279  -0.416  -0.012  0.00  0.00    -0.460 OA
ATOM     11  C   UNL     1       0.002  -0.004   0.002  0.00  0.00    +0.196 A 
ENDBRANCH   2   9
ENDBRANCH   1   4
BRANCH   1  12
ATOM     12  S   UNL     1       7.196  -1.510  -1.795  0.00  0.00    -0.114 S 
BRANCH  12  13
ATOM     13  C   UNL     1       8.542  -2.638  -1.651  0.00  0.00    +0.032 A 
ATOM     14  C   UNL     1       9.008  -3.038  -0.401  0.00  0.00    +0.036 A 
ATOM     15  C   UNL     1      10.065  -3.924  -0.330  0.00  0.00    +0.112 A 
ATOM     16  N   UNL     1      10.634  -4.391  -1.424  0.00  0.00    -0.261 NA
ATOM     17  C   UNL     1      10.225  -4.040  -2.630  0.00  0.00    +0.134 A 
ATOM     18  C   UNL     1       9.167  -3.161  -2.790  0.00  0.00    +0.056 A 
BRANCH  18  19
ATOM     19  N   UNL     1       8.733  -2.796  -4.070  0.00  0.00    -0.356 N 
ATOM     20  H   UNL     1       7.994  -2.176  -4.174  0.00  0.00    +0.142 HD
ATOM     21  H   UNL     1       9.172  -3.162  -4.854  0.00  0.00    +0.142 HD
ENDBRANCH  18  19
ENDBRANCH  12  13
ENDBRANCH   1  12
TORSDOF 5
