REMARK  Name = ZINC22837092
REMARK  13 active torsions:
REMARK  status: ('A' for Active; 'I' for Inactive)
REMARK    1  A    between atoms: C_1  and  N_2
REMARK    2  A    between atoms: N_2  and  C_3
REMARK    3  A    between atoms: N_2  and  C_4
REMARK    4  A    between atoms: C_4  and  C_6
REMARK    5  A    between atoms: C_4  and  C_28
REMARK    6  A    between atoms: C_6  and  N_7
REMARK    7  A    between atoms: C_8  and  C_10
REMARK    8  A    between atoms: C_10  and  C_11
REMARK    9  A    between atoms: C_11  and  S_12
REMARK   10  A    between atoms: S_12  and  C_13
REMARK   11  A    between atoms: C_13  and  C_14
REMARK   12  A    between atoms: C_33  and  O_34
REMARK   13  A    between atoms: O_34  and  C_35
REMARK                            x       y       z     vdW  Elec       q    Type
REMARK                         _______ _______ _______ _____ _____    ______ ____
ROOT
ATOM      1  N   UNL     1      -0.964  -2.611   0.830  0.00  0.00    -0.317 N 
ATOM      2  C   UNL     1      -1.053  -3.951   0.934  0.00  0.00    +0.214 C 
ATOM      3  O   UNL     1      -1.720  -4.578   0.138  0.00  0.00    -0.276 OA
ATOM      4  H   UNL     1      -0.430  -2.109   1.467  0.00  0.00    +0.149 HD
ENDROOT
BRANCH   1   5
ATOM      5  C   UNL     1      -1.671  -1.910  -0.245  0.00  0.00    +0.093 C 
BRANCH   5   6
ATOM      6  C   UNL     1      -1.510  -0.400  -0.062  0.00  0.00    -0.017 C 
BRANCH   6   7
ATOM      7  C   UNL     1      -0.062  -0.024  -0.246  0.00  0.00    -0.018 A 
ATOM      8  C   UNL     1       0.770   0.082   0.852  0.00  0.00    +0.005 A 
ATOM      9  C   UNL     1       2.098   0.427   0.683  0.00  0.00    +0.000 A 
ATOM     10  C   UNL     1       2.597   0.667  -0.584  0.00  0.00    +0.004 A 
ATOM     11  C   UNL     1       1.770   0.562  -1.685  0.00  0.00    +0.046 A 
ATOM     12  C   UNL     1       0.438   0.211  -1.519  0.00  0.00    +0.122 A 
BRANCH  12  13
ATOM     13  O   UNL     1      -0.377   0.102  -2.601  0.00  0.00    -0.495 OA
ATOM     14  C   UNL     1       0.206   0.357  -3.880  0.00  0.00    +0.277 C 
ENDBRANCH  12  13
ENDBRANCH   6   7
BRANCH   6  16
ATOM     15  C   UNL     1      -1.832   1.435   1.449  0.00  0.00    -0.096 C 
ATOM     16  N   UNL     1      -1.946  -0.020   1.288  0.00  0.00    +0.382 N 
ATOM     17  C   UNL     1      -3.345  -0.426   1.483  0.00  0.00    -0.096 C 
ATOM     18  H   UNL     1      -1.364  -0.481   1.972  0.00  0.00    -0.082 HD
ENDBRANCH   6  16
ENDBRANCH   5   6
ENDBRANCH   1   5
BRANCH   2  19
ATOM     19  C   UNL     1      -0.325  -4.672   2.039  0.00  0.00    +0.106 C 
BRANCH  19  20
ATOM     20  C   UNL     1      -0.592  -6.175   1.931  0.00  0.00    +0.079 C 
BRANCH  20  21
ATOM     21  S   UNL     1       0.284  -7.042   3.262  0.00  0.00    -0.153 S 
BRANCH  21  22
ATOM     22  C   UNL     1      -0.130  -8.787   2.995  0.00  0.00    +0.143 C 
BRANCH  22  23
ATOM     23  C   UNL     1       0.544  -9.630   4.047  0.00  0.00    +0.121 A 
ATOM     24  N   UNL     1       0.372 -10.977   4.032  0.00  0.00    -0.310 N 
ATOM     25  H   UNL     1      -0.181 -11.378   3.344  0.00  0.00    +0.170 HD
ATOM     26  C   UNL     1       0.956 -11.767   4.954  0.00  0.00    +0.260 A 
ATOM     27  O   UNL     1       0.793 -12.975   4.928  0.00  0.00    -0.267 OA
ATOM     28  C   UNL     1       1.771 -11.162   5.965  0.00  0.00    +0.075 A 
ATOM     29  C   UNL     1       2.498 -11.822   7.059  0.00  0.00    -0.023 A 
ATOM     30  C   UNL     1       3.200 -11.029   7.887  0.00  0.00    -0.004 A 
ATOM     31  S   UNL     1       2.945  -9.380   7.271  0.00  0.00    -0.073 S 
ATOM     32  C   UNL     1       1.889  -9.767   5.899  0.00  0.00    +0.116 A 
ATOM     33  N   UNL     1       1.286  -9.051   4.953  0.00  0.00    -0.226 NA
ATOM     34  C   UNL     1       3.896 -11.811   8.969  0.00  0.00    +0.043 C 
ATOM     35  C   UNL     1       3.188 -13.184   8.970  0.00  0.00    +0.010 C 
ATOM     36  C   UNL     1       2.670 -13.271   7.521  0.00  0.00    +0.037 C 
ENDBRANCH  22  23
ENDBRANCH  21  22
ENDBRANCH  20  21
ENDBRANCH  19  20
ENDBRANCH   2  19
TORSDOF 10
