REMARK  Name = ZINC11814784
REMARK  15 active torsions:
REMARK  status: ('A' for Active; 'I' for Inactive)
REMARK    1  A    between atoms: C_1  and  C_2
REMARK    2  A    between atoms: C_7  and  C_8
REMARK    3  A    between atoms: C_8  and  C_9
REMARK    4  A    between atoms: C_9  and  C_21
REMARK    5  A    between atoms: N_12  and  C_16
REMARK    6  A    between atoms: C_16  and  C_17
REMARK    7  A    between atoms: C_17  and  C_18
REMARK    8  A    between atoms: C_18  and  N_73
REMARK    9  A    between atoms: C_19  and  N_73
REMARK   10  A    between atoms: C_20  and  N_73
REMARK   11  A    between atoms: C_27  and  C_29
REMARK   12  A    between atoms: C_29  and  C_30
REMARK   13  A    between atoms: C_30  and  C_31
REMARK   14  A    between atoms: C_31  and  O_33
REMARK   15  A    between atoms: O_33  and  C_34
REMARK                            x       y       z     vdW  Elec       q    Type
REMARK                         _______ _______ _______ _____ _____    ______ ____
ROOT
ATOM      1  C   UNL     1      -4.915   3.461   2.038  0.00  0.00    +0.119 C 
ATOM      2  C   UNL     1      -6.365   3.203   1.679  0.00  0.00    +0.247 C 
ATOM      3  O   UNL     1      -6.951   3.579   0.686  0.00  0.00    -0.273 OA
ATOM      4  N   UNL     1      -6.866   2.470   2.692  0.00  0.00    -0.224 N 
ATOM      5  C   UNL     1      -5.944   2.232   3.632  0.00  0.00    +0.309 C 
ATOM      6  O   UNL     1      -6.160   1.591   4.642  0.00  0.00    -0.252 OA
ATOM      7  N   UNL     1      -4.752   2.779   3.333  0.00  0.00    -0.284 N 
ATOM      8  H   UNL     1      -3.944   2.733   3.867  0.00  0.00    +0.151 HD
ENDROOT
BRANCH   1   9
ATOM      9  C   UNL     1      -3.984   2.850   0.988  0.00  0.00    +0.025 C 
ATOM     10  C   UNL     1      -4.304   1.363   0.826  0.00  0.00    +0.025 C 
ATOM     11  C   UNL     1      -3.393   0.763  -0.250  0.00  0.00    +0.108 C 
ATOM     12  N   UNL     1      -1.995   1.044   0.103  0.00  0.00    -0.301 N 
ATOM     13  C   UNL     1      -1.601   2.433   0.375  0.00  0.00    +0.108 C 
ATOM     14  C   UNL     1      -2.530   3.015   1.439  0.00  0.00    +0.025 C 
ATOM     15  C   UNL     1      -1.093   0.046   0.182  0.00  0.00    +0.216 C 
ATOM     16  O   UNL     1      -1.432  -1.097  -0.040  0.00  0.00    -0.276 OA
BRANCH  15  17
ATOM     17  C   UNL     1       0.339   0.351   0.539  0.00  0.00    +0.107 C 
BRANCH  17  18
ATOM     18  C   UNL     1       1.149  -0.947   0.553  0.00  0.00    +0.130 C 
BRANCH  18  19
ATOM     19  C   UNL     1       2.581  -0.642   0.911  0.00  0.00    +0.307 C 
ATOM     20  O   UNL     1       2.918   0.497   1.132  0.00  0.00    -0.251 OA
BRANCH  19  21
ATOM     21  O   UNL     1       3.480  -1.635   0.983  0.00  0.00    -0.468 OA
ATOM     22  C   UNL     1       4.841  -1.268   1.333  0.00  0.00    +0.280 C 
ENDBRANCH  19  21
ENDBRANCH  18  19
ENDBRANCH  17  18
ENDBRANCH  15  17
ENDBRANCH   1   9
BRANCH   1  23
ATOM     23  C   UNL     1      -4.651   4.961   2.182  0.00  0.00    +0.071 C 
BRANCH  23  30
ATOM     24  C   UNL     1      -7.185   6.239   1.644  0.00  0.00    +0.044 C 
ATOM     25  C   UNL     1      -6.687   6.120   3.061  0.00  0.00    -0.047 A 
ATOM     26  C   UNL     1      -7.444   6.620   4.105  0.00  0.00    +0.003 A 
ATOM     27  C   UNL     1      -6.985   6.515   5.404  0.00  0.00    +0.000 A 
ATOM     28  C   UNL     1      -5.770   5.908   5.661  0.00  0.00    +0.000 A 
ATOM     29  C   UNL     1      -5.014   5.405   4.618  0.00  0.00    +0.004 A 
ATOM     30  C   UNL     1      -5.474   5.509   3.318  0.00  0.00    -0.042 A 
ENDBRANCH  23  30
ENDBRANCH   1  23
BRANCH   4  31
ATOM     31  C   UNL     1      -8.250   1.995   2.757  0.00  0.00    +0.116 C 
BRANCH  31  32
ATOM     32  C   UNL     1      -9.116   3.039   3.465  0.00  0.00    +0.001 C 
BRANCH  32  33
ATOM     33  C   UNL     1     -10.561   2.542   3.533  0.00  0.00    -0.078 C 
BRANCH  33  36
ATOM     34  C   UNL     1     -11.484   4.778   3.419  0.00  0.00    -0.097 C 
ATOM     35  C   UNL     1     -12.728   3.010   4.508  0.00  0.00    -0.097 C 
ATOM     36  N   UNL     1     -11.380   3.552   4.237  0.00  0.00    +0.376 N 
ATOM     37  H   UNL     1     -10.928   3.784   5.130  0.00  0.00    -0.083 HD
ENDBRANCH  33  36
ENDBRANCH  32  33
ENDBRANCH  31  32
ENDBRANCH   4  31
TORSDOF 11
