REMARK  Name = ZINC39963480
REMARK  8 active torsions:
REMARK  status: ('A' for Active; 'I' for Inactive)
REMARK    1  A    between atoms: C_4  and  C_7
REMARK    2  A    between atoms: C_9  and  C_39
REMARK    3  A    between atoms: C_11  and  N_22
REMARK    4  A    between atoms: C_14  and  C_16
REMARK    5  A    between atoms: C_23  and  C_25
REMARK    6  A    between atoms: C_25  and  S_26
REMARK    7  A    between atoms: S_26  and  C_27
REMARK    8  A    between atoms: C_30  and  C_33
REMARK                            x       y       z     vdW  Elec       q    Type
REMARK                         _______ _______ _______ _____ _____    ______ ____
ROOT
ATOM      1  C   UNL     1       3.919  -0.446   0.166  0.00  0.00    +0.073 C 
ATOM      2  C   UNL     1       3.842  -1.221  -1.173  0.00  0.00    +0.149 C 
ATOM      3  C   UNL     1       4.306  -2.639  -0.754  0.00  0.00    +0.224 C 
ATOM      4  O   UNL     1       3.735  -2.806   0.561  0.00  0.00    -0.349 OA
ATOM      5  C   UNL     1       3.877  -1.546   1.245  0.00  0.00    +0.159 C 
ENDROOT
BRANCH   1   9
ATOM      6  C   UNL     1       0.570   2.174   0.573  0.00  0.00    +0.000 A 
ATOM      7  C   UNL     1       0.369   0.816   0.414  0.00  0.00    +0.000 A 
ATOM      8  C   UNL     1       1.453  -0.032   0.282  0.00  0.00    +0.004 A 
ATOM      9  C   UNL     1       2.737   0.478   0.308  0.00  0.00    -0.040 A 
ATOM     10  C   UNL     1       2.938   1.837   0.467  0.00  0.00    +0.004 A 
ATOM     11  C   UNL     1       1.854   2.684   0.600  0.00  0.00    +0.000 A 
ENDBRANCH   1   9
BRANCH   5  12
ATOM     12  C   UNL     1       2.701  -1.321   2.159  0.00  0.00    -0.018 A 
ATOM     13  C   UNL     1       1.585  -2.132   2.062  0.00  0.00    +0.006 A 
ATOM     14  C   UNL     1       0.506  -1.926   2.902  0.00  0.00    +0.000 A 
ATOM     15  C   UNL     1       0.543  -0.910   3.838  0.00  0.00    +0.000 A 
ATOM     16  C   UNL     1       1.659  -0.100   3.936  0.00  0.00    +0.000 A 
ATOM     17  C   UNL     1       2.740  -0.309   3.099  0.00  0.00    +0.006 A 
ENDBRANCH   5  12
BRANCH   3  18
ATOM     18  N   UNL     1       3.781  -3.647  -1.679  0.00  0.00    -0.288 N 
ATOM     19  C   UNL     1       4.521  -4.732  -1.983  0.00  0.00    +0.225 C 
ATOM     20  O   UNL     1       5.620  -4.874  -1.491  0.00  0.00    -0.275 OA
ATOM     21  H   UNL     1       2.902  -3.534  -2.073  0.00  0.00    +0.151 HD
BRANCH  19  22
ATOM     22  C   UNL     1       3.982  -5.769  -2.934  0.00  0.00    +0.173 C 
BRANCH  22  23
ATOM     23  S   UNL     1       5.202  -7.096  -3.138  0.00  0.00    -0.077 S 
BRANCH  23  24
ATOM     24  C   UNL     1       4.434  -8.213  -4.263  0.00  0.00    +0.185 A 
ATOM     25  H   UNL     1       5.837  -9.733  -4.505  0.00  0.00    +0.191 HD
ATOM     26  N   UNL     1       3.244  -8.069  -4.802  0.00  0.00    -0.201 NA
ATOM     27  C   UNL     1       2.985  -9.110  -5.608  0.00  0.00    +0.182 A 
ATOM     28  N   UNL     1       4.012  -9.929  -5.588  0.00  0.00    -0.152 NA
ATOM     29  N   UNL     1       4.967  -9.366  -4.726  0.00  0.00    -0.253 N 
BRANCH  27  30
ATOM     30  C   UNL     1       1.741  -9.305  -6.393  0.00  0.00    +0.024 A 
ATOM     31  C   UNL     1       0.707  -8.365  -6.345  0.00  0.00    +0.031 A 
ATOM     32  C   UNL     1      -0.432  -8.585  -7.091  0.00  0.00    +0.111 A 
ATOM     33  N   UNL     1      -0.553  -9.664  -7.841  0.00  0.00    -0.263 NA
ATOM     34  C   UNL     1       0.399 -10.575  -7.914  0.00  0.00    +0.111 A 
ATOM     35  C   UNL     1       1.573 -10.430  -7.205  0.00  0.00    +0.031 A 
ENDBRANCH  27  30
ENDBRANCH  23  24
ENDBRANCH  22  23
ENDBRANCH  19  22
ENDBRANCH   3  18
BRANCH   2  36
ATOM     36  C   UNL     1       2.462  -1.248  -1.685  0.00  0.00    +0.071 C 
ATOM     37  N   UNL     1       1.397  -1.270  -2.080  0.00  0.00    -0.196 NA
ENDBRANCH   2  36
TORSDOF 8
