REMARK  Name = ZINC01900623
REMARK  8 active torsions:
REMARK  status: ('A' for Active; 'I' for Inactive)
REMARK    1  A    between atoms: C_1  and  C_2
REMARK    2  A    between atoms: C_6  and  C_33
REMARK    3  A    between atoms: C_10  and  C_32
REMARK    4  A    between atoms: C_15  and  C_16
REMARK    5  A    between atoms: C_16  and  C_17
REMARK    6  A    between atoms: C_17  and  C_18
REMARK    7  A    between atoms: C_23  and  O_31
REMARK    8  A    between atoms: C_36  and  C_39
REMARK                            x       y       z     vdW  Elec       q    Type
REMARK                         _______ _______ _______ _____ _____    ______ ____
ROOT
ATOM      1  C   UNL     1       0.011   1.492   0.248  0.00  0.00    +0.045 C 
ATOM      2  C   UNL     1       0.016  -0.009   0.114  0.00  0.00    -0.030 A 
ATOM      3  C   UNL     1      -1.228  -0.779   0.221  0.00  0.00    +0.022 A 
ATOM      4  C   UNL     1      -2.446  -0.139   0.449  0.00  0.00    +0.024 A 
ATOM      5  C   UNL     1      -3.603  -0.896   0.544  0.00  0.00    +0.029 A 
ATOM      6  C   UNL     1      -5.025  -0.571   0.772  0.00  0.00    +0.028 A 
ATOM      7  C   UNL     1      -5.681  -1.754   0.759  0.00  0.00    +0.204 A 
ATOM      8  O   UNL     1      -4.815  -2.759   0.548  0.00  0.00    -0.462 OA
ATOM      9  C   UNL     1      -3.554  -2.297   0.412  0.00  0.00    +0.142 A 
ATOM     10  C   UNL     1      -2.339  -2.928   0.186  0.00  0.00    +0.035 A 
ATOM     11  C   UNL     1      -1.177  -2.182   0.089  0.00  0.00    +0.146 A 
ATOM     12  O   UNL     1       0.009  -2.791  -0.133  0.00  0.00    -0.422 OA
ATOM     13  C   UNL     1       1.150  -2.091  -0.231  0.00  0.00    +0.341 A 
ATOM     14  O   UNL     1       2.194  -2.684  -0.432  0.00  0.00    -0.245 OA
ATOM     15  C   UNL     1       1.171  -0.685  -0.114  0.00  0.00    +0.041 A 
ATOM     16  C   UNL     1      -2.284  -4.427   0.045  0.00  0.00    +0.051 C 
ENDROOT
BRANCH   6  17
ATOM     17  C   UNL     1      -5.612   0.774   0.975  0.00  0.00    -0.014 A 
ATOM     18  C   UNL     1      -5.053   1.646   1.910  0.00  0.00    +0.009 A 
ATOM     19  C   UNL     1      -5.599   2.896   2.098  0.00  0.00    +0.009 A 
ATOM     20  C   UNL     1      -6.712   3.290   1.355  0.00  0.00    -0.018 A 
ATOM     21  C   UNL     1      -7.271   2.418   0.421  0.00  0.00    +0.009 A 
ATOM     22  C   UNL     1      -6.722   1.170   0.228  0.00  0.00    +0.009 A 
BRANCH  20  23
ATOM     23  C   UNL     1      -7.300   4.636   1.558  0.00  0.00    -0.018 A 
ATOM     24  C   UNL     1      -6.739   5.512   2.486  0.00  0.00    +0.008 A 
ATOM     25  C   UNL     1      -7.291   6.763   2.671  0.00  0.00    +0.001 A 
ATOM     26  C   UNL     1      -8.398   7.149   1.937  0.00  0.00    +0.000 A 
ATOM     27  C   UNL     1      -8.958   6.285   1.014  0.00  0.00    +0.001 A 
ATOM     28  C   UNL     1      -8.412   5.033   0.816  0.00  0.00    +0.008 A 
ENDBRANCH  20  23
ENDBRANCH   6  17
BRANCH  15  29
ATOM     29  C   UNL     1       2.472   0.065  -0.238  0.00  0.00    +0.052 C 
BRANCH  29  30
ATOM     30  C   UNL     1       3.174   0.095   1.122  0.00  0.00    +0.101 C 
BRANCH  30  31
ATOM     31  C   UNL     1       4.476   0.844   0.998  0.00  0.00    +0.216 C 
ATOM     32  O   UNL     1       4.809   1.308  -0.071  0.00  0.00    -0.276 OA
ATOM     33  N   UNL     1       5.269   0.999   2.077  0.00  0.00    -0.301 N 
ATOM     34  C   UNL     1       4.882   0.437   3.378  0.00  0.00    +0.110 C 
ATOM     35  C   UNL     1       6.027  -0.438   3.897  0.00  0.00    +0.054 C 
ATOM     36  C   UNL     1       7.319   0.383   3.930  0.00  0.00    +0.072 C 
ATOM     37  C   UNL     1       8.457  -0.490   4.467  0.00  0.00    +0.035 C 
ATOM     38  C   UNL     1       8.629  -1.712   3.563  0.00  0.00    +0.003 C 
ATOM     39  C   UNL     1       8.966  -1.255   2.143  0.00  0.00    +0.001 C 
ATOM     40  C   UNL     1       7.834  -0.376   1.606  0.00  0.00    +0.008 C 
ATOM     41  C   UNL     1       7.666   0.845   2.512  0.00  0.00    +0.038 C 
ATOM     42  C   UNL     1       6.541   1.726   1.973  0.00  0.00    +0.114 C 
BRANCH  36  43
ATOM     43  O   UNL     1       7.141   1.521   4.774  0.00  0.00    -0.388 OA
ATOM     44  H   UNL     1       6.921   1.301   5.690  0.00  0.00    +0.210 HD
ENDBRANCH  36  43
ENDBRANCH  30  31
ENDBRANCH  29  30
ENDBRANCH  15  29
TORSDOF 6
