REMARK  Name = ZINC37625401
REMARK  7 active torsions:
REMARK  status: ('A' for Active; 'I' for Inactive)
REMARK    1  A    between atoms: C_1  and  C_2
REMARK    2  A    between atoms: N_4  and  C_5
REMARK    3  A    between atoms: N_13  and  S_26
REMARK    4  A    between atoms: C_20  and  C_22
REMARK    5  A    between atoms: C_22  and  O_24
REMARK    6  A    between atoms: O_24  and  C_25
REMARK    7  A    between atoms: S_26  and  C_29
REMARK                            x       y       z     vdW  Elec       q    Type
REMARK                         _______ _______ _______ _____ _____    ______ ____
ROOT
ATOM      1  C   UNL     1      -1.221  -2.080   0.064  0.00  0.00    +0.019 C 
ATOM      2  C   UNL     1      -0.161  -2.897   0.139  0.00  0.00    +0.005 C 
ATOM      3  C   UNL     1       1.275  -2.760   0.187  0.00  0.00    +0.004 A 
ATOM      4  C   UNL     1       2.086  -1.620   0.168  0.00  0.00    +0.010 A 
ATOM      5  C   UNL     1       3.457  -1.814   0.227  0.00  0.00    +0.001 A 
ATOM      6  C   UNL     1       4.009  -3.078   0.302  0.00  0.00    +0.002 A 
ATOM      7  C   UNL     1       3.225  -4.221   0.322  0.00  0.00    +0.025 A 
ATOM      8  C   UNL     1       1.843  -4.056   0.263  0.00  0.00    +0.060 A 
ATOM      9  N   UNL     1       0.857  -5.035   0.268  0.00  0.00    -0.191 N 
ATOM     10  C   UNL     1      -0.444  -4.402   0.191  0.00  0.00    +0.097 C 
ATOM     11  C   UNL     1      -1.227  -4.754  -1.073  0.00  0.00    +0.034 C 
ATOM     12  C   UNL     1      -2.459  -3.844  -1.159  0.00  0.00    +0.012 C 
ATOM     13  C   UNL     1      -2.516  -2.900   0.055  0.00  0.00    +0.035 C 
ATOM     14  C   UNL     1      -2.549  -3.741   1.337  0.00  0.00    +0.026 C 
ATOM     15  C   UNL     1      -1.323  -4.650   1.415  0.00  0.00    +0.128 C 
ENDROOT
BRANCH   1  19
ATOM     16  C   UNL     1      -1.758   1.475  -1.017  0.00  0.00    +0.109 C 
ATOM     17  C   UNL     1      -1.730  -0.032  -1.015  0.00  0.00    +0.214 C 
ATOM     18  O   UNL     1      -2.223  -0.649  -1.935  0.00  0.00    -0.276 OA
ATOM     19  N   UNL     1      -1.156  -0.694   0.009  0.00  0.00    -0.289 N 
ATOM     20  H   UNL     1      -0.697  -0.202   0.708  0.00  0.00    +0.155 HD
ENDBRANCH   1  19
BRANCH   9  21
ATOM     21  S   UNL     1       1.127  -6.667   0.347  0.00  0.00    +0.075 S 
ATOM     22  O   UNL     1      -0.014  -7.295  -0.222  0.00  0.00    -0.150 OA
ATOM     23  O   UNL     1       2.442  -6.885  -0.145  0.00  0.00    -0.150 OA
BRANCH  21  24
ATOM     24  C   UNL     1       1.148  -7.109   2.052  0.00  0.00    +0.109 A 
ATOM     25  C   UNL     1       2.335  -7.080   2.759  0.00  0.00    +0.029 A 
ATOM     26  C   UNL     1       2.351  -7.427   4.097  0.00  0.00    +0.002 A 
ATOM     27  C   UNL     1       1.180  -7.803   4.728  0.00  0.00    +0.000 A 
ATOM     28  C   UNL     1      -0.007  -7.830   4.021  0.00  0.00    +0.002 A 
ATOM     29  C   UNL     1      -0.025  -7.479   2.685  0.00  0.00    +0.029 A 
ENDBRANCH  21  24
ENDBRANCH   9  21
BRANCH  15  30
ATOM     30  C   UNL     1      -0.546  -4.333   2.667  0.00  0.00    +0.312 C 
ATOM     31  O   UNL     1       0.596  -3.947   2.588  0.00  0.00    -0.250 OA
BRANCH  30  32
ATOM     32  O   UNL     1      -1.123  -4.479   3.870  0.00  0.00    -0.468 OA
ATOM     33  C   UNL     1      -0.328  -4.161   5.014  0.00  0.00    +0.280 C 
ENDBRANCH  30  32
ENDBRANCH  15  30
TORSDOF 5
