REMARK  Name = ZINC37984219
REMARK  5 active torsions:
REMARK  status: ('A' for Active; 'I' for Inactive)
REMARK    1  A    between atoms: C_1  and  C_2
REMARK    2  A    between atoms: C_8  and  N_10
REMARK    3  A    between atoms: N_10  and  C_11
REMARK    4  A    between atoms: C_12  and  C_14
REMARK    5  A    between atoms: C_16  and  N_21
REMARK                            x       y       z     vdW  Elec       q    Type
REMARK                         _______ _______ _______ _____ _____    ______ ____
ROOT
ATOM      1  N   UNL     1       1.919   0.348   1.096  0.00  0.00    -0.297 N 
ATOM      2  C   UNL     1       2.605   0.376  -0.198  0.00  0.00    +0.132 C 
ATOM      3  C   UNL     1       2.485   0.932   2.171  0.00  0.00    +0.248 C 
ATOM      4  O   UNL     1       1.964   0.827   3.264  0.00  0.00    -0.270 OA
ENDROOT
BRANCH   1  11
ATOM      5  C   UNL     1      -0.528   1.835   0.659  0.00  0.00    +0.009 C 
ATOM      6  C   UNL     1      -0.388   0.358   0.284  0.00  0.00    +0.006 C 
ATOM      7  C   UNL     1      -1.746  -0.333   0.415  0.00  0.00    +0.005 C 
ATOM      8  C   UNL     1      -1.606  -1.810   0.040  0.00  0.00    +0.000 C 
ATOM      9  C   UNL     1      -0.600  -2.481   0.977  0.00  0.00    +0.002 C 
ATOM     10  C   UNL     1       0.759  -1.790   0.846  0.00  0.00    +0.023 C 
ATOM     11  C   UNL     1       0.618  -0.313   1.221  0.00  0.00    +0.079 C 
ENDBRANCH   1  11
BRANCH   3  12
ATOM     12  C   UNL     1       3.740   1.698   2.021  0.00  0.00    +0.057 A 
ATOM     13  C   UNL     1       3.894   2.589   0.957  0.00  0.00    +0.047 A 
ATOM     14  C   UNL     1       5.067   3.302   0.823  0.00  0.00    +0.127 A 
ATOM     15  C   UNL     1       6.091   3.136   1.740  0.00  0.00    +0.034 A 
ATOM     16  C   UNL     1       5.946   2.256   2.796  0.00  0.00    +0.023 A 
ATOM     17  C   UNL     1       4.774   1.540   2.946  0.00  0.00    +0.053 A 
ATOM     18 CL   UNL     1       4.590   0.440   4.277  0.00  0.00    -0.083 Cl
BRANCH  14  19
ATOM     19  N   UNL     1       5.232   4.246  -0.305  0.00  0.00    +0.056 N 
ATOM     20  O   UNL     1       4.339   4.391  -1.107  0.00  0.00    -0.126 OA
ATOM     21  O   UNL     1       6.260   4.872  -0.424  0.00  0.00    -0.126 OA
ENDBRANCH  14  19
ENDBRANCH   3  12
TORSDOF 3
