REMARK  Name = ZINC20943112
REMARK  9 active torsions:
REMARK  status: ('A' for Active; 'I' for Inactive)
REMARK    1  A    between atoms: C_1  and  C_2
REMARK    2  A    between atoms: C_2  and  N_3
REMARK    3  A    between atoms: N_3  and  C_4
REMARK    4  A    between atoms: N_3  and  C_6
REMARK    5  A    between atoms: C_4  and  C_5
REMARK    6  A    between atoms: C_9  and  N_13
REMARK    7  A    between atoms: C_10  and  C_12
REMARK    8  A    between atoms: N_13  and  S_14
REMARK    9  A    between atoms: S_14  and  C_17
REMARK                            x       y       z     vdW  Elec       q    Type
REMARK                         _______ _______ _______ _____ _____    ______ ____
ROOT
ATOM      1  S   UNL     1       1.410   1.808  -0.105  0.00  0.00    +0.072 S 
ATOM      2  O   UNL     1       2.458   0.861   0.049  0.00  0.00    -0.150 OA
ATOM      3  O   UNL     1       1.299   2.641  -1.251  0.00  0.00    -0.150 OA
ENDROOT
BRANCH   1   4
ATOM      4  C   UNL     1       1.492   2.881   1.290  0.00  0.00    +0.109 A 
ATOM      5  C   UNL     1       2.080   2.452   2.467  0.00  0.00    +0.030 A 
ATOM      6  C   UNL     1       2.132   3.299   3.546  0.00  0.00    +0.025 A 
ATOM      7  C   UNL     1       1.599   4.598   3.486  0.00  0.00    +0.037 A 
ATOM      8  C   UNL     1       1.021   5.023   2.309  0.00  0.00    -0.024 A 
ATOM      9  C   UNL     1       0.976   4.154   1.218  0.00  0.00    +0.034 A 
ATOM     10  C   UNL     1       0.431   6.376   2.081  0.00  0.00    +0.037 C 
ATOM     11  C   UNL     1       1.126   7.513   2.762  0.00  0.00    +0.014 C 
ATOM     12  C   UNL     1       0.807   7.617   4.234  0.00  0.00    +0.096 C 
ATOM     13  C   UNL     1       1.476   6.548   5.023  0.00  0.00    +0.217 C 
ATOM     14  O   UNL     1       1.861   6.856   6.131  0.00  0.00    -0.275 OA
ATOM     15  N   UNL     1       1.694   5.318   4.655  0.00  0.00    -0.285 N 
ATOM     16  H   UNL     1       2.031   4.825   5.579  0.00  0.00    +0.155 HD
ENDBRANCH   1   4
BRANCH   1  17
ATOM     17  N   UNL     1      -0.011   0.966   0.007  0.00  0.00    -0.216 N 
ATOM     18  H   UNL     1       0.004  -0.132   0.079  0.00  0.00    +0.174 HD
BRANCH  17  22
ATOM     19  C   UNL     1      -3.648   3.004   0.019  0.00  0.00    +0.030 A 
ATOM     20  C   UNL     1      -2.594   3.470  -0.755  0.00  0.00    +0.025 A 
ATOM     21  C   UNL     1      -1.389   2.795  -0.759  0.00  0.00    +0.026 A 
ATOM     22  C   UNL     1      -1.232   1.651   0.012  0.00  0.00    +0.051 A 
ATOM     23  C   UNL     1      -2.288   1.182   0.782  0.00  0.00    -0.026 A 
ATOM     24  C   UNL     1      -3.491   1.860   0.789  0.00  0.00    +0.028 A 
ATOM     25  C   UNL     1      -2.120  -0.064   1.613  0.00  0.00    +0.046 C 
BRANCH  19  26
ATOM     26  N   UNL     1      -4.870   3.688   0.022  0.00  0.00    -0.330 N 
BRANCH  26  28
ATOM     27  C   UNL     1      -5.548   4.508  -2.180  0.00  0.00    +0.024 C 
ATOM     28  C   UNL     1      -5.036   4.895  -0.791  0.00  0.00    +0.102 C 
ENDBRANCH  26  28
BRANCH  26  29
ATOM     29  C   UNL     1      -5.982   3.196   0.839  0.00  0.00    +0.102 C 
ATOM     30  C   UNL     1      -5.915   3.833   2.228  0.00  0.00    +0.024 C 
ENDBRANCH  26  29
ENDBRANCH  19  26
ENDBRANCH  17  22
ENDBRANCH   1  17
TORSDOF 6
