REMARK  Name = ZINC59892452
REMARK  14 active torsions:
REMARK  status: ('A' for Active; 'I' for Inactive)
REMARK    1  A    between atoms: C_1  and  C_2
REMARK    2  A    between atoms: C_7  and  N_8
REMARK    3  A    between atoms: N_8  and  S_9
REMARK    4  A    between atoms: S_9  and  C_12
REMARK    5  A    between atoms: C_15  and  N_18
REMARK    6  A    between atoms: C_19  and  C_21
REMARK    7  A    between atoms: C_21  and  S_22
REMARK    8  A    between atoms: S_22  and  C_23
REMARK    9  A    between atoms: N_28  and  N_29
REMARK   10  A    between atoms: C_30  and  C_31
REMARK   11  A    between atoms: C_30  and  C_32
REMARK   12  A    between atoms: C_32  and  C_33
REMARK   13  A    between atoms: C_33  and  C_34
REMARK   14  A    between atoms: C_33  and  C_35
REMARK                            x       y       z     vdW  Elec       q    Type
REMARK                         _______ _______ _______ _____ _____    ______ ____
ROOT
ATOM      1  N   UNL     1       6.306  -0.858   2.961  0.00  0.00    -0.285 N 
ATOM      2  C   UNL     1       7.161   0.160   3.187  0.00  0.00    +0.227 C 
ATOM      3  O   UNL     1       6.772   1.167   3.739  0.00  0.00    -0.275 OA
ATOM      4  H   UNL     1       6.602  -1.639   2.466  0.00  0.00    +0.155 HD
ENDROOT
BRANCH   1   8
ATOM      5  C   UNL     1       2.397  -0.650   4.385  0.00  0.00    +0.109 A 
ATOM      6  C   UNL     1       3.030   0.495   3.937  0.00  0.00    +0.030 A 
ATOM      7  C   UNL     1       4.326   0.429   3.464  0.00  0.00    +0.025 A 
ATOM      8  C   UNL     1       4.994  -0.788   3.439  0.00  0.00    +0.034 A 
ATOM      9  C   UNL     1       4.355  -1.936   3.890  0.00  0.00    +0.025 A 
ATOM     10  C   UNL     1       3.061  -1.863   4.366  0.00  0.00    +0.030 A 
BRANCH   5  11
ATOM     11  S   UNL     1       0.743  -0.563   4.987  0.00  0.00    +0.072 S 
ATOM     12  O   UNL     1       0.189  -1.863   4.844  0.00  0.00    -0.150 OA
ATOM     13  O   UNL     1       0.155   0.586   4.392  0.00  0.00    -0.150 OA
BRANCH  11  14
ATOM     14  N   UNL     1       0.830  -0.262   6.613  0.00  0.00    -0.216 N 
ATOM     15  H   UNL     1       0.446  -0.890   7.244  0.00  0.00    +0.174 HD
BRANCH  14  22
ATOM     16  C   UNL     1       2.291  -0.407   9.049  0.00  0.00    +0.046 C 
ATOM     17  C   UNL     1       2.180   0.872   8.261  0.00  0.00    -0.028 A 
ATOM     18  C   UNL     1       2.802   2.019   8.713  0.00  0.00    +0.005 A 
ATOM     19  C   UNL     1       2.700   3.194   7.991  0.00  0.00    +0.000 A 
ATOM     20  C   UNL     1       1.975   3.224   6.813  0.00  0.00    +0.002 A 
ATOM     21  C   UNL     1       1.351   2.081   6.355  0.00  0.00    +0.025 A 
ATOM     22  C   UNL     1       1.456   0.898   7.076  0.00  0.00    +0.051 A 
ENDBRANCH  14  22
ENDBRANCH  11  14
ENDBRANCH   5  11
ENDBRANCH   1   8
BRANCH   2  23
ATOM     23  C   UNL     1       8.600   0.046   2.753  0.00  0.00    +0.173 C 
BRANCH  23  24
ATOM     24  S   UNL     1       9.487   1.565   3.194  0.00  0.00    -0.075 S 
BRANCH  24  25
ATOM     25  C   UNL     1      11.131   1.279   2.629  0.00  0.00    +0.211 A 
ATOM     26  N   UNL     1      12.152   2.134   2.744  0.00  0.00    -0.186 NA
ATOM     27  C   UNL     1      13.236   1.604   2.218  0.00  0.00    +0.232 A 
ATOM     28  N   UNL     1      12.915   0.379   1.750  0.00  0.00    -0.245 N 
ATOM     29  N   UNL     1      11.552   0.190   2.031  0.00  0.00    -0.144 NA
ATOM     30  N   UNL     1      14.484   2.197   2.154  0.00  0.00    -0.205 N 
ATOM     31  H   UNL     1      15.225   1.725   1.745  0.00  0.00    +0.177 HD
ATOM     32  H   UNL     1      13.509  -0.249   1.310  0.00  0.00    +0.192 HD
BRANCH  30  33
ATOM     33  N   UNL     1      14.677   3.481   2.682  0.00  0.00    -0.189 NA
ATOM     34  C   UNL     1      15.831   4.030   2.623  0.00  0.00    +0.034 C 
ATOM     35  C   UNL     1      16.983   3.296   1.987  0.00  0.00    +0.062 C 
BRANCH  34  36
ATOM     36  C   UNL     1      16.039   5.411   3.191  0.00  0.00    +0.055 C 
BRANCH  36  37
ATOM     37  C   UNL     1      15.787   6.454   2.100  0.00  0.00    -0.012 C 
ATOM     38  C   UNL     1      14.314   6.416   1.689  0.00  0.00    +0.007 C 
ATOM     39  C   UNL     1      16.132   7.845   2.635  0.00  0.00    +0.007 C 
ENDBRANCH  36  37
ENDBRANCH  34  36
ENDBRANCH  30  33
ENDBRANCH  24  25
ENDBRANCH  23  24
ENDBRANCH   2  23
TORSDOF 10
