REMARK  Name = ZINC09243219
REMARK  3 active torsions:
REMARK  status: ('A' for Active; 'I' for Inactive)
REMARK    1  A    between atoms: C_1  and  C_2
REMARK    2  A    between atoms: C_13  and  C_14
REMARK    3  A    between atoms: C_19  and  C_20
REMARK                            x       y       z     vdW  Elec       q    Type
REMARK                         _______ _______ _______ _____ _____    ______ ____
ROOT
ATOM      1  C   UNL     1      -0.019   1.526   0.010  0.00  0.00    +0.007 C 
ATOM      2  C   UNL     1       0.002  -0.004   0.002  0.00  0.00    -0.011 C 
ATOM      3  C   UNL     1       0.717  -0.497  -1.258  0.00  0.00    +0.022 C 
ATOM      4  C   UNL     1       0.705  -2.029  -1.280  0.00  0.00    +0.107 C 
ATOM      5  N   UNL     1       1.285  -2.525  -0.025  0.00  0.00    -0.311 N 
ATOM      6  C   UNL     1       0.731  -2.043   1.248  0.00  0.00    +0.107 C 
ATOM      7  C   UNL     1       0.742  -0.511   1.242  0.00  0.00    +0.022 C 
ATOM      8  C   UNL     1       2.323  -3.420  -0.040  0.00  0.00    +0.154 C 
ATOM      9  N   UNL     1       2.938  -3.947  -1.086  0.00  0.00    -0.154 NA
ATOM     10  C   UNL     1       3.929  -4.803  -0.964  0.00  0.00    +0.276 C 
ATOM     11  O   UNL     1       4.489  -5.282  -1.938  0.00  0.00    -0.267 OA
ATOM     12  C   UNL     1       4.329  -5.153   0.416  0.00  0.00    +0.080 C 
ATOM     13  C   UNL     1       5.303  -5.995   0.854  0.00  0.00    +0.032 C 
ATOM     14  S   UNL     1       3.177  -4.152   1.348  0.00  0.00    -0.052 S 
ENDROOT
BRANCH  13  15
ATOM     15  C   UNL     1       5.517  -6.184   2.290  0.00  0.00    +0.021 A 
ATOM     16  C   UNL     1       4.791  -5.570   3.336  0.00  0.00    +0.142 A 
ATOM     17  N   UNL     1       5.274  -5.987   4.473  0.00  0.00    -0.181 NA
ATOM     18  N   UNL     1       6.322  -6.882   4.232  0.00  0.00    -0.276 N 
ATOM     19  H   UNL     1       6.848  -7.336   4.908  0.00  0.00    +0.189 HD
ATOM     20  C   UNL     1       6.473  -7.011   2.887  0.00  0.00    +0.073 A 
BRANCH  20  21
ATOM     21  C   UNL     1       7.459  -7.859   2.190  0.00  0.00    +0.000 A 
ATOM     22  C   UNL     1       7.068  -8.640   1.100  0.00  0.00    +0.010 A 
ATOM     23  C   UNL     1       7.995  -9.430   0.453  0.00  0.00    +0.001 A 
ATOM     24  C   UNL     1       9.311  -9.451   0.883  0.00  0.00    +0.000 A 
ATOM     25  C   UNL     1       9.705  -8.680   1.962  0.00  0.00    +0.001 A 
ATOM     26  C   UNL     1       8.790  -7.881   2.615  0.00  0.00    +0.010 A 
ENDBRANCH  20  21
ENDBRANCH  13  15
TORSDOF 2
