REMARK  Name = ZINC22294715
REMARK  8 active torsions:
REMARK  status: ('A' for Active; 'I' for Inactive)
REMARK    1  A    between atoms: C_1  and  C_2
REMARK    2  A    between atoms: C_5  and  C_33
REMARK    3  A    between atoms: N_8  and  C_10
REMARK    4  A    between atoms: C_10  and  C_11
REMARK    5  A    between atoms: N_16  and  C_17
REMARK    6  A    between atoms: C_17  and  C_19
REMARK    7  A    between atoms: C_19  and  N_20
REMARK    8  A    between atoms: N_29  and  C_32
REMARK                            x       y       z     vdW  Elec       q    Type
REMARK                         _______ _______ _______ _____ _____    ______ ____
ROOT
ATOM      1  C   UNL     1       2.972  -1.498   2.397  0.00  0.00    +0.008 A 
ATOM      2  C   UNL     1       3.589  -0.610   3.184  0.00  0.00    +0.067 A 
ATOM      3  S   UNL     1       5.239  -0.602   2.510  0.00  0.00    -0.061 S 
ATOM      4  C   UNL     1       5.017  -1.727   1.280  0.00  0.00    +0.163 A 
ATOM      5  N   UNL     1       3.711  -2.080   1.415  0.00  0.00    -0.341 N 
ATOM      6  N   UNL     1       5.908  -2.169   0.390  0.00  0.00    -0.155 NA
ATOM      7  H   UNL     1       3.312  -2.733   0.819  0.00  0.00    +0.167 HD
ENDROOT
BRANCH   6   8
ATOM      8  C   UNL     1       7.153  -1.710   0.413  0.00  0.00    +0.256 C 
ATOM      9  O   UNL     1       7.482  -0.886   1.245  0.00  0.00    -0.272 OA
BRANCH   8  10
ATOM     10  C   UNL     1       8.159  -2.209  -0.592  0.00  0.00    +0.215 C 
BRANCH  10  11
ATOM     11  N   UNL     1       9.448  -1.555  -0.358  0.00  0.00    -0.215 N 
ATOM     12  C   UNL     1       9.824  -0.393  -0.931  0.00  0.00    +0.247 C 
ATOM     13  O   UNL     1       9.184   0.283  -1.708  0.00  0.00    -0.273 OA
ATOM     14  C   UNL     1      11.211  -0.112  -0.401  0.00  0.00    +0.115 C 
ATOM     15  C   UNL     1      12.219  -0.071  -1.544  0.00  0.00    +0.035 C 
ATOM     16  C   UNL     1      13.620   0.185  -0.983  0.00  0.00    +0.003 C 
ATOM     17  C   UNL     1      13.630   1.514  -0.224  0.00  0.00    +0.000 C 
ATOM     18  C   UNL     1      12.631   1.449   0.933  0.00  0.00    +0.003 C 
ATOM     19  C   UNL     1      11.226   1.198   0.379  0.00  0.00    +0.035 C 
ATOM     20  N   UNL     1      11.489  -1.245   0.490  0.00  0.00    -0.274 N 
ATOM     21  C   UNL     1      10.398  -2.034   0.455  0.00  0.00    +0.312 C 
ATOM     22  O   UNL     1      10.290  -3.066   1.087  0.00  0.00    -0.252 OA
ATOM     23  C   UNL     1      12.710  -1.470   1.268  0.00  0.00    +0.134 C 
ENDBRANCH  10  11
ENDBRANCH   8  10
ENDBRANCH   6   8
BRANCH   1  24
ATOM     24  C   UNL     1       1.518  -1.843   2.593  0.00  0.00    -0.024 C 
BRANCH  24  30
ATOM     25  C   UNL     1       0.117   2.027  -0.057  0.00  0.00    +0.005 C 
ATOM     26  C   UNL     1       0.066   0.501   0.048  0.00  0.00    -0.031 C 
ATOM     27  C   UNL     1      -1.393   0.042   0.118  0.00  0.00    +0.003 C 
ATOM     28  C   UNL     1      -1.431  -1.478   0.301  0.00  0.00    -0.031 C 
ATOM     29  C   UNL     1      -0.644  -1.855   1.558  0.00  0.00    -0.075 C 
ATOM     30  N   UNL     1       0.749  -1.411   1.419  0.00  0.00    +0.384 N 
ATOM     31  C   UNL     1       0.799   0.052   1.314  0.00  0.00    -0.075 C 
ATOM     32  C   UNL     1      -2.882  -1.939   0.449  0.00  0.00    +0.005 C 
ATOM     33  H   UNL     1       1.149  -1.821   0.588  0.00  0.00    -0.081 HD
ENDBRANCH  24  30
ENDBRANCH   1  24
TORSDOF 5
