REMARK  Name = ZINC60211096
REMARK  9 active torsions:
REMARK  status: ('A' for Active; 'I' for Inactive)
REMARK    1  A    between atoms: C_1  and  C_2
REMARK    2  A    between atoms: C_5  and  C_8
REMARK    3  A    between atoms: C_8  and  C_10
REMARK    4  A    between atoms: C_8  and  N_15
REMARK    5  A    between atoms: C_16  and  C_18
REMARK    6  A    between atoms: C_18  and  N_19
REMARK    7  A    between atoms: N_19  and  C_20
REMARK    8  A    between atoms: C_22  and  C_27
REMARK    9  A    between atoms: C_25  and  C_26
REMARK                            x       y       z     vdW  Elec       q    Type
REMARK                         _______ _______ _______ _____ _____    ______ ____
ROOT
ATOM      1  N   UNL     1       0.959  -4.758   1.029  0.00  0.00    -0.303 N 
ATOM      2  C   UNL     1       1.534  -5.972   0.919  0.00  0.00    +0.231 C 
ATOM      3  O   UNL     1       1.306  -6.665  -0.050  0.00  0.00    -0.274 OA
ATOM      4  H   UNL     1       1.142  -4.204   1.804  0.00  0.00    +0.150 HD
ENDROOT
BRANCH   1   5
ATOM      5  C   UNL     1       0.059  -4.275  -0.021  0.00  0.00    +0.140 C 
BRANCH   5  10
ATOM      6  C   UNL     1      -0.018   1.503   0.010  0.00  0.00    +0.044 C 
ATOM      7  C   UNL     1       0.002  -0.004   0.002  0.00  0.00    -0.050 A 
ATOM      8  C   UNL     1       0.006  -0.689  -1.199  0.00  0.00    +0.004 A 
ATOM      9  C   UNL     1       0.025  -2.071  -1.206  0.00  0.00    +0.006 A 
ATOM     10  C   UNL     1       0.040  -2.768  -0.013  0.00  0.00    -0.022 A 
ATOM     11  C   UNL     1       0.037  -2.084   1.188  0.00  0.00    +0.006 A 
ATOM     12  C   UNL     1       0.023  -0.702   1.195  0.00  0.00    +0.004 A 
ENDBRANCH   5  10
BRANCH   5  13
ATOM     13  C   UNL     1      -1.332  -4.797   0.230  0.00  0.00    +0.014 A 
ATOM     14  C   UNL     1      -2.241  -5.266  -0.659  0.00  0.00    +0.013 A 
ATOM     15  C   UNL     1      -3.470  -5.698  -0.196  0.00  0.00    +0.008 A 
ATOM     16  C   UNL     1      -3.729  -5.641   1.133  0.00  0.00    +0.045 A 
ATOM     17  S   UNL     1      -2.207  -4.965   1.777  0.00  0.00    -0.099 S 
ENDBRANCH   5  13
ENDBRANCH   1   5
BRANCH   2  18
ATOM     18  C   UNL     1       2.460  -6.468   1.999  0.00  0.00    +0.197 C 
BRANCH  18  19
ATOM     19  N   UNL     1       2.950  -7.803   1.647  0.00  0.00    -0.335 N 
ATOM     20  H   UNL     1       2.664  -8.222   0.820  0.00  0.00    +0.147 HD
BRANCH  19  21
ATOM     21  C   UNL     1       3.829  -8.473   2.502  0.00  0.00    +0.031 A 
ATOM     22  C   UNL     1       4.233  -7.876   3.687  0.00  0.00    +0.036 A 
ATOM     23  C   UNL     1       5.110  -8.549   4.537  0.00  0.00    +0.038 A 
ATOM     24  C   UNL     1       5.575  -9.818   4.190  0.00  0.00    +0.013 A 
ATOM     25  C   UNL     1       5.168 -10.403   3.009  0.00  0.00    +0.006 A 
ATOM     26  C   UNL     1       4.294  -9.739   2.168  0.00  0.00    -0.030 A 
ATOM     27  C   UNL     1       3.849 -10.388   0.883  0.00  0.00    +0.045 C 
BRANCH  23  28
ATOM     28  C   UNL     1       5.546  -7.919   5.803  0.00  0.00    +0.242 C 
ATOM     29  O   UNL     1       5.140  -6.814   6.103  0.00  0.00    -0.270 OA
ATOM     30  N   UNL     1       6.394  -8.571   6.623  0.00  0.00    -0.325 N 
ATOM     31  H   UNL     1       6.718  -9.454   6.383  0.00  0.00    +0.145 HD
ATOM     32  H   UNL     1       6.679  -8.159   7.452  0.00  0.00    +0.145 HD
ENDBRANCH  23  28
ENDBRANCH  19  21
ENDBRANCH  18  19
ENDBRANCH   2  18
TORSDOF 7
