REMARK  Name = ZINC04867305
REMARK  4 active torsions:
REMARK  status: ('A' for Active; 'I' for Inactive)
REMARK    1  A    between atoms: C_6  and  C_7
REMARK    2  A    between atoms: C_9  and  C_12
REMARK    3  A    between atoms: C_12  and  N_13
REMARK    4  A    between atoms: C_14  and  C_16
REMARK                            x       y       z     vdW  Elec       q    Type
REMARK                         _______ _______ _______ _____ _____    ______ ____
ROOT
ATOM      1  C   UNL     1       0.553   5.570   0.599  0.00  0.00    +0.202 A 
ATOM      2  N   UNL     1       0.805   4.328   1.071  0.00  0.00    -0.190 NA
ATOM      3  C   UNL     1       0.947   3.571   0.012  0.00  0.00    +0.245 A 
ATOM      4  O   UNL     1       0.787   4.356  -1.058  0.00  0.00    -0.336 OA
ATOM      5  N   UNL     1       0.557   5.494  -0.707  0.00  0.00    -0.056 NA
ENDROOT
BRANCH   1  11
ATOM      6  C   UNL     1       0.334   6.718   2.802  0.00  0.00    +0.013 A 
ATOM      7  C   UNL     1       0.117   7.856   3.551  0.00  0.00    +0.021 A 
ATOM      8  C   UNL     1      -0.129   9.065   2.924  0.00  0.00    +0.041 A 
ATOM      9  C   UNL     1      -0.154   9.140   1.541  0.00  0.00    +0.021 A 
ATOM     10  C   UNL     1       0.067   8.009   0.783  0.00  0.00    +0.013 A 
ATOM     11  C   UNL     1       0.315   6.790   1.410  0.00  0.00    +0.023 A 
ATOM     12 CL   UNL     1      -0.407  10.492   3.873  0.00  0.00    -0.084 Cl
ENDBRANCH   1  11
BRANCH   3  13
ATOM     13  C   UNL     1       1.242   2.093   0.001  0.00  0.00    +0.203 C 
BRANCH  13  14
ATOM     14  N   UNL     1      -0.016   1.344   0.009  0.00  0.00    -0.303 N 
ATOM     15  C   UNL     1       0.002  -0.004   0.002  0.00  0.00    +0.244 C 
ATOM     16  O   UNL     1       1.063  -0.598  -0.011  0.00  0.00    -0.270 OA
ATOM     17  H   UNL     1      -0.863   1.817   0.016  0.00  0.00    +0.150 HD
BRANCH  15  18
ATOM     18  C   UNL     1      -1.267  -0.760   0.010  0.00  0.00    +0.037 A 
ATOM     19  C   UNL     1      -2.487  -0.081   0.031  0.00  0.00    +0.016 A 
ATOM     20  C   UNL     1      -3.668  -0.791   0.032  0.00  0.00    +0.039 A 
ATOM     21  C   UNL     1      -3.647  -2.178   0.025  0.00  0.00    +0.123 A 
ATOM     22  C   UNL     1      -2.438  -2.857   0.010  0.00  0.00    +0.039 A 
ATOM     23  C   UNL     1      -1.251  -2.156   0.002  0.00  0.00    +0.016 A 
ATOM     24  F   UNL     1      -4.807  -2.869   0.032  0.00  0.00    -0.205 F 
ENDBRANCH  15  18
ENDBRANCH  13  14
ENDBRANCH   3  13
TORSDOF 4
