REMARK  Name = ZINC36032824
REMARK  9 active torsions:
REMARK  status: ('A' for Active; 'I' for Inactive)
REMARK    1  A    between atoms: C_1  and  C_2
REMARK    2  A    between atoms: C_2  and  C_3
REMARK    3  A    between atoms: C_2  and  C_4
REMARK    4  A    between atoms: C_4  and  C_5
REMARK    5  A    between atoms: N_9  and  C_27
REMARK    6  A    between atoms: N_14  and  S_17
REMARK    7  A    between atoms: S_17  and  C_20
REMARK    8  A    between atoms: C_27  and  C_28
REMARK    9  A    between atoms: C_32  and  C_34
REMARK                            x       y       z     vdW  Elec       q    Type
REMARK                         _______ _______ _______ _____ _____    ______ ____
ROOT
ATOM      1  C   UNL     1      -2.842  -3.750   2.151  0.00  0.00    +0.019 C 
ATOM      2  C   UNL     1      -3.814  -4.355   1.161  0.00  0.00    +0.201 C 
ATOM      3  O   UNL     1      -4.736  -5.093   1.434  0.00  0.00    -0.277 OA
ATOM      4  N   UNL     1      -3.481  -3.933  -0.077  0.00  0.00    -0.309 N 
ATOM      5  C   UNL     1      -2.308  -3.059   0.003  0.00  0.00    +0.006 C 
ATOM      6  N   UNL     1      -2.193  -2.637   1.417  0.00  0.00    +0.401 N 
ATOM      7  C   UNL     1      -1.051  -3.824  -0.408  0.00  0.00    +0.023 C 
ATOM      8  C   UNL     1      -1.194  -4.292  -1.860  0.00  0.00    +0.109 C 
ATOM      9  N   UNL     1      -1.507  -3.129  -2.702  0.00  0.00    -0.177 NA
ATOM     10  C   UNL     1      -2.655  -2.285  -2.345  0.00  0.00    +0.109 C 
ATOM     11  C   UNL     1      -2.500  -1.834  -0.888  0.00  0.00    +0.023 C 
ATOM     12  H   UNL     1      -2.689  -1.772   1.571  0.00  0.00    -0.082 HD
ATOM     13  H   UNL     1      -1.225  -2.549   1.687  0.00  0.00    -0.082 HD
ENDROOT
BRANCH   9  14
ATOM     14  S   UNL     1      -0.582  -2.777  -4.030  0.00  0.00    +0.061 S 
ATOM     15  O   UNL     1      -0.747  -1.388  -4.283  0.00  0.00    -0.153 OA
ATOM     16  O   UNL     1       0.692  -3.364  -3.806  0.00  0.00    -0.153 OA
BRANCH  14  17
ATOM     17  C   UNL     1      -1.294  -3.626  -5.401  0.00  0.00    +0.106 A 
ATOM     18  C   UNL     1      -0.885  -4.911  -5.705  0.00  0.00    +0.031 A 
ATOM     19  C   UNL     1      -1.442  -5.578  -6.779  0.00  0.00    +0.040 A 
ATOM     20  C   UNL     1      -2.411  -4.959  -7.551  0.00  0.00    +0.124 A 
ATOM     21  C   UNL     1      -2.820  -3.672  -7.245  0.00  0.00    +0.040 A 
ATOM     22  C   UNL     1      -2.264  -3.009  -6.167  0.00  0.00    +0.031 A 
ATOM     23  F   UNL     1      -2.956  -5.611  -8.601  0.00  0.00    -0.205 F 
ENDBRANCH  14  17
ENDBRANCH   9  14
BRANCH   1  24
ATOM     24  C   UNL     1      -3.591  -3.217   3.374  0.00  0.00    -0.004 C 
BRANCH  24  26
ATOM     25  C   UNL     1      -3.340  -2.012   5.548  0.00  0.00    +0.007 C 
ATOM     26  C   UNL     1      -2.586  -2.657   4.383  0.00  0.00    -0.018 C 
ATOM     27  C   UNL     1      -1.707  -3.792   4.911  0.00  0.00    +0.007 C 
ENDBRANCH  24  26
ENDBRANCH   1  24
BRANCH   4  28
ATOM     28  C   UNL     1      -4.184  -4.294  -1.310  0.00  0.00    +0.141 C 
BRANCH  28  29
ATOM     29  C   UNL     1      -5.330  -3.341  -1.532  0.00  0.00    -0.030 A 
ATOM     30  C   UNL     1      -6.035  -2.844  -0.452  0.00  0.00    +0.005 A 
ATOM     31  C   UNL     1      -7.086  -1.970  -0.656  0.00  0.00    +0.001 A 
ATOM     32  C   UNL     1      -7.433  -1.592  -1.940  0.00  0.00    +0.012 A 
ATOM     33  C   UNL     1      -6.727  -2.088  -3.020  0.00  0.00    +0.055 A 
ATOM     34  C   UNL     1      -5.673  -2.959  -2.816  0.00  0.00    +0.017 A 
BRANCH  33  35
ATOM     35  C   UNL     1      -7.104  -1.677  -4.420  0.00  0.00    +0.417 C 
ATOM     36  F   UNL     1      -8.189  -0.795  -4.370  0.00  0.00    -0.166 F 
ATOM     37  F   UNL     1      -6.016  -1.043  -5.029  0.00  0.00    -0.166 F 
ATOM     38  F   UNL     1      -7.458  -2.810  -5.159  0.00  0.00    -0.166 F 
ENDBRANCH  33  35
ENDBRANCH  28  29
ENDBRANCH   4  28
TORSDOF 7
