REMARK  Name = ZINC16074791
REMARK  12 active torsions:
REMARK  status: ('A' for Active; 'I' for Inactive)
REMARK    1  A    between atoms: C_1  and  C_2
REMARK    2  A    between atoms: C_2  and  C_3
REMARK    3  A    between atoms: C_2  and  C_4
REMARK    4  A    between atoms: C_4  and  N_57
REMARK    5  A    between atoms: C_5  and  C_6
REMARK    6  A    between atoms: C_5  and  N_57
REMARK    7  A    between atoms: C_6  and  C_7
REMARK    8  A    between atoms: C_6  and  C_8
REMARK    9  A    between atoms: C_9  and  N_10
REMARK   10  A    between atoms: C_9  and  N_57
REMARK   11  A    between atoms: N_22  and  C_25
REMARK   12  A    between atoms: C_25  and  C_26
REMARK                            x       y       z     vdW  Elec       q    Type
REMARK                         _______ _______ _______ _____ _____    ______ ____
ROOT
ATOM      1  N   UNL     1      -0.636   1.466   0.125  0.00  0.00    -0.255 N 
ATOM      2  C   UNL     1      -1.885   1.940   0.309  0.00  0.00    +0.182 A 
ATOM      3  S   UNL     1      -3.321   1.010   0.363  0.00  0.00    -0.011 S 
ATOM      4  N   UNL     1      -1.797   3.280   0.444  0.00  0.00    -0.257 N 
ATOM      5  C   UNL     1      -2.779   4.246   0.655  0.00  0.00    +0.064 A 
ATOM      6  C   UNL     1      -4.115   3.891   0.766  0.00  0.00    +0.027 A 
ATOM      7  C   UNL     1      -5.070   4.867   0.974  0.00  0.00    +0.002 A 
ATOM      8  C   UNL     1      -4.705   6.201   1.072  0.00  0.00    +0.001 A 
ATOM      9  C   UNL     1      -3.381   6.571   0.962  0.00  0.00    +0.015 A 
ATOM     10  C   UNL     1      -2.408   5.595   0.753  0.00  0.00    +0.064 A 
ATOM     11  C   UNL     1      -0.983   5.951   0.631  0.00  0.00    +0.263 A 
ATOM     12  O   UNL     1      -0.626   7.111   0.712  0.00  0.00    -0.267 OA
ATOM     13  N   UNL     1      -0.080   4.971   0.429  0.00  0.00    -0.273 N 
ATOM     14  C   UNL     1      -0.473   3.643   0.334  0.00  0.00    +0.238 A 
ATOM     15  N   UNL     1       0.235   2.563   0.142  0.00  0.00    -0.133 NA
ENDROOT
BRANCH   1  16
ATOM     16  C   UNL     1      -0.261   0.063  -0.064  0.00  0.00    +0.072 C 
BRANCH  16  17
ATOM     17  N   UNL     1      -0.004  -0.544   1.259  0.00  0.00    +0.393 N 
ATOM     18  H   UNL     1      -0.807  -0.359   1.872  0.00  0.00    -0.079 HD
BRANCH  17  19
ATOM     19  C   UNL     1       0.166  -2.006   1.119  0.00  0.00    -0.073 C 
BRANCH  19  21
ATOM     20  C   UNL     1      -1.047  -4.145   0.676  0.00  0.00    +0.005 C 
ATOM     21  C   UNL     1      -1.211  -2.644   0.925  0.00  0.00    -0.034 C 
ATOM     22  C   UNL     1      -2.056  -2.425   2.182  0.00  0.00    +0.005 C 
ENDBRANCH  19  21
ENDBRANCH  17  19
BRANCH  17  23
ATOM     23  C   UNL     1       1.207   0.050   1.862  0.00  0.00    -0.073 C 
BRANCH  23  24
ATOM     24  C   UNL     1       1.234  -0.295   3.352  0.00  0.00    -0.034 C 
ATOM     25  C   UNL     1       2.543   0.204   3.967  0.00  0.00    +0.005 C 
ATOM     26  C   UNL     1       0.052   0.376   4.053  0.00  0.00    +0.005 C 
ENDBRANCH  23  24
ENDBRANCH  17  23
ENDBRANCH  16  17
ENDBRANCH   1  16
BRANCH  13  27
ATOM     27  C   UNL     1       1.339   5.312   0.306  0.00  0.00    +0.155 C 
BRANCH  27  28
ATOM     28  C   UNL     1       1.669   5.576  -1.141  0.00  0.00    -0.013 C 
ATOM     29  C   UNL     1       2.225   6.709  -1.490  0.00  0.00    +0.005 C 
ENDBRANCH  27  28
ENDBRANCH  13  27
TORSDOF 8
