REMARK  Name = ZINC09414905
REMARK  8 active torsions:
REMARK  status: ('A' for Active; 'I' for Inactive)
REMARK    1  A    between atoms: C_1  and  C_2
REMARK    2  A    between atoms: C_2  and  C_4
REMARK    3  A    between atoms: C_7  and  C_10
REMARK    4  A    between atoms: C_13  and  C_15
REMARK    5  A    between atoms: C_15  and  O_17
REMARK    6  A    between atoms: O_17  and  C_18
REMARK    7  A    between atoms: C_18  and  C_19
REMARK    8  A    between atoms: N_21  and  C_22
REMARK                            x       y       z     vdW  Elec       q    Type
REMARK                         _______ _______ _______ _____ _____    ______ ____
ROOT
ATOM      1  C   UNL     1     -10.525   2.778   0.047  0.00  0.00    +0.328 C 
ENDROOT
BRANCH   1   2
ATOM      2  C   UNL     1     -10.888   1.315   0.052  0.00  0.00    +0.255 C 
ATOM      3  O   UNL     1     -10.014   0.474   0.051  0.00  0.00    -0.272 OA
ATOM      4  N   UNL     1     -12.183   0.942   0.058  0.00  0.00    -0.282 N 
ATOM      5  H   UNL     1     -12.880   1.611   0.140  0.00  0.00    +0.155 HD
BRANCH   4   6
ATOM      6  C   UNL     1     -12.522  -0.413  -0.054  0.00  0.00    +0.050 A 
ATOM      7  C   UNL     1     -11.647  -1.297  -0.669  0.00  0.00    +0.052 A 
ATOM      8  C   UNL     1     -11.985  -2.636  -0.778  0.00  0.00    +0.069 A 
ATOM      9  C   UNL     1     -13.204  -3.092  -0.271  0.00  0.00    +0.068 A 
ATOM     10  C   UNL     1     -14.075  -2.204   0.343  0.00  0.00    +0.045 A 
ATOM     11  C   UNL     1     -13.732  -0.870   0.455  0.00  0.00    +0.041 A 
ATOM     12 BR   UNL     1     -14.917   0.339   1.299  0.00  0.00    -0.048 Br
ATOM     13  N   UNL     1     -13.259  -4.462  -0.526  0.00  0.00    -0.306 N 
ATOM     14  H   UNL     1     -13.989  -5.055  -0.287  0.00  0.00    +0.170 HD
ATOM     15  C   UNL     1     -12.127  -4.821  -1.159  0.00  0.00    +0.325 A 
ATOM     16  O   UNL     1     -11.857  -5.950  -1.525  0.00  0.00    -0.247 OA
ATOM     17  N   UNL     1     -11.339  -3.743  -1.326  0.00  0.00    -0.306 N 
ATOM     18  H   UNL     1     -10.468  -3.737  -1.754  0.00  0.00    +0.170 HD
ENDBRANCH   4   6
ENDBRANCH   1   2
BRANCH   1  19
ATOM     19  O   UNL     1      -9.103   2.916   0.042  0.00  0.00    -0.450 OA
BRANCH  19  20
ATOM     20  C   UNL     1      -8.610   4.172   0.037  0.00  0.00    +0.375 C 
ATOM     21  O   UNL     1      -9.368   5.123   0.038  0.00  0.00    -0.241 OA
BRANCH  20  25
ATOM     22  C   UNL     1      -4.999   3.998   0.024  0.00  0.00    +0.136 A 
ATOM     23  C   UNL     1      -5.152   5.356   0.021  0.00  0.00    +0.051 A 
ATOM     24  C   UNL     1      -6.527   5.613   0.026  0.00  0.00    +0.057 A 
ATOM     25  C   UNL     1      -7.161   4.390   0.031  0.00  0.00    +0.212 A 
ATOM     26  O   UNL     1      -6.215   3.427   0.024  0.00  0.00    -0.448 OA
BRANCH  22  30
ATOM     27  C   UNL     1      -1.298   1.928   0.011  0.00  0.00    +0.017 A 
ATOM     28  C   UNL     1      -1.317   3.329   0.013  0.00  0.00    +0.012 A 
ATOM     29  C   UNL     1      -2.510   3.994   0.012  0.00  0.00    +0.012 A 
ATOM     30  C   UNL     1      -3.711   3.278   0.019  0.00  0.00    +0.017 A 
ATOM     31  C   UNL     1      -3.692   1.879   0.023  0.00  0.00    +0.012 A 
ATOM     32  C   UNL     1      -2.501   1.212   0.019  0.00  0.00    +0.012 A 
BRANCH  27  34
ATOM     33  C   UNL     1       1.280   1.982  -0.007  0.00  0.00    +0.091 C 
ATOM     34  C   UNL     1      -0.014   1.211   0.007  0.00  0.00    +0.160 C 
ATOM     35  O   UNL     1       0.002  -0.002   0.011  0.00  0.00    -0.292 OA
ENDBRANCH  27  34
ENDBRANCH  22  30
ENDBRANCH  20  25
ENDBRANCH  19  20
ENDBRANCH   1  19
TORSDOF 7
