REMARK  Name = ZINC39934605
REMARK  10 active torsions:
REMARK  status: ('A' for Active; 'I' for Inactive)
REMARK    1  A    between atoms: C_1  and  C_2
REMARK    2  A    between atoms: C_2  and  O_3
REMARK    3  A    between atoms: O_3  and  C_4
REMARK    4  A    between atoms: C_4  and  C_6
REMARK    5  A    between atoms: C_7  and  N_19
REMARK    6  A    between atoms: C_9  and  C_12
REMARK    7  A    between atoms: C_20  and  C_22
REMARK    8  A    between atoms: C_22  and  S_23
REMARK    9  A    between atoms: S_23  and  C_24
REMARK   10  A    between atoms: C_27  and  C_30
REMARK                            x       y       z     vdW  Elec       q    Type
REMARK                         _______ _______ _______ _____ _____    ______ ____
ROOT
ATOM      1  C   UNL     1      -2.848  -2.446   0.209  0.00  0.00    +0.110 C 
ATOM      2  C   UNL     1      -3.167  -3.715  -0.118  0.00  0.00    +0.032 C 
ATOM      3  C   UNL     1      -4.598  -4.063  -0.372  0.00  0.00    +0.071 C 
ATOM      4  C   UNL     1      -5.434  -2.790  -0.667  0.00  0.00    +0.087 C 
ATOM      5  S   UNL     1      -4.388  -1.545   0.202  0.00  0.00    -0.108 S 
ENDROOT
BRANCH   4   6
ATOM      6  C   UNL     1      -6.807  -2.878  -0.053  0.00  0.00    -0.034 A 
ATOM      7  C   UNL     1      -6.944  -3.015   1.316  0.00  0.00    +0.006 A 
ATOM      8  C   UNL     1      -8.203  -3.095   1.880  0.00  0.00    +0.020 A 
ATOM      9  C   UNL     1      -9.327  -3.038   1.074  0.00  0.00    +0.041 A 
ATOM     10  C   UNL     1      -9.189  -2.900  -0.295  0.00  0.00    +0.020 A 
ATOM     11  C   UNL     1      -7.929  -2.814  -0.858  0.00  0.00    +0.006 A 
ATOM     12 CL   UNL     1     -10.909  -3.139   1.782  0.00  0.00    -0.084 Cl
ENDBRANCH   4   6
BRANCH   2  13
ATOM     13  N   UNL     1      -2.185  -4.679  -0.216  0.00  0.00    -0.287 N 
ATOM     14  C   UNL     1      -2.525  -5.970  -0.408  0.00  0.00    +0.227 C 
ATOM     15  O   UNL     1      -3.690  -6.276  -0.549  0.00  0.00    -0.275 OA
ATOM     16  H   UNL     1      -1.251  -4.429  -0.146  0.00  0.00    +0.155 HD
BRANCH  14  17
ATOM     17  C   UNL     1      -1.457  -7.032  -0.448  0.00  0.00    +0.173 C 
BRANCH  17  18
ATOM     18  S   UNL     1      -2.225  -8.652  -0.720  0.00  0.00    -0.077 S 
BRANCH  18  19
ATOM     19  C   UNL     1      -0.864  -9.771  -0.741  0.00  0.00    +0.185 A 
ATOM     20  N   UNL     1       0.404  -9.453  -0.590  0.00  0.00    -0.203 NA
ATOM     21  H   UNL     1      -1.741 -11.636  -1.042  0.00  0.00    +0.191 HD
ATOM     22  C   UNL     1       1.155 -10.552  -0.662  0.00  0.00    +0.180 A 
ATOM     23  N   UNL     1       0.383 -11.586  -0.860  0.00  0.00    -0.154 NA
ATOM     24  N   UNL     1      -0.937 -11.110  -0.910  0.00  0.00    -0.253 N 
BRANCH  22  25
ATOM     25  C   UNL     1       2.656 -10.595  -0.536  0.00  0.00    +0.188 C 
ATOM     26  C   UNL     1       3.064 -11.190   0.835  0.00  0.00    +0.042 C 
ATOM     27  C   UNL     1       4.484 -11.730   0.512  0.00  0.00    +0.031 C 
ATOM     28  C   UNL     1       4.335 -12.184  -0.956  0.00  0.00    +0.161 C 
ATOM     29  O   UNL     1       3.214 -11.486  -1.515  0.00  0.00    -0.369 OA
ENDBRANCH  22  25
ENDBRANCH  18  19
ENDBRANCH  17  18
ENDBRANCH  14  17
ENDBRANCH   2  13
BRANCH   1  30
ATOM     30  C   UNL     1      -1.518  -1.919   0.512  0.00  0.00    +0.347 C 
ATOM     31  O   UNL     1      -0.566  -2.674   0.580  0.00  0.00    -0.244 OA
BRANCH  30  32
ATOM     32  O   UNL     1      -1.346  -0.597   0.716  0.00  0.00    -0.461 OA
BRANCH  32  34
ATOM     33  C   UNL     1      -0.023   1.365   1.206  0.00  0.00    +0.048 C 
ATOM     34  C   UNL     1      -0.020  -0.152   1.007  0.00  0.00    +0.229 C 
ENDBRANCH  32  34
ENDBRANCH  30  32
ENDBRANCH   1  30
TORSDOF 9
