REMARK  Name = ZINC35453252
REMARK  8 active torsions:
REMARK  status: ('A' for Active; 'I' for Inactive)
REMARK    1  A    between atoms: C_1  and  C_2
REMARK    2  A    between atoms: C_2  and  C_3
REMARK    3  A    between atoms: C_3  and  C_4
REMARK    4  A    between atoms: C_4  and  C_5
REMARK    5  A    between atoms: C_5  and  N_6
REMARK    6  A    between atoms: N_6  and  C_7
REMARK    7  A    between atoms: N_6  and  C_8
REMARK    8  A    between atoms: C_13  and  N_14
REMARK                            x       y       z     vdW  Elec       q    Type
REMARK                         _______ _______ _______ _____ _____    ______ ____
ROOT
ATOM      1  C   UNL     1       2.542  -4.676  -1.938  0.00  0.00    +0.052 A 
ATOM      2  C   UNL     1       2.477  -5.036  -0.601  0.00  0.00    +0.052 A 
ATOM      3  C   UNL     1       3.533  -5.718  -0.018  0.00  0.00    +0.078 A 
ATOM      4  C   UNL     1       4.659  -6.042  -0.772  0.00  0.00    +0.144 A 
ATOM      5  C   UNL     1       4.725  -5.683  -2.107  0.00  0.00    +0.072 A 
ATOM      6  C   UNL     1       3.666  -5.005  -2.695  0.00  0.00    +0.049 A 
ATOM      7  O   UNL     1       5.688  -6.710  -0.184  0.00  0.00    -0.481 OA
ATOM      8  C   UNL     1       5.928  -6.433   1.198  0.00  0.00    +0.325 C 
ATOM      9  C   UNL     1       4.625  -6.462   1.955  0.00  0.00    +0.255 C 
ATOM     10  O   UNL     1       4.601  -6.817   3.114  0.00  0.00    -0.272 OA
ATOM     11  N   UNL     1       3.483  -6.091   1.335  0.00  0.00    -0.280 N 
ATOM     12  H   UNL     1       2.641  -6.083   1.818  0.00  0.00    +0.155 HD
ENDROOT
BRANCH   6  13
ATOM     13  N   UNL     1       3.729  -4.646  -4.048  0.00  0.00    -0.356 N 
ATOM     14  H   UNL     1       2.991  -4.168  -4.459  0.00  0.00    +0.142 HD
ATOM     15  H   UNL     1       4.511  -4.875  -4.575  0.00  0.00    +0.142 HD
ENDBRANCH   6  13
BRANCH   1  16
ATOM     16  N   UNL     1       1.475  -3.986  -2.532  0.00  0.00    -0.331 N 
ATOM     17  C   UNL     1       0.380  -4.730  -3.160  0.00  0.00    +0.129 C 
BRANCH  16  18
ATOM     18  C   UNL     1       1.455  -2.521  -2.524  0.00  0.00    +0.105 C 
BRANCH  18  19
ATOM     19  C   UNL     1       0.739  -2.027  -1.265  0.00  0.00    +0.019 C 
BRANCH  19  20
ATOM     20  C   UNL     1       0.718  -0.497  -1.257  0.00  0.00    +0.001 C 
BRANCH  20  22
ATOM     21  C   UNL     1      -0.019   1.526   0.010  0.00  0.00    +0.004 C 
ATOM     22  C   UNL     1       0.002  -0.004   0.002  0.00  0.00    -0.003 C 
ENDBRANCH  20  22
ENDBRANCH  19  20
ENDBRANCH  18  19
ENDBRANCH  16  18
ENDBRANCH   1  16
TORSDOF 6
