REMARK  Name = ZINC18209073
REMARK  6 active torsions:
REMARK  status: ('A' for Active; 'I' for Inactive)
REMARK    1  A    between atoms: C_1  and  O_2
REMARK    2  A    between atoms: O_2  and  C_3
REMARK    3  A    between atoms: C_6  and  C_10
REMARK    4  A    between atoms: C_7  and  O_9
REMARK    5  A    between atoms: C_11  and  C_20
REMARK    6  A    between atoms: C_12  and  C_16
REMARK                            x       y       z     vdW  Elec       q    Type
REMARK                         _______ _______ _______ _____ _____    ______ ____
ROOT
ATOM      1  C   UNL     1       2.579  -2.529   4.297  0.00  0.00    +0.080 A 
ATOM      2  C   UNL     1       3.736  -3.300   4.231  0.00  0.00    +0.074 A 
ATOM      3  C   UNL     1       4.023  -3.731   5.541  0.00  0.00    +0.176 A 
ATOM      4  N   UNL     1       3.109  -3.257   6.344  0.00  0.00    -0.169 NA
ATOM      5  N   UNL     1       2.196  -2.498   5.604  0.00  0.00    -0.276 N 
ATOM      6  H   UNL     1       1.423  -2.032   5.960  0.00  0.00    +0.189 HD
ENDROOT
BRANCH   2   7
ATOM      7  C   UNL     1       4.515  -3.610   3.017  0.00  0.00    +0.140 A 
ATOM      8  C   UNL     1       5.787  -3.204   2.782  0.00  0.00    +0.058 A 
ATOM      9  C   UNL     1       6.148  -3.739   1.467  0.00  0.00    +0.021 A 
ATOM     10  C   UNL     1       7.294  -3.677   0.673  0.00  0.00    +0.011 A 
ATOM     11  C   UNL     1       7.310  -4.303  -0.543  0.00  0.00    +0.001 A 
ATOM     12  C   UNL     1       6.195  -4.997  -0.990  0.00  0.00    +0.004 A 
ATOM     13  C   UNL     1       5.054  -5.069  -0.219  0.00  0.00    +0.047 A 
ATOM     14  C   UNL     1       5.016  -4.441   1.019  0.00  0.00    +0.136 A 
ATOM     15  O   UNL     1       4.070  -4.342   1.976  0.00  0.00    -0.455 OA
ENDBRANCH   2   7
BRANCH   1  19
ATOM     16  C   UNL     1       0.626  -0.618   1.041  0.00  0.00    +0.124 A 
ATOM     17  C   UNL     1       1.202   0.144   2.051  0.00  0.00    +0.046 A 
ATOM     18  C   UNL     1       1.836  -0.472   3.108  0.00  0.00    +0.017 A 
ATOM     19  C   UNL     1       1.900  -1.866   3.167  0.00  0.00    +0.042 A 
ATOM     20  C   UNL     1       1.318  -2.632   2.148  0.00  0.00    +0.129 A 
ATOM     21  C   UNL     1       0.680  -2.003   1.093  0.00  0.00    +0.091 A 
BRANCH  16  23
ATOM     22  C   UNL     1      -0.017   1.425   0.010  0.00  0.00    +0.277 C 
ATOM     23  O   UNL     1       0.002  -0.004   0.002  0.00  0.00    -0.495 OA
ENDBRANCH  16  23
BRANCH  20  24
ATOM     24  O   UNL     1       1.377  -3.989   2.197  0.00  0.00    -0.506 OA
ATOM     25  H   UNL     1       0.632  -4.398   2.659  0.00  0.00    +0.292 HD
ENDBRANCH  20  24
ENDBRANCH   1  19
BRANCH   3  26
ATOM     26  C   UNL     1       5.190  -4.594   5.948  0.00  0.00    +0.437 C 
ATOM     27  F   UNL     1       6.282  -3.781   6.268  0.00  0.00    -0.164 F 
ATOM     28  F   UNL     1       4.836  -5.361   7.063  0.00  0.00    -0.164 F 
ATOM     29  F   UNL     1       5.534  -5.441   4.889  0.00  0.00    -0.164 F 
ENDBRANCH   3  26
TORSDOF 5
