REMARK  Name = ZINC15478337
REMARK  10 active torsions:
REMARK  status: ('A' for Active; 'I' for Inactive)
REMARK    1  A    between atoms: C_1  and  O_2
REMARK    2  A    between atoms: O_2  and  C_3
REMARK    3  A    between atoms: C_6  and  C_9
REMARK    4  A    between atoms: C_9  and  C_11
REMARK    5  A    between atoms: C_9  and  N_31
REMARK    6  A    between atoms: C_11  and  N_12
REMARK    7  A    between atoms: C_13  and  C_15
REMARK    8  A    between atoms: C_15  and  C_16
REMARK    9  A    between atoms: C_16  and  N_17
REMARK   10  A    between atoms: N_20  and  C_21
REMARK                            x       y       z     vdW  Elec       q    Type
REMARK                         _______ _______ _______ _____ _____    ______ ____
ROOT
ATOM      1  N   UNL     1     -10.767  -0.244   3.276  0.00  0.00    -0.313 N 
ATOM      2  C   UNL     1      -9.429  -0.314   3.421  0.00  0.00    +0.215 C 
ATOM      3  O   UNL     1      -8.921  -0.057   4.492  0.00  0.00    -0.276 OA
ATOM      4  H   UNL     1     -11.228  -0.477   2.305  0.00  0.00    +0.149 HD
ENDROOT
BRANCH   1   5
ATOM      5  C   UNL     1     -11.608   0.141   4.412  0.00  0.00    +0.127 C 
BRANCH   5   6
ATOM      6  C   UNL     1     -13.077   0.141   3.982  0.00  0.00    +0.104 C 
BRANCH   6  10
ATOM      7  C   UNL     1     -15.498   1.597   7.188  0.00  0.00    +0.120 A 
ATOM      8  C   UNL     1     -15.840   0.419   6.539  0.00  0.00    +0.046 A 
ATOM      9  C   UNL     1     -15.055  -0.049   5.503  0.00  0.00    +0.009 A 
ATOM     10  C   UNL     1     -13.931   0.654   5.113  0.00  0.00    -0.029 A 
ATOM     11  C   UNL     1     -13.586   1.825   5.762  0.00  0.00    +0.009 A 
ATOM     12  C   UNL     1     -14.370   2.301   6.794  0.00  0.00    +0.046 A 
BRANCH   7  14
ATOM     13  C   UNL     1     -15.857   3.278   8.830  0.00  0.00    +0.277 C 
ATOM     14  O   UNL     1     -16.268   2.059   8.208  0.00  0.00    -0.495 OA
ENDBRANCH   7  14
ENDBRANCH   6  10
BRANCH   6  15
ATOM     15  N   UNL     1     -13.243   1.009   2.809  0.00  0.00    -0.290 NA
ATOM     16  C   UNL     1     -12.882   2.398   3.126  0.00  0.00    +0.113 C 
ATOM     17  C   UNL     1     -13.013   3.255   1.864  0.00  0.00    +0.175 C 
ATOM     18  O   UNL     1     -14.345   3.145   1.355  0.00  0.00    -0.377 OA
ATOM     19  C   UNL     1     -14.729   1.805   1.035  0.00  0.00    +0.175 C 
ATOM     20  C   UNL     1     -14.616   0.934   2.289  0.00  0.00    +0.113 C 
ENDBRANCH   6  15
ENDBRANCH   5   6
ENDBRANCH   1   5
BRANCH   2  21
ATOM     21  C   UNL     1      -8.564  -0.710   2.253  0.00  0.00    +0.114 C 
BRANCH  21  22
ATOM     22  C   UNL     1      -7.095  -0.710   2.683  0.00  0.00    +0.115 C 
BRANCH  22  23
ATOM     23  N   UNL     1      -6.254  -1.095   1.547  0.00  0.00    -0.299 N 
ATOM     24  C   UNL     1      -4.916  -1.164   1.692  0.00  0.00    +0.300 C 
ATOM     25  O   UNL     1      -4.407  -0.907   2.766  0.00  0.00    -0.253 OA
ATOM     26  N   UNL     1      -4.142  -1.518   0.647  0.00  0.00    -0.294 N 
ATOM     27  H   UNL     1      -6.715  -1.328   0.575  0.00  0.00    +0.150 HD
ATOM     28  H   UNL     1      -4.603  -1.751  -0.325  0.00  0.00    +0.151 HD
BRANCH  26  29
ATOM     29  C   UNL     1      -2.688  -1.593   0.805  0.00  0.00    +0.037 C 
ATOM     30  C   UNL     1      -2.052  -2.014  -0.522  0.00  0.00    +0.029 C 
ATOM     31  C   UNL     1      -0.533  -2.093  -0.357  0.00  0.00    -0.008 C 
ATOM     32  C   UNL     1      -0.189  -3.121   0.723  0.00  0.00    +0.007 C 
ATOM     33  C   UNL     1      -0.825  -2.700   2.049  0.00  0.00    -0.008 C 
ATOM     34  C   UNL     1      -2.344  -2.621   1.884  0.00  0.00    +0.029 C 
ATOM     35  C   UNL     1      -0.285  -1.329   2.461  0.00  0.00    +0.007 C 
ATOM     36  C   UNL     1      -0.629  -0.300   1.381  0.00  0.00    -0.008 C 
ATOM     37  C   UNL     1       0.007  -0.722   0.055  0.00  0.00    +0.007 C 
ATOM     38  C   UNL     1      -2.148  -0.222   1.216  0.00  0.00    +0.029 C 
ENDBRANCH  26  29
ENDBRANCH  22  23
ENDBRANCH  21  22
ENDBRANCH   2  21
TORSDOF 9
