REMARK  Name = ZINC25382909
REMARK  10 active torsions:
REMARK  status: ('A' for Active; 'I' for Inactive)
REMARK    1  A    between atoms: C_1  and  C_2
REMARK    2  A    between atoms: C_2  and  C_3
REMARK    3  A    between atoms: C_6  and  C_9
REMARK    4  A    between atoms: C_9  and  C_11
REMARK    5  A    between atoms: C_9  and  N_32
REMARK    6  A    between atoms: C_11  and  N_12
REMARK    7  A    between atoms: C_13  and  C_15
REMARK    8  A    between atoms: C_15  and  N_16
REMARK    9  A    between atoms: N_32  and  C_33
REMARK   10  A    between atoms: N_32  and  C_34
REMARK                            x       y       z     vdW  Elec       q    Type
REMARK                         _______ _______ _______ _____ _____    ______ ____
ROOT
ATOM      1  N   UNL     1       6.124   0.615  -1.319  0.00  0.00    -0.315 N 
ATOM      2  C   UNL     1       4.918   0.325  -0.792  0.00  0.00    +0.231 C 
ATOM      3  O   UNL     1       3.935   0.307  -1.503  0.00  0.00    -0.274 OA
ATOM      4  H   UNL     1       7.016   0.631  -0.674  0.00  0.00    +0.149 HD
ENDROOT
BRANCH   1   5
ATOM      5  C   UNL     1       6.249   0.906  -2.749  0.00  0.00    +0.093 C 
BRANCH   5   6
ATOM      6  C   UNL     1       7.687   1.326  -3.061  0.00  0.00    -0.021 C 
BRANCH   6  10
ATOM      7  C   UNL     1       8.594   4.949  -0.988  0.00  0.00    -0.048 A 
ATOM      8  C   UNL     1       9.021   3.737  -0.480  0.00  0.00    +0.004 A 
ATOM      9  C   UNL     1       8.727   2.564  -1.151  0.00  0.00    +0.002 A 
ATOM     10  C   UNL     1       8.007   2.604  -2.329  0.00  0.00    -0.059 A 
ATOM     11  C   UNL     1       7.584   3.817  -2.840  0.00  0.00    +0.002 A 
ATOM     12  C   UNL     1       7.873   4.989  -2.167  0.00  0.00    +0.004 A 
BRANCH   7  14
ATOM     13  C   UNL     1      10.251   6.779  -0.757  0.00  0.00    +0.009 C 
ATOM     14  C   UNL     1       8.915   6.227  -0.257  0.00  0.00    +0.032 C 
ENDBRANCH   7  14
ENDBRANCH   6  10
BRANCH   6  15
ATOM     15  N   UNL     1       7.832   1.540  -4.507  0.00  0.00    +0.382 N 
ATOM     16  C   UNL     1       9.215   1.895  -4.851  0.00  0.00    -0.096 C 
ATOM     17  C   UNL     1       7.388   0.360  -5.261  0.00  0.00    -0.096 C 
ATOM     18  H   UNL     1       7.186   2.384  -4.790  0.00  0.00    -0.082 HD
ENDBRANCH   6  15
ENDBRANCH   5   6
ENDBRANCH   1   5
BRANCH   2  19
ATOM     19  C   UNL     1       4.790   0.025   0.679  0.00  0.00    +0.213 C 
BRANCH  19  20
ATOM     20  N   UNL     1       3.388  -0.255   1.000  0.00  0.00    -0.215 N 
ATOM     21  C   UNL     1       2.833  -1.484   0.960  0.00  0.00    +0.251 C 
ATOM     22  O   UNL     1       3.377  -2.526   0.664  0.00  0.00    -0.272 OA
ATOM     23  C   UNL     1       1.388  -1.288   1.363  0.00  0.00    +0.138 C 
ATOM     24  C   UNL     1       0.462  -1.706   0.227  0.00  0.00    +0.040 C 
ATOM     25  C   UNL     1      -0.983  -1.673   0.741  0.00  0.00    +0.008 C 
ATOM     26  C   UNL     1      -1.161  -2.800   1.756  0.00  0.00    +0.035 C 
ATOM     27  C   UNL     1      -0.084  -2.744   2.807  0.00  0.00    -0.042 A 
ATOM     28  C   UNL     1       1.094  -2.053   2.622  0.00  0.00    -0.012 A 
ATOM     29  C   UNL     1       2.054  -2.052   3.626  0.00  0.00    +0.006 A 
ATOM     30  C   UNL     1       1.836  -2.733   4.806  0.00  0.00    +0.000 A 
ATOM     31  C   UNL     1       0.652  -3.422   4.993  0.00  0.00    +0.000 A 
ATOM     32  C   UNL     1      -0.302  -3.426   3.997  0.00  0.00    +0.004 A 
ATOM     33  N   UNL     1       1.281   0.157   1.606  0.00  0.00    -0.281 N 
ATOM     34  C   UNL     1       2.500   0.676   1.369  0.00  0.00    +0.310 C 
ATOM     35  O   UNL     1       2.765   1.857   1.478  0.00  0.00    -0.252 OA
ATOM     36  H   UNL     1       0.320   0.592   1.919  0.00  0.00    +0.152 HD
ENDBRANCH  19  20
ENDBRANCH   2  19
TORSDOF 7
