REMARK  Name = ZINC10960311
REMARK  7 active torsions:
REMARK  status: ('A' for Active; 'I' for Inactive)
REMARK    1  A    between atoms: C_1  and  C_2
REMARK    2  A    between atoms: C_5  and  N_9
REMARK    3  A    between atoms: C_10  and  C_12
REMARK    4  A    between atoms: C_12  and  O_13
REMARK    5  A    between atoms: O_13  and  C_14
REMARK    6  A    between atoms: C_14  and  C_16
REMARK    7  A    between atoms: C_21  and  N_22
REMARK                            x       y       z     vdW  Elec       q    Type
REMARK                         _______ _______ _______ _____ _____    ______ ____
ROOT
ATOM      1  C   UNL     1      -7.198   0.771  -0.471  0.00  0.00    +0.080 A 
ATOM      2  C   UNL     1      -7.016  -0.606  -0.359  0.00  0.00    +0.017 A 
ATOM      3  C   UNL     1      -8.094  -1.466  -0.462  0.00  0.00    +0.013 A 
ATOM      4  C   UNL     1      -9.374  -0.966  -0.679  0.00  0.00    +0.035 A 
ATOM      5  C   UNL     1      -9.578   0.421  -0.795  0.00  0.00    +0.054 A 
ATOM      6  C   UNL     1      -8.486   1.294  -0.685  0.00  0.00    +0.050 A 
ATOM      7  C   UNL     1     -10.931   0.954  -1.025  0.00  0.00    +0.196 C 
ATOM      8  O   UNL     1     -11.104   2.153  -1.124  0.00  0.00    -0.287 OA
ATOM      9  C   UNL     1     -12.080   0.030  -1.134  0.00  0.00    +0.033 A 
ATOM     10  C   UNL     1     -13.362   0.527  -1.351  0.00  0.00    +0.012 A 
ATOM     11  C   UNL     1     -14.432  -0.345  -1.452  0.00  0.00    +0.001 A 
ATOM     12  C   UNL     1     -14.236  -1.710  -1.339  0.00  0.00    +0.001 A 
ATOM     13  C   UNL     1     -12.969  -2.220  -1.123  0.00  0.00    +0.012 A 
ATOM     14  C   UNL     1     -11.881  -1.357  -1.019  0.00  0.00    +0.033 A 
ATOM     15  C   UNL     1     -10.524  -1.893  -0.788  0.00  0.00    +0.195 C 
ATOM     16  O   UNL     1     -10.351  -3.091  -0.689  0.00  0.00    -0.287 OA
ENDROOT
BRANCH   6  17
ATOM     17  N   UNL     1      -8.674   2.657  -0.791  0.00  0.00    -0.357 N 
ATOM     18  H   UNL     1      -7.946   3.226  -1.086  0.00  0.00    +0.142 HD
ATOM     19  H   UNL     1      -9.535   3.047  -0.571  0.00  0.00    +0.142 HD
ENDBRANCH   6  17
BRANCH   1  20
ATOM     20  C   UNL     1      -6.042   1.681  -0.358  0.00  0.00    +0.341 C 
ATOM     21  O   UNL     1      -6.212   2.884  -0.359  0.00  0.00    -0.245 OA
BRANCH  20  22
ATOM     22  O   UNL     1      -4.796   1.177  -0.256  0.00  0.00    -0.452 OA
BRANCH  22  23
ATOM     23  C   UNL     1      -3.706   2.131  -0.148  0.00  0.00    +0.328 C 
BRANCH  23  25
ATOM     24  N   UNL     1      -1.243   2.073   0.067  0.00  0.00    -0.282 N 
ATOM     25  C   UNL     1      -2.399   1.389  -0.043  0.00  0.00    +0.255 C 
ATOM     26  O   UNL     1      -2.386   0.176  -0.057  0.00  0.00    -0.272 OA
ATOM     27  H   UNL     1      -1.258   3.039   0.161  0.00  0.00    +0.155 HD
BRANCH  24  32
ATOM     28  C   UNL     1       3.715  -0.684  -0.041  0.00  0.00    +0.044 C 
ATOM     29  C   UNL     1       2.398   0.048  -0.011  0.00  0.00    -0.049 A 
ATOM     30  C   UNL     1       1.283  -0.513  -0.607  0.00  0.00    +0.005 A 
ATOM     31  C   UNL     1       0.075   0.155  -0.581  0.00  0.00    +0.025 A 
ATOM     32  C   UNL     1      -0.021   1.391   0.044  0.00  0.00    +0.048 A 
ATOM     33  C   UNL     1       1.101   1.952   0.642  0.00  0.00    +0.039 A 
ATOM     34  C   UNL     1       2.307   1.279   0.612  0.00  0.00    +0.020 A 
ATOM     35 BR   UNL     1       0.977   3.636   1.494  0.00  0.00    -0.048 Br
ENDBRANCH  24  32
ENDBRANCH  23  25
ENDBRANCH  22  23
ENDBRANCH  20  22
ENDBRANCH   1  20
TORSDOF 6
