REMARK  Name = ZINC36340075
REMARK  16 active torsions:
REMARK  status: ('A' for Active; 'I' for Inactive)
REMARK    1  A    between atoms: C_1  and  C_2
REMARK    2  A    between atoms: C_2  and  C_3
REMARK    3  A    between atoms: C_3  and  C_4
REMARK    4  A    between atoms: C_4  and  O_5
REMARK    5  A    between atoms: O_5  and  C_6
REMARK    6  A    between atoms: C_6  and  C_7
REMARK    7  A    between atoms: C_7  and  C_9
REMARK    8  A    between atoms: C_7  and  O_39
REMARK    9  A    between atoms: C_9  and  N_10
REMARK   10  A    between atoms: C_17  and  C_31
REMARK   11  A    between atoms: C_18  and  C_28
REMARK   12  A    between atoms: C_20  and  C_22
REMARK   13  A    between atoms: C_28  and  O_29
REMARK   14  A    between atoms: O_29  and  C_30
REMARK   15  A    between atoms: C_31  and  C_32
REMARK   16  A    between atoms: C_35  and  C_38
REMARK                            x       y       z     vdW  Elec       q    Type
REMARK                         _______ _______ _______ _____ _____    ______ ____
ROOT
ATOM      1  N   UNL     1       3.393  -5.853  -4.664  0.00  0.00    -0.297 NA
ATOM      2  C   UNL     1       4.141  -5.367  -5.831  0.00  0.00    +0.103 C 
ATOM      3  C   UNL     1       4.271  -6.498  -6.857  0.00  0.00    +0.122 C 
ATOM      4  N   UNL     1       4.854  -7.670  -6.189  0.00  0.00    -0.312 N 
ATOM      5  C   UNL     1       4.240  -8.134  -4.935  0.00  0.00    +0.122 C 
ATOM      6  C   UNL     1       4.111  -6.939  -3.985  0.00  0.00    +0.103 C 
ATOM      7  C   UNL     1       5.953  -8.322  -6.726  0.00  0.00    +0.129 A 
ATOM      8  C   UNL     1       5.788  -9.487  -7.479  0.00  0.00    +0.020 A 
ATOM      9  C   UNL     1       6.912 -10.103  -7.995  0.00  0.00    +0.076 A 
ATOM     10  N   UNL     1       8.105  -9.575  -7.763  0.00  0.00    -0.229 NA
ATOM     11  C   UNL     1       8.232  -8.468  -7.044  0.00  0.00    +0.162 A 
ATOM     12  N   UNL     1       7.178  -7.844  -6.536  0.00  0.00    -0.212 NA
ENDROOT
BRANCH  11  13
ATOM     13  C   UNL     1       9.586  -7.911  -6.808  0.00  0.00    +0.019 A 
ATOM     14  C   UNL     1       9.742  -6.751  -6.051  0.00  0.00    +0.011 A 
ATOM     15  C   UNL     1      11.005  -6.238  -5.833  0.00  0.00    +0.001 A 
ATOM     16  C   UNL     1      12.113  -6.871  -6.366  0.00  0.00    +0.000 A 
ATOM     17  C   UNL     1      11.963  -8.022  -7.118  0.00  0.00    +0.001 A 
ATOM     18  C   UNL     1      10.707  -8.548  -7.337  0.00  0.00    +0.011 A 
ENDBRANCH  11  13
BRANCH   1  19
ATOM     19  C   UNL     1       3.097  -4.755  -3.734  0.00  0.00    +0.118 C 
BRANCH  19  20
ATOM     20  C   UNL     1       1.932  -5.154  -2.827  0.00  0.00    +0.154 C 
BRANCH  20  21
ATOM     21  O   UNL     1       0.760  -5.357  -3.618  0.00  0.00    -0.388 OA
ATOM     22  H   UNL     1       0.480  -4.575  -4.114  0.00  0.00    +0.210 HD
ENDBRANCH  20  21
BRANCH  20  23
ATOM     23  C   UNL     1       1.674  -4.042  -1.808  0.00  0.00    +0.192 C 
BRANCH  23  24
ATOM     24  O   UNL     1       0.664  -4.463  -0.888  0.00  0.00    -0.377 OA
BRANCH  24  25
ATOM     25  C   UNL     1       0.346  -3.492   0.110  0.00  0.00    +0.160 C 
BRANCH  25  26
ATOM     26  C   UNL     1      -0.739  -4.047   1.034  0.00  0.00    +0.028 C 
BRANCH  26  28
ATOM     27  C   UNL     1      -2.166  -3.563   3.027  0.00  0.00    +0.004 C 
ATOM     28  C   UNL     1      -1.080  -3.007   2.103  0.00  0.00    -0.001 C 
ENDBRANCH  26  28
ENDBRANCH  25  26
ENDBRANCH  24  25
ENDBRANCH  23  24
ENDBRANCH  20  23
ENDBRANCH  19  20
ENDBRANCH   1  19
BRANCH   9  29
ATOM     29  C   UNL     1       6.783 -11.362  -8.813  0.00  0.00    +0.215 C 
BRANCH  29  30
ATOM     30  O   UNL     1       6.633 -11.021 -10.192  0.00  0.00    -0.377 OA
ATOM     31  C   UNL     1       6.502 -12.149 -11.059  0.00  0.00    +0.194 C 
ENDBRANCH  29  30
ENDBRANCH   9  29
BRANCH   8  32
ATOM     32  C   UNL     1       4.416 -10.060  -7.722  0.00  0.00    +0.075 C 
BRANCH  32  33
ATOM     33  C   UNL     1       3.920  -9.619  -9.076  0.00  0.00    -0.043 A 
ATOM     34  C   UNL     1       3.339  -8.373  -9.227  0.00  0.00    +0.004 A 
ATOM     35  C   UNL     1       2.885  -7.969 -10.468  0.00  0.00    +0.003 A 
ATOM     36  C   UNL     1       3.012  -8.809 -11.558  0.00  0.00    -0.050 A 
ATOM     37  C   UNL     1       3.594 -10.054 -11.407  0.00  0.00    +0.003 A 
ATOM     38  C   UNL     1       4.052 -10.457 -10.167  0.00  0.00    +0.004 A 
ATOM     39  C   UNL     1       2.516  -8.369 -12.911  0.00  0.00    +0.044 C 
ENDBRANCH  32  33
ENDBRANCH   8  32
TORSDOF 13
