REMARK  Name = ZINC39466782
REMARK  5 active torsions:
REMARK  status: ('A' for Active; 'I' for Inactive)
REMARK    1  A    between atoms: C_1  and  C_2
REMARK    2  A    between atoms: C_3  and  C_10
REMARK    3  A    between atoms: N_6  and  C_8
REMARK    4  A    between atoms: C_10  and  N_11
REMARK    5  A    between atoms: C_24  and  C_26
REMARK                            x       y       z     vdW  Elec       q    Type
REMARK                         _______ _______ _______ _____ _____    ______ ____
ROOT
ATOM      1  N   UNL     1      -3.007  -0.140  -1.507  0.00  0.00    +0.391 N 
ATOM      2  C   UNL     1      -2.401   0.892  -2.358  0.00  0.00    -0.072 C 
ATOM      3  C   UNL     1      -2.842   0.681  -3.814  0.00  0.00    +0.019 C 
ATOM      4  C   UNL     1      -4.342   0.526  -3.823  0.00  0.00    -0.022 A 
ATOM      5  C   UNL     1      -5.268   0.604  -4.929  0.00  0.00    +0.003 A 
ATOM      6  C   UNL     1      -5.099   0.837  -6.297  0.00  0.00    +0.010 A 
ATOM      7  C   UNL     1      -6.232   0.842  -7.072  0.00  0.00    +0.001 A 
ATOM      8  C   UNL     1      -7.491   0.628  -6.536  0.00  0.00    +0.002 A 
ATOM      9  C   UNL     1      -7.689   0.395  -5.186  0.00  0.00    +0.026 A 
ATOM     10  C   UNL     1      -6.557   0.385  -4.375  0.00  0.00    +0.047 A 
ATOM     11  N   UNL     1      -6.395   0.190  -3.032  0.00  0.00    -0.359 N 
ATOM     12  C   UNL     1      -5.068   0.275  -2.709  0.00  0.00    +0.011 A 
ATOM     13  H   UNL     1      -7.112   0.019  -2.403  0.00  0.00    +0.166 HD
ATOM     14  C   UNL     1      -4.446   0.119  -1.342  0.00  0.00    +0.011 C 
ATOM     15  H   UNL     1      -2.878  -1.044  -1.937  0.00  0.00    -0.080 HD
ENDROOT
BRANCH  14  16
ATOM     16  C   UNL     1      -4.644   1.385  -0.549  0.00  0.00    -0.055 A 
ATOM     17  C   UNL     1      -4.494   2.615  -1.162  0.00  0.00    +0.005 A 
ATOM     18  C   UNL     1      -4.676   3.777  -0.436  0.00  0.00    +0.038 A 
ATOM     19  C   UNL     1      -5.008   3.708   0.907  0.00  0.00    +0.123 A 
ATOM     20  C   UNL     1      -5.158   2.476   1.520  0.00  0.00    +0.038 A 
ATOM     21  C   UNL     1      -4.981   1.316   0.790  0.00  0.00    +0.005 A 
ATOM     22  F   UNL     1      -5.186   4.843   1.618  0.00  0.00    -0.205 F 
ENDBRANCH  14  16
BRANCH   1  23
ATOM     23  C   UNL     1      -2.357  -0.129  -0.190  0.00  0.00    -0.042 C 
BRANCH  23  26
ATOM     24  C   UNL     1      -0.003   1.809  -0.474  0.00  0.00    +0.061 C 
ATOM     25  C   UNL     1       0.115   0.306  -0.465  0.00  0.00    +0.016 C 
ATOM     26  C   UNL     1      -0.908  -0.515  -0.343  0.00  0.00    -0.035 C 
ATOM     27  C   UNL     1      -0.348  -1.920  -0.384  0.00  0.00    +0.192 C 
ATOM     28  N   UNL     1       1.107  -1.728  -0.544  0.00  0.00    -0.211 NA
ATOM     29  N   UNL     1       1.308  -0.378  -0.591  0.00  0.00    -0.281 N 
ATOM     30  C   UNL     1       1.845  -2.336   0.570  0.00  0.00    +0.129 C 
ATOM     31 CL   UNL     1      -1.026  -2.829  -1.786  0.00  0.00    -0.098 Cl
ATOM     32  H   UNL     1       2.175   0.045  -0.696  0.00  0.00    +0.166 HD
ENDBRANCH  23  26
ENDBRANCH   1  23
TORSDOF 3
