REMARK  Name = ZINC35696745
REMARK  3 active torsions:
REMARK  status: ('A' for Active; 'I' for Inactive)
REMARK    1  A    between atoms: C_3  and  N_21
REMARK    2  A    between atoms: C_6  and  C_7
REMARK    3  A    between atoms: C_9  and  C_12
REMARK                            x       y       z     vdW  Elec       q    Type
REMARK                         _______ _______ _______ _____ _____    ______ ____
ROOT
ATOM      1  C   UNL     1      -1.272  -0.764   0.011  0.00  0.00    +0.202 A 
ATOM      2  N   UNL     1      -1.382  -2.101   0.010  0.00  0.00    -0.187 NA
ATOM      3  C   UNL     1      -2.653  -2.445   0.019  0.00  0.00    +0.265 A 
ATOM      4  O   UNL     1      -3.393  -1.320   0.026  0.00  0.00    -0.332 OA
ATOM      5  N   UNL     1      -2.474  -0.238   0.026  0.00  0.00    -0.056 NA
ENDROOT
BRANCH   3   6
ATOM      6  C   UNL     1      -3.173  -3.818   0.021  0.00  0.00    +0.077 A 
ATOM      7  C   UNL     1      -4.484  -4.253   0.024  0.00  0.00    +0.024 A 
ATOM      8  C   UNL     1      -4.689  -5.627   0.026  0.00  0.00    -0.036 A 
ATOM      9  C   UNL     1      -3.576  -6.411   0.024  0.00  0.00    -0.006 A 
ATOM     10  S   UNL     1      -2.278  -5.360   0.011  0.00  0.00    -0.088 S 
ATOM     11  C   UNL     1      -3.534  -7.911   0.025  0.00  0.00    +0.043 C 
ATOM     12  C   UNL     1      -4.925  -8.435   0.409  0.00  0.00    +0.005 C 
ATOM     13  C   UNL     1      -5.976  -7.703  -0.430  0.00  0.00    +0.005 C 
ATOM     14  C   UNL     1      -6.083  -6.248   0.029  0.00  0.00    +0.036 C 
ENDBRANCH   3   6
BRANCH   1  20
ATOM     15  C   UNL     1      -0.017   1.390   0.010  0.00  0.00    +0.013 A 
ATOM     16  C   UNL     1       1.168   2.094   0.002  0.00  0.00    +0.023 A 
ATOM     17  C   UNL     1       2.381   1.415  -0.013  0.00  0.00    +0.025 A 
ATOM     18  C   UNL     1       2.402   0.025  -0.021  0.00  0.00    +0.023 A 
ATOM     19  C   UNL     1       1.220  -0.683  -0.014  0.00  0.00    +0.013 A 
ATOM     20  C   UNL     1       0.002  -0.004   0.002  0.00  0.00    +0.023 A 
BRANCH  17  21
ATOM     21  N   UNL     1       3.579   2.130  -0.021  0.00  0.00    -0.358 N 
ATOM     22  H   UNL     1       3.565   3.100  -0.015  0.00  0.00    +0.142 HD
ATOM     23  H   UNL     1       4.426   1.657  -0.031  0.00  0.00    +0.142 HD
ENDBRANCH  17  21
ENDBRANCH   1  20
TORSDOF 3
