REMARK  Name = ZINC09465333
REMARK  10 active torsions:
REMARK  status: ('A' for Active; 'I' for Inactive)
REMARK    1  A    between atoms: C_1  and  C_2
REMARK    2  A    between atoms: C_3  and  C_14
REMARK    3  A    between atoms: C_4  and  C_13
REMARK    4  A    between atoms: N_5  and  C_7
REMARK    5  A    between atoms: C_14  and  N_63
REMARK    6  A    between atoms: C_15  and  N_63
REMARK    7  A    between atoms: C_16  and  C_17
REMARK    8  A    between atoms: C_16  and  N_63
REMARK    9  A    between atoms: N_22  and  C_23
REMARK   10  A    between atoms: C_23  and  C_24
REMARK                            x       y       z     vdW  Elec       q    Type
REMARK                         _______ _______ _______ _____ _____    ______ ____
ROOT
ATOM      1  C   UNL     1      -3.247  -1.442  -3.420  0.00  0.00    +0.204 C 
ATOM      2  O   UNL     1      -2.538  -0.835  -4.194  0.00  0.00    -0.277 OA
ATOM      3  N   UNL     1      -4.412  -1.969  -3.845  0.00  0.00    -0.242 N 
ATOM      4  C   UNL     1      -4.790  -1.821  -5.130  0.00  0.00    +0.306 C 
ATOM      5  O   UNL     1      -4.080  -1.212  -5.906  0.00  0.00    -0.252 OA
ATOM      6  N   UNL     1      -5.956  -2.347  -5.554  0.00  0.00    -0.295 N 
ATOM      7  H   UNL     1      -4.979  -2.455  -3.225  0.00  0.00    +0.159 HD
ATOM      8  H   UNL     1      -6.523  -2.833  -4.935  0.00  0.00    +0.150 HD
ENDROOT
BRANCH   1   9
ATOM      9  C   UNL     1      -2.824  -1.608  -1.983  0.00  0.00    +0.019 C 
BRANCH   9  11
ATOM     10  C   UNL     1      -0.466  -1.625  -2.532  0.00  0.00    -0.095 C 
ATOM     11  N   UNL     1      -1.530  -0.922  -1.785  0.00  0.00    +0.386 N 
ATOM     12  H   UNL     1      -1.605   0.040  -2.137  0.00  0.00    -0.081 HD
BRANCH  11  13
ATOM     13  C   UNL     1      -1.194  -0.882  -0.346  0.00  0.00    -0.039 C 
BRANCH  13  16
ATOM     14  C   UNL     1       1.835  -1.812  -0.370  0.00  0.00    +0.068 C 
ATOM     15  C   UNL     1       1.345  -0.403  -0.162  0.00  0.00    +0.062 A 
ATOM     16  C   UNL     1       0.007   0.007  -0.151  0.00  0.00    -0.020 A 
ATOM     17  C   UNL     1      -0.018   1.343   0.065  0.00  0.00    +0.043 A 
ATOM     18  N   UNL     1       1.261   1.764   0.187  0.00  0.00    -0.237 N 
ATOM     19  N   UNL     1       2.097   0.649   0.040  0.00  0.00    -0.171 NA
ATOM     20  C   UNL     1      -1.250   2.206   0.149  0.00  0.00    +0.066 C 
BRANCH  18  21
ATOM     21  C   UNL     1       1.677   3.082   0.419  0.00  0.00    +0.066 A 
ATOM     22  C   UNL     1       2.770   3.597  -0.265  0.00  0.00    +0.028 A 
ATOM     23  C   UNL     1       3.174   4.898  -0.038  0.00  0.00    +0.002 A 
ATOM     24  C   UNL     1       2.498   5.684   0.877  0.00  0.00    +0.000 A 
ATOM     25  C   UNL     1       1.412   5.173   1.563  0.00  0.00    +0.002 A 
ATOM     26  C   UNL     1       1.000   3.874   1.336  0.00  0.00    +0.028 A 
ENDBRANCH  18  21
ENDBRANCH  13  16
ENDBRANCH  11  13
ENDBRANCH   9  11
ENDBRANCH   1   9
BRANCH   6  27
ATOM     27  C   UNL     1      -6.367  -2.186  -6.951  0.00  0.00    +0.153 C 
BRANCH  27  28
ATOM     28  C   UNL     1      -7.717  -2.873  -7.168  0.00  0.00    +0.228 C 
ATOM     29  C   UNL     1      -8.101  -2.803  -8.652  0.00  0.00    +0.275 C 
ATOM     30  O   UNL     1      -9.373  -3.440  -8.817  0.00  0.00    -0.485 OA
ATOM     31  C   UNL     1     -10.343  -3.109  -7.922  0.00  0.00    +0.162 A 
ATOM     32  C   UNL     1     -11.668  -3.396  -8.217  0.00  0.00    +0.049 A 
ATOM     33  C   UNL     1     -12.664  -3.072  -7.316  0.00  0.00    +0.004 A 
ATOM     34  C   UNL     1     -12.343  -2.461  -6.118  0.00  0.00    +0.004 A 
ATOM     35  C   UNL     1     -11.026  -2.171  -5.818  0.00  0.00    +0.049 A 
ATOM     36  C   UNL     1     -10.021  -2.493  -6.718  0.00  0.00    +0.163 A 
ATOM     37  O   UNL     1      -8.729  -2.199  -6.410  0.00  0.00    -0.480 OA
ENDBRANCH  27  28
ENDBRANCH   6  27
TORSDOF 7
