REMARK  Name = ZINC38740486
REMARK  5 active torsions:
REMARK  status: ('A' for Active; 'I' for Inactive)
REMARK    1  A    between atoms: C_7  and  C_11
REMARK    2  A    between atoms: C_11  and  C_12
REMARK    3  A    between atoms: C_12  and  N_13
REMARK    4  A    between atoms: C_14  and  C_16
REMARK    5  A    between atoms: C_22  and  C_24
REMARK                            x       y       z     vdW  Elec       q    Type
REMARK                         _______ _______ _______ _____ _____    ______ ____
ROOT
ATOM      1  C   UNL     1      -2.111  -6.401  -2.612  0.00  0.00    +0.091 C 
ATOM      2  C   UNL     1      -3.357  -6.088  -1.781  0.00  0.00    +0.040 C 
ATOM      3  C   UNL     1      -4.397  -7.149  -1.990  0.00  0.00    -0.030 C 
ATOM      4  C   UNL     1      -4.391  -7.986  -2.977  0.00  0.00    -0.030 C 
ATOM      5  C   UNL     1      -3.338  -8.019  -4.045  0.00  0.00    +0.040 C 
ATOM      6  C   UNL     1      -2.546  -6.711  -4.050  0.00  0.00    +0.091 C 
ENDROOT
BRANCH   6   7
ATOM      7  C   UNL     1      -1.329  -6.854  -4.927  0.00  0.00    +0.220 C 
ATOM      8  O   UNL     1      -0.264  -7.170  -4.440  0.00  0.00    -0.275 OA
ATOM      9  N   UNL     1      -1.424  -6.631  -6.253  0.00  0.00    -0.298 N 
ATOM     10  C   UNL     1      -2.680  -6.145  -6.841  0.00  0.00    +0.126 C 
ATOM     11  C   UNL     1      -2.389  -4.859  -7.624  0.00  0.00    +0.125 C 
ATOM     12  N   UNL     1      -1.239  -5.097  -8.507  0.00  0.00    -0.314 N 
ATOM     13  C   UNL     1       0.017  -5.583  -7.919  0.00  0.00    +0.125 C 
ATOM     14  C   UNL     1      -0.272  -6.864  -7.135  0.00  0.00    +0.126 C 
ATOM     15  C   UNL     1      -1.337  -4.867  -9.875  0.00  0.00    +0.099 A 
ATOM     16  C   UNL     1      -2.487  -4.281 -10.394  0.00  0.00    +0.042 A 
ATOM     17  C   UNL     1      -2.571  -4.058 -11.757  0.00  0.00    +0.005 A 
ATOM     18  C   UNL     1      -1.499  -4.429 -12.557  0.00  0.00    +0.018 A 
ATOM     19  C   UNL     1      -0.389  -5.006 -11.974  0.00  0.00    +0.084 A 
ATOM     20  N   UNL     1      -0.333  -5.202 -10.670  0.00  0.00    -0.350 N 
ATOM     21  H   UNL     1       0.461  -5.606 -10.286  0.00  0.00    +0.166 HD
ENDBRANCH   6   7
BRANCH   1  23
ATOM     22  N   UNL     1      -0.684  -4.752  -1.444  0.00  0.00    -0.315 N 
ATOM     23  C   UNL     1      -1.187  -5.211  -2.607  0.00  0.00    +0.217 C 
ATOM     24  O   UNL     1      -0.895  -4.665  -3.651  0.00  0.00    -0.275 OA
ATOM     25  H   UNL     1      -0.917  -5.188  -0.609  0.00  0.00    +0.149 HD
BRANCH  22  26
ATOM     26  C   UNL     1       0.214  -3.594  -1.440  0.00  0.00    +0.109 C 
BRANCH  26  27
ATOM     27  C   UNL     1       0.637  -3.282  -0.003  0.00  0.00    +0.056 C 
BRANCH  27  34
ATOM     28  C   UNL     1      -0.098   1.347   0.046  0.00  0.00    +0.001 A 
ATOM     29  C   UNL     1       1.080   2.082   0.045  0.00  0.00    +0.002 A 
ATOM     30  C   UNL     1       2.303   1.448   0.030  0.00  0.00    +0.026 A 
ATOM     31  C   UNL     1       2.361   0.058   0.016  0.00  0.00    +0.047 A 
ATOM     32  C   UNL     1       1.165  -0.681   0.018  0.00  0.00    +0.003 A 
ATOM     33  C   UNL     1      -0.064  -0.018   0.033  0.00  0.00    +0.010 A 
ATOM     34  C   UNL     1       1.561  -2.092   0.001  0.00  0.00    -0.021 A 
ATOM     35  C   UNL     1       2.903  -2.122  -0.009  0.00  0.00    +0.087 A 
ATOM     36  N   UNL     1       3.399  -0.847  -0.000  0.00  0.00    -0.360 N 
ATOM     37  H   UNL     1       4.340  -0.615  -0.004  0.00  0.00    +0.165 HD
ENDBRANCH  27  34
ENDBRANCH  26  27
ENDBRANCH  22  26
ENDBRANCH   1  23
TORSDOF 5
