REMARK  Name = ZINC12832998
REMARK  13 active torsions:
REMARK  status: ('A' for Active; 'I' for Inactive)
REMARK    1  A    between atoms: C_1  and  C_2
REMARK    2  A    between atoms: C_2  and  C_3
REMARK    3  A    between atoms: C_3  and  C_4
REMARK    4  A    between atoms: C_3  and  C_5
REMARK    5  A    between atoms: C_3  and  N_6
REMARK    6  A    between atoms: C_7  and  C_11
REMARK    7  A    between atoms: C_11  and  N_65
REMARK    8  A    between atoms: C_12  and  C_13
REMARK    9  A    between atoms: C_12  and  N_65
REMARK   10  A    between atoms: C_20  and  C_21
REMARK   11  A    between atoms: C_20  and  N_65
REMARK   12  A    between atoms: C_25  and  C_34
REMARK   13  A    between atoms: C_27  and  C_33
REMARK                            x       y       z     vdW  Elec       q    Type
REMARK                         _______ _______ _______ _____ _____    ______ ____
ROOT
ATOM      1  N   UNL     1      -1.545   7.905  -1.251  0.00  0.00    +0.390 N 
ATOM      2  H   UNL     1      -2.325   7.507  -1.787  0.00  0.00    -0.080 HD
ENDROOT
BRANCH   1   3
ATOM      3  C   UNL     1      -1.680   9.376  -1.226  0.00  0.00    +0.001 C 
BRANCH   3   5
ATOM      4  N   UNL     1      -1.750  11.027  -3.169  0.00  0.00    -0.226 N 
ATOM      5  C   UNL     1      -2.072   9.849  -2.602  0.00  0.00    +0.136 A 
ATOM      6  N   UNL     1      -2.797   9.196  -3.477  0.00  0.00    -0.115 NA
ATOM      7  N   UNL     1      -2.910   9.932  -4.528  0.00  0.00    -0.023 NA
ATOM      8  N   UNL     1      -2.276  11.037  -4.347  0.00  0.00    -0.043 NA
BRANCH   4   9
ATOM      9  C   UNL     1      -0.950  12.094  -2.563  0.00  0.00    +0.061 C 
ATOM     10  C   UNL     1      -1.550  12.476  -1.209  0.00  0.00    +0.036 C 
ATOM     11  C   UNL     1       0.486  11.605  -2.365  0.00  0.00    +0.036 C 
BRANCH   9  13
ATOM     12  C   UNL     1      -0.114  14.431  -2.851  0.00  0.00    +0.006 C 
ATOM     13  C   UNL     1      -0.950  13.316  -3.484  0.00  0.00    +0.026 C 
ENDBRANCH   9  13
ENDBRANCH   4   9
ENDBRANCH   3   5
ENDBRANCH   1   3
BRANCH   1  14
ATOM     14  C   UNL     1      -0.273   7.526  -1.902  0.00  0.00    -0.042 C 
BRANCH  14  15
ATOM     15  C   UNL     1      -0.423   7.697  -3.392  0.00  0.00    -0.064 A 
ATOM     16  C   UNL     1      -1.036   6.710  -4.142  0.00  0.00    +0.004 A 
ATOM     17  C   UNL     1      -1.179   6.868  -5.507  0.00  0.00    +0.038 A 
ATOM     18  C   UNL     1      -0.698   8.010  -6.126  0.00  0.00    +0.123 A 
ATOM     19  C   UNL     1      -0.079   8.994  -5.374  0.00  0.00    +0.038 A 
ATOM     20  C   UNL     1       0.058   8.837  -4.008  0.00  0.00    +0.004 A 
ATOM     21  F   UNL     1      -0.832   8.163  -7.461  0.00  0.00    -0.205 F 
ENDBRANCH  14  15
ENDBRANCH   1  14
BRANCH   1  22
ATOM     22  C   UNL     1      -1.586   7.370   0.126  0.00  0.00    -0.036 C 
BRANCH  22  23
ATOM     23  C   UNL     1      -1.570   5.864   0.065  0.00  0.00    +0.001 A 
ATOM     24  C   UNL     1      -0.406   5.193   0.251  0.00  0.00    +0.017 A 
ATOM     25  C   UNL     1      -0.424   3.731   0.185  0.00  0.00    -0.001 A 
ATOM     26  C   UNL     1       0.745   2.984   0.369  0.00  0.00    +0.013 A 
ATOM     27  C   UNL     1       0.694   1.620   0.302  0.00  0.00    -0.050 A 
ATOM     28  C   UNL     1      -0.506   0.969   0.053  0.00  0.00    +0.008 A 
ATOM     29  C   UNL     1      -1.668   1.685  -0.137  0.00  0.00    -0.026 A 
ATOM     30  C   UNL     1      -1.643   3.074  -0.067  0.00  0.00    +0.052 A 
ATOM     31  N   UNL     1      -2.792   3.814  -0.247  0.00  0.00    -0.322 N 
ATOM     32  H   UNL     1      -3.631   3.360  -0.421  0.00  0.00    +0.169 HD
ATOM     33  C   UNL     1      -2.765   5.157  -0.185  0.00  0.00    +0.251 A 
ATOM     34  O   UNL     1      -3.800   5.780  -0.349  0.00  0.00    -0.268 OA
ATOM     35  C   UNL     1      -2.963   0.965  -0.412  0.00  0.00    +0.046 C 
ATOM     36  C   UNL     1       1.953   0.816   0.501  0.00  0.00    +0.044 C 
ENDBRANCH  22  23
ENDBRANCH   1  22
TORSDOF 8
