REMARK  Name = ZINC39658499
REMARK  15 active torsions:
REMARK  status: ('A' for Active; 'I' for Inactive)
REMARK    1  A    between atoms: C_1  and  C_2
REMARK    2  A    between atoms: C_5  and  N_8
REMARK    3  A    between atoms: C_9  and  C_36
REMARK    4  A    between atoms: C_10  and  N_14
REMARK    5  A    between atoms: C_11  and  C_13
REMARK    6  A    between atoms: C_15  and  C_17
REMARK    7  A    between atoms: C_17  and  O_18
REMARK    8  A    between atoms: O_18  and  C_19
REMARK    9  A    between atoms: C_19  and  C_21
REMARK   10  A    between atoms: C_21  and  C_23
REMARK   11  A    between atoms: C_21  and  N_26
REMARK   12  A    between atoms: C_23  and  C_24
REMARK   13  A    between atoms: C_23  and  C_25
REMARK   14  A    between atoms: C_27  and  C_29
REMARK   15  A    between atoms: C_33  and  C_35
REMARK                            x       y       z     vdW  Elec       q    Type
REMARK                         _______ _______ _______ _____ _____    ______ ____
ROOT
ATOM      1  C   UNL     1       1.088  -9.627   2.071  0.00  0.00    +0.328 C 
ENDROOT
BRANCH   1   3
ATOM      2  N   UNL     1       1.101  -7.275   1.306  0.00  0.00    -0.280 N 
ATOM      3  C   UNL     1       0.562  -8.506   1.212  0.00  0.00    +0.255 C 
ATOM      4  O   UNL     1      -0.347  -8.712   0.436  0.00  0.00    -0.272 OA
ATOM      5  H   UNL     1       1.875  -7.126   1.871  0.00  0.00    +0.155 HD
BRANCH   2   8
ATOM      6  N   UNL     1      -0.561  -4.378   0.074  0.00  0.00    -0.235 N 
ATOM      7  C   UNL     1      -0.224  -5.207   1.099  0.00  0.00    +0.063 A 
ATOM      8  C   UNL     1       0.541  -6.204   0.585  0.00  0.00    +0.078 A 
ATOM      9  C   UNL     1       0.673  -5.977  -0.793  0.00  0.00    +0.082 A 
ATOM     10  N   UNL     1       0.011  -4.890  -1.098  0.00  0.00    -0.170 NA
ATOM     11  C   UNL     1       1.443  -6.841  -1.759  0.00  0.00    +0.069 C 
ATOM     12  C   UNL     1      -0.625  -5.046   2.543  0.00  0.00    +0.068 C 
BRANCH   6  17
ATOM     13  C   UNL     1      -3.741   0.306   0.468  0.00  0.00    +0.044 C 
ATOM     14  C   UNL     1      -2.896  -0.938   0.363  0.00  0.00    -0.050 A 
ATOM     15  C   UNL     1      -1.848  -0.987  -0.537  0.00  0.00    +0.005 A 
ATOM     16  C   UNL     1      -1.073  -2.125  -0.636  0.00  0.00    +0.028 A 
ATOM     17  C   UNL     1      -1.346  -3.221   0.171  0.00  0.00    +0.066 A 
ATOM     18  C   UNL     1      -2.398  -3.169   1.075  0.00  0.00    +0.028 A 
ATOM     19  C   UNL     1      -3.167  -2.026   1.173  0.00  0.00    +0.005 A 
ENDBRANCH   6  17
ENDBRANCH   2   8
ENDBRANCH   1   3
BRANCH   1  20
ATOM     20  O   UNL     1       0.360 -10.824   1.790  0.00  0.00    -0.454 OA
BRANCH  20  21
ATOM     21  C   UNL     1       0.708 -11.924   2.476  0.00  0.00    +0.328 C 
ATOM     22  O   UNL     1       1.601 -11.872   3.288  0.00  0.00    -0.249 OA
BRANCH  21  23
ATOM     23  C   UNL     1      -0.015 -13.224   2.233  0.00  0.00    +0.185 C 
BRANCH  23  24
ATOM     24  N   UNL     1       0.547 -14.264   3.098  0.00  0.00    -0.298 N 
ATOM     25  C   UNL     1       0.450 -15.561   2.743  0.00  0.00    +0.245 C 
ATOM     26  O   UNL     1      -0.104 -15.867   1.706  0.00  0.00    -0.270 OA
ATOM     27  H   UNL     1       0.989 -14.020   3.926  0.00  0.00    +0.150 HD
BRANCH  25  28
ATOM     28  C   UNL     1       1.017 -16.611   3.616  0.00  0.00    +0.037 A 
ATOM     29  C   UNL     1       1.648 -16.263   4.812  0.00  0.00    +0.013 A 
ATOM     30  C   UNL     1       2.175 -17.247   5.622  0.00  0.00    +0.001 A 
ATOM     31  C   UNL     1       2.079 -18.577   5.252  0.00  0.00    +0.003 A 
ATOM     32  C   UNL     1       1.454 -18.929   4.069  0.00  0.00    -0.050 A 
ATOM     33  C   UNL     1       0.918 -17.954   3.252  0.00  0.00    +0.016 A 
ATOM     34  C   UNL     1       1.354 -20.380   3.673  0.00  0.00    +0.044 C 
ENDBRANCH  25  28
ENDBRANCH  23  24
BRANCH  23  35
ATOM     35  C   UNL     1      -1.502 -13.047   2.548  0.00  0.00    +0.014 C 
ATOM     36  C   UNL     1      -1.661 -12.517   3.974  0.00  0.00    +0.009 C 
ATOM     37  C   UNL     1      -2.117 -12.052   1.562  0.00  0.00    +0.009 C 
ENDBRANCH  23  35
ENDBRANCH  21  23
ENDBRANCH  20  21
ENDBRANCH   1  20
TORSDOF 9
