REMARK  Name = ZINC36548487
REMARK  7 active torsions:
REMARK  status: ('A' for Active; 'I' for Inactive)
REMARK    1  A    between atoms: C_5  and  N_7
REMARK    2  A    between atoms: N_7  and  C_8
REMARK    3  A    between atoms: C_8  and  C_10
REMARK    4  A    between atoms: C_8  and  C_19
REMARK    5  A    between atoms: C_13  and  N_16
REMARK    6  A    between atoms: N_21  and  C_22
REMARK    7  A    between atoms: C_28  and  C_30
REMARK                            x       y       z     vdW  Elec       q    Type
REMARK                         _______ _______ _______ _____ _____    ______ ____
ROOT
ATOM      1  C   UNL     1       1.582  -3.482  -1.081  0.00  0.00    +0.197 C 
ENDROOT
BRANCH   1   2
ATOM      2  C   UNL     1       0.522  -2.620  -1.717  0.00  0.00    -0.018 A 
ATOM      3  C   UNL     1       0.427  -1.282  -1.382  0.00  0.00    +0.008 A 
ATOM      4  C   UNL     1      -0.545  -0.491  -1.965  0.00  0.00    +0.033 A 
ATOM      5  C   UNL     1      -1.422  -1.038  -2.883  0.00  0.00    +0.126 A 
ATOM      6  C   UNL     1      -1.326  -2.375  -3.219  0.00  0.00    +0.033 A 
ATOM      7  C   UNL     1      -0.351  -3.165  -2.639  0.00  0.00    +0.008 A 
BRANCH   5   8
ATOM      8  N   UNL     1      -2.463  -0.191  -3.507  0.00  0.00    +0.056 N 
ATOM      9  O   UNL     1      -2.547   0.979  -3.213  0.00  0.00    -0.126 OA
ATOM     10  O   UNL     1      -3.230  -0.669  -4.310  0.00  0.00    -0.126 OA
ENDBRANCH   5   8
ENDBRANCH   1   2
BRANCH   1  11
ATOM     11  C   UNL     1       2.921  -3.167  -1.696  0.00  0.00    +0.239 C 
ATOM     12  O   UNL     1       3.529  -2.175  -1.351  0.00  0.00    -0.273 OA
ATOM     13  N   UNL     1       3.445  -3.987  -2.629  0.00  0.00    -0.311 N 
ATOM     14  H   UNL     1       2.959  -4.780  -2.905  0.00  0.00    +0.149 HD
BRANCH  13  15
ATOM     15  C   UNL     1       4.747  -3.681  -3.226  0.00  0.00    +0.073 C 
ATOM     16  C   UNL     1       4.556  -2.712  -4.395  0.00  0.00    +0.022 C 
ATOM     17  C   UNL     1       5.916  -2.392  -5.019  0.00  0.00    +0.002 C 
ATOM     18  C   UNL     1       6.561  -3.683  -5.526  0.00  0.00    +0.000 C 
ATOM     19  C   UNL     1       6.752  -4.652  -4.357  0.00  0.00    +0.002 C 
ATOM     20  C   UNL     1       5.392  -4.972  -3.733  0.00  0.00    +0.022 C 
ENDBRANCH  13  15
ENDBRANCH   1  11
BRANCH   1  21
ATOM     21  N   UNL     1       1.630  -3.215   0.358  0.00  0.00    -0.252 N 
ATOM     22  C   UNL     1       0.553  -3.470   1.127  0.00  0.00    +0.241 C 
ATOM     23  O   UNL     1       0.561  -3.167   2.302  0.00  0.00    -0.273 OA
BRANCH  21  28
ATOM     24  C   UNL     1       4.045  -0.825   1.764  0.00  0.00    +0.002 A 
ATOM     25  C   UNL     1       5.098  -1.667   2.074  0.00  0.00    +0.002 A 
ATOM     26  C   UNL     1       5.003  -3.022   1.816  0.00  0.00    +0.022 A 
ATOM     27  C   UNL     1       3.854  -3.539   1.247  0.00  0.00    +0.062 A 
ATOM     28  C   UNL     1       2.795  -2.695   0.935  0.00  0.00    +0.056 A 
ATOM     29  C   UNL     1       2.895  -1.335   1.196  0.00  0.00    +0.025 A 
ATOM     30 CL   UNL     1       3.735  -5.240   0.922  0.00  0.00    -0.082 Cl
ENDBRANCH  21  28
BRANCH  22  31
ATOM     31  C   UNL     1      -0.661  -4.133   0.528  0.00  0.00    +0.160 C 
ATOM     32  C   UNL     1      -1.728  -3.074   0.176  0.00  0.00    +0.041 C 
ATOM     33  C   UNL     1      -2.604  -3.072   1.450  0.00  0.00    +0.098 C 
ATOM     34  C   UNL     1      -2.386  -4.443   2.052  0.00  0.00    +0.214 C 
ATOM     35  O   UNL     1      -3.093  -4.952   2.896  0.00  0.00    -0.276 OA
ATOM     36  N   UNL     1      -1.294  -5.018   1.513  0.00  0.00    -0.304 N 
ATOM     37  H   UNL     1      -0.968  -5.901   1.745  0.00  0.00    +0.149 HD
ENDBRANCH  22  31
ENDBRANCH   1  21
TORSDOF 7
