REMARK  Name = ZINC33959478
REMARK  11 active torsions:
REMARK  status: ('A' for Active; 'I' for Inactive)
REMARK    1  A    between atoms: C_4  and  C_7
REMARK    2  A    between atoms: N_9  and  C_10
REMARK    3  A    between atoms: C_10  and  C_11
REMARK    4  A    between atoms: C_11  and  C_12
REMARK    5  A    between atoms: C_12  and  C_13
REMARK    6  A    between atoms: C_13  and  C_14
REMARK    7  A    between atoms: C_14  and  C_16
REMARK    8  A    between atoms: C_14  and  N_33
REMARK    9  A    between atoms: N_18  and  N_19
REMARK   10  A    between atoms: C_20  and  C_21
REMARK   11  A    between atoms: C_24  and  C_26
REMARK                            x       y       z     vdW  Elec       q    Type
REMARK                         _______ _______ _______ _____ _____    ______ ____
ROOT
ATOM      1  C   UNL     1       7.208  -7.155  -0.036  0.00  0.00    +0.145 C 
ENDROOT
BRANCH   1   2
ATOM      2  N   UNL     1       7.828  -6.880   1.267  0.00  0.00    -0.287 NA
ATOM      3  C   UNL     1       7.793  -5.443   1.575  0.00  0.00    +0.113 C 
ATOM      4  C   UNL     1       8.393  -5.209   2.963  0.00  0.00    +0.175 C 
ATOM      5  O   UNL     1       9.722  -5.737   2.998  0.00  0.00    -0.377 OA
ATOM      6  C   UNL     1       9.793  -7.135   2.703  0.00  0.00    +0.175 C 
ATOM      7  C   UNL     1       9.207  -7.389   1.312  0.00  0.00    +0.113 C 
ENDBRANCH   1   2
BRANCH   1   8
ATOM      8  C   UNL     1       7.092  -8.645  -0.233  0.00  0.00    +0.249 C 
ATOM      9  O   UNL     1       7.135  -9.388   0.725  0.00  0.00    -0.272 OA
ATOM     10  N   UNL     1       6.939  -9.151  -1.472  0.00  0.00    -0.206 N 
ATOM     11  H   UNL     1       6.904  -8.556  -2.238  0.00  0.00    +0.177 HD
BRANCH  10  12
ATOM     12  N   UNL     1       6.831 -10.536  -1.655  0.00  0.00    -0.185 NA
ATOM     13  C   UNL     1       6.684 -11.024  -2.853  0.00  0.00    +0.176 C 
BRANCH  13  14
ATOM     14  C   UNL     1       6.571 -12.472  -3.044  0.00  0.00    +0.148 A 
ATOM     15  C   UNL     1       6.418 -13.118  -4.251  0.00  0.00    +0.051 A 
ATOM     16  C   UNL     1       6.354 -14.489  -3.969  0.00  0.00    +0.050 A 
ATOM     17  C   UNL     1       6.469 -14.627  -2.618  0.00  0.00    +0.136 A 
ATOM     18  O   UNL     1       6.605 -13.404  -2.070  0.00  0.00    -0.454 OA
BRANCH  17  19
ATOM     19  C   UNL     1       6.453 -15.904  -1.877  0.00  0.00    +0.017 A 
ATOM     20  C   UNL     1       6.316 -17.112  -2.566  0.00  0.00    +0.013 A 
ATOM     21  C   UNL     1       6.303 -18.301  -1.869  0.00  0.00    +0.021 A 
ATOM     22  C   UNL     1       6.424 -18.300  -0.489  0.00  0.00    +0.041 A 
ATOM     23  C   UNL     1       6.559 -17.106   0.199  0.00  0.00    +0.021 A 
ATOM     24  C   UNL     1       6.580 -15.910  -0.486  0.00  0.00    +0.013 A 
ATOM     25 CL   UNL     1       6.405 -19.802   0.381  0.00  0.00    -0.084 Cl
ENDBRANCH  17  19
ENDBRANCH  13  14
ENDBRANCH  10  12
ENDBRANCH   1   8
BRANCH   1  26
ATOM     26  C   UNL     1       5.815  -6.524  -0.081  0.00  0.00    +0.028 C 
BRANCH  26  27
ATOM     27  C   UNL     1       4.966  -7.082   1.064  0.00  0.00    +0.004 C 
BRANCH  27  28
ATOM     28  C   UNL     1       3.617  -6.360   1.096  0.00  0.00    +0.019 C 
BRANCH  28  29
ATOM     29  C   UNL     1       2.768  -6.917   2.241  0.00  0.00    +0.104 C 
BRANCH  29  32
ATOM     30  C   UNL     1       0.559  -6.554   3.204  0.00  0.00    +0.244 C 
ATOM     31  O   UNL     1       0.804  -7.422   4.018  0.00  0.00    -0.270 OA
ATOM     32  N   UNL     1       1.476  -6.226   2.272  0.00  0.00    -0.311 N 
ATOM     33  H   UNL     1       1.281  -5.533   1.622  0.00  0.00    +0.149 HD
BRANCH  30  37
ATOM     34  C   UNL     1      -3.185  -4.550   3.295  0.00  0.00    +0.000 A 
ATOM     35  C   UNL     1      -2.910  -5.539   4.223  0.00  0.00    +0.001 A 
ATOM     36  C   UNL     1      -1.696  -6.193   4.199  0.00  0.00    +0.013 A 
ATOM     37  C   UNL     1      -0.744  -5.857   3.235  0.00  0.00    +0.037 A 
ATOM     38  C   UNL     1      -1.028  -4.859   2.302  0.00  0.00    +0.013 A 
ATOM     39  C   UNL     1      -2.246  -4.212   2.337  0.00  0.00    +0.001 A 
ENDBRANCH  30  37
ENDBRANCH  29  32
ENDBRANCH  28  29
ENDBRANCH  27  28
ENDBRANCH  26  27
ENDBRANCH   1  26
TORSDOF 11
