REMARK  Name = ZINC38597779
REMARK  9 active torsions:
REMARK  status: ('A' for Active; 'I' for Inactive)
REMARK    1  A    between atoms: C_1  and  C_2
REMARK    2  A    between atoms: C_2  and  C_4
REMARK    3  A    between atoms: C_7  and  S_10
REMARK    4  A    between atoms: S_10  and  N_13
REMARK    5  A    between atoms: N_13  and  C_14
REMARK    6  A    between atoms: C_14  and  C_15
REMARK    7  A    between atoms: C_15  and  C_17
REMARK    8  A    between atoms: C_15  and  N_22
REMARK    9  A    between atoms: N_25  and  C_28
REMARK                            x       y       z     vdW  Elec       q    Type
REMARK                         _______ _______ _______ _____ _____    ______ ____
ROOT
ATOM      1  C   UNL     1       3.662  -4.493  -5.662  0.00  0.00    +0.015 C 
ENDROOT
BRANCH   1   2
ATOM      2  N   UNL     1       3.471  -4.947  -7.046  0.00  0.00    +0.389 N 
ATOM      3  C   UNL     1       2.829  -6.267  -7.043  0.00  0.00    -0.059 C 
ATOM      4  C   UNL     1       2.526  -6.690  -8.484  0.00  0.00    +0.086 C 
ATOM      5  N   UNL     1       3.773  -6.624  -9.261  0.00  0.00    -0.333 N 
ATOM      6  C   UNL     1       4.569  -5.389  -9.191  0.00  0.00    +0.086 C 
ATOM      7  C   UNL     1       4.775  -5.027  -7.717  0.00  0.00    -0.059 C 
ATOM      8  H   UNL     1       2.883  -4.290  -7.536  0.00  0.00    -0.081 HD
BRANCH   5   9
ATOM      9  C   UNL     1       4.190  -7.705 -10.045  0.00  0.00    +0.030 A 
ATOM     10  C   UNL     1       3.368  -8.814 -10.193  0.00  0.00    +0.026 A 
ATOM     11  C   UNL     1       3.782  -9.880 -10.968  0.00  0.00    +0.040 A 
ATOM     12  C   UNL     1       5.015  -9.843 -11.596  0.00  0.00    +0.124 A 
ATOM     13  C   UNL     1       5.836  -8.738 -11.450  0.00  0.00    +0.040 A 
ATOM     14  C   UNL     1       5.424  -7.667 -10.681  0.00  0.00    +0.026 A 
ATOM     15  F   UNL     1       5.418 -10.887 -12.353  0.00  0.00    -0.205 F 
ENDBRANCH   5   9
ENDBRANCH   1   2
BRANCH   1  16
ATOM     16  C   UNL     1       4.615  -5.422  -4.956  0.00  0.00    +0.093 A 
ATOM     17  C   UNL     1       5.676  -5.048  -4.218  0.00  0.00    +0.043 A 
ATOM     18  C   UNL     1       6.285  -6.233  -3.746  0.00  0.00    +0.041 A 
ATOM     19  C   UNL     1       5.560  -7.261  -4.224  0.00  0.00    +0.195 A 
ATOM     20  O   UNL     1       4.546  -6.763  -4.951  0.00  0.00    -0.469 OA
ENDBRANCH   1  16
BRANCH   1  21
ATOM     21  C   UNL     1       2.315  -4.495  -4.936  0.00  0.00    +0.098 C 
BRANCH  21  22
ATOM     22  N   UNL     1       1.366  -3.650  -5.664  0.00  0.00    -0.191 NA
ATOM     23  H   UNL     1       1.684  -3.046  -6.353  0.00  0.00    +0.148 HD
BRANCH  22  24
ATOM     24  S   UNL     1      -0.250  -3.726  -5.311  0.00  0.00    +0.058 S 
ATOM     25  O   UNL     1      -0.600  -5.103  -5.302  0.00  0.00    -0.153 OA
ATOM     26  O   UNL     1      -0.895  -2.782  -6.155  0.00  0.00    -0.153 OA
BRANCH  24  30
ATOM     27  C   UNL     1      -0.766  -2.229  -1.065  0.00  0.00    +0.017 A 
ATOM     28  C   UNL     1      -0.830  -1.335  -2.138  0.00  0.00    +0.013 A 
ATOM     29  C   UNL     1      -0.672  -1.798  -3.427  0.00  0.00    +0.029 A 
ATOM     30  C   UNL     1      -0.451  -3.144  -3.660  0.00  0.00    +0.105 A 
ATOM     31  C   UNL     1      -0.387  -4.036  -2.604  0.00  0.00    +0.029 A 
ATOM     32  C   UNL     1      -0.538  -3.587  -1.308  0.00  0.00    +0.013 A 
BRANCH  27  34
ATOM     33  C   UNL     1      -1.180  -0.279   0.573  0.00  0.00    +0.091 C 
ATOM     34  C   UNL     1      -0.933  -1.743   0.315  0.00  0.00    +0.160 C 
ATOM     35  O   UNL     1      -0.873  -2.521   1.243  0.00  0.00    -0.292 OA
ENDBRANCH  27  34
ENDBRANCH  24  30
ENDBRANCH  22  24
ENDBRANCH  21  22
ENDBRANCH   1  21
TORSDOF 8
