REMARK  Name = ZINC65995266
REMARK  9 active torsions:
REMARK  status: ('A' for Active; 'I' for Inactive)
REMARK    1  A    between atoms: C_1  and  C_2
REMARK    2  A    between atoms: C_2  and  N_3
REMARK    3  A    between atoms: N_3  and  C_4
REMARK    4  A    between atoms: C_4  and  C_5
REMARK    5  A    between atoms: C_4  and  C_6
REMARK    6  A    between atoms: N_15  and  C_16
REMARK    7  A    between atoms: C_16  and  C_17
REMARK    8  A    between atoms: C_16  and  C_18
REMARK    9  A    between atoms: C_22  and  N_24
REMARK                            x       y       z     vdW  Elec       q    Type
REMARK                         _______ _______ _______ _____ _____    ______ ____
ROOT
ATOM      1  N   UNL     1       0.572  -0.507  -1.300  0.00  0.00    -0.279 N 
ATOM      2  C   UNL     1      -0.148  -0.541  -2.438  0.00  0.00    +0.303 C 
ATOM      3  O   UNL     1       0.391  -0.821  -3.491  0.00  0.00    -0.253 OA
ATOM      4  N   UNL     1      -1.467  -0.266  -2.409  0.00  0.00    -0.293 N 
ATOM      5  H   UNL     1      -1.898  -0.042  -1.569  0.00  0.00    +0.151 HD
ENDROOT
BRANCH   1   7
ATOM      6  C   UNL     1      -0.120   1.351   0.132  0.00  0.00    +0.024 C 
ATOM      7  C   UNL     1      -0.078  -0.170  -0.031  0.00  0.00    +0.106 C 
ENDBRANCH   1   7
BRANCH   1   8
ATOM      8  C   UNL     1       2.006  -0.806  -1.332  0.00  0.00    +0.105 C 
ATOM      9  C   UNL     1       2.565  -0.774   0.092  0.00  0.00    +0.033 C 
BRANCH   8  10
ATOM     10  C   UNL     1       2.716   0.222  -2.174  0.00  0.00    -0.027 A 
ATOM     11  C   UNL     1       2.312   1.544  -2.136  0.00  0.00    +0.008 A 
ATOM     12  C   UNL     1       2.962   2.488  -2.908  0.00  0.00    +0.038 A 
ATOM     13  C   UNL     1       4.019   2.110  -3.719  0.00  0.00    +0.123 A 
ATOM     14  C   UNL     1       4.423   0.786  -3.756  0.00  0.00    +0.038 A 
ATOM     15  C   UNL     1       3.774  -0.156  -2.979  0.00  0.00    +0.008 A 
ATOM     16  F   UNL     1       4.655   3.032  -4.474  0.00  0.00    -0.205 F 
ENDBRANCH   8  10
ENDBRANCH   1   8
BRANCH   4  17
ATOM     17  C   UNL     1      -2.251  -0.303  -3.647  0.00  0.00    +0.102 C 
ATOM     18  C   UNL     1      -2.706  -1.738  -3.919  0.00  0.00    +0.033 C 
BRANCH  17  19
ATOM     19  C   UNL     1      -3.458   0.589  -3.504  0.00  0.00    -0.026 A 
ATOM     20  C   UNL     1      -4.153   0.624  -2.309  0.00  0.00    +0.005 A 
ATOM     21  C   UNL     1      -5.260   1.441  -2.175  0.00  0.00    +0.002 A 
ATOM     22  C   UNL     1      -5.676   2.223  -3.234  0.00  0.00    +0.023 A 
ATOM     23  C   UNL     1      -4.980   2.190  -4.435  0.00  0.00    +0.040 A 
ATOM     24  C   UNL     1      -3.865   1.373  -4.565  0.00  0.00    +0.029 A 
BRANCH  23  25
ATOM     25  N   UNL     1      -5.399   2.982  -5.510  0.00  0.00    -0.234 N 
ATOM     26  C   UNL     1      -6.553   3.903  -5.516  0.00  0.00    +0.158 C 
ATOM     27  C   UNL     1      -6.290   4.749  -6.784  0.00  0.00    +0.253 C 
ATOM     28  O   UNL     1      -5.464   3.866  -7.568  0.00  0.00    -0.448 OA
ATOM     29  C   UNL     1      -4.818   3.045  -6.723  0.00  0.00    +0.407 C 
ATOM     30  O   UNL     1      -3.819   2.422  -7.023  0.00  0.00    -0.226 OA
ENDBRANCH  23  25
ENDBRANCH  17  19
ENDBRANCH   4  17
TORSDOF 6
