REMARK  Name = ZINC32604670
REMARK  11 active torsions:
REMARK  status: ('A' for Active; 'I' for Inactive)
REMARK    1  A    between atoms: C_1  and  C_2
REMARK    2  A    between atoms: C_2  and  C_3
REMARK    3  A    between atoms: C_2  and  C_4
REMARK    4  A    between atoms: C_4  and  C_5
REMARK    5  A    between atoms: C_5  and  S_6
REMARK    6  A    between atoms: S_6  and  C_7
REMARK    7  A    between atoms: C_16  and  C_20
REMARK    8  A    between atoms: C_20  and  C_21
REMARK    9  A    between atoms: C_20  and  C_22
REMARK   10  A    between atoms: C_20  and  C_23
REMARK   11  A    between atoms: N_26  and  C_27
REMARK                            x       y       z     vdW  Elec       q    Type
REMARK                         _______ _______ _______ _____ _____    ______ ____
ROOT
ATOM      1  C   UNL     1       1.296   4.717   0.123  0.00  0.00    +0.227 C 
ATOM      2  N   UNL     1       0.218   5.016   1.083  0.00  0.00    -0.311 N 
ATOM      3  C   UNL     1      -0.914   4.251   0.997  0.00  0.00    +0.080 A 
ATOM      4  C   UNL     1      -1.297   3.583  -0.176  0.00  0.00    +0.069 A 
ATOM      5  C   UNL     1      -2.532   2.819  -0.097  0.00  0.00    -0.023 A 
ATOM      6  C   UNL     1      -3.160   2.846   1.100  0.00  0.00    -0.004 A 
ATOM      7  S   UNL     1      -2.141   3.869   2.130  0.00  0.00    -0.078 S 
ATOM      8  C   UNL     1      -4.438   2.157   1.467  0.00  0.00    +0.046 C 
ATOM      9  C   UNL     1      -4.746   1.104   0.393  0.00  0.00    -0.000 C 
ATOM     10  C   UNL     1      -4.589   1.749  -0.987  0.00  0.00    +0.009 C 
ATOM     11  C   UNL     1      -3.111   2.030  -1.265  0.00  0.00    +0.037 C 
ATOM     12  C   UNL     1      -0.416   3.717  -1.359  0.00  0.00    +0.256 C 
ATOM     13  O   UNL     1      -0.735   3.262  -2.442  0.00  0.00    -0.269 OA
ATOM     14  N   UNL     1       0.755   4.365  -1.186  0.00  0.00    -0.239 N 
ATOM     15  H   UNL     1       0.347   5.822   1.821  0.00  0.00    +0.149 HD
ENDROOT
BRANCH  14  16
ATOM     16  C   UNL     1       1.489   4.719  -2.323  0.00  0.00    +0.039 A 
ATOM     17  C   UNL     1       1.287   5.954  -2.926  0.00  0.00    +0.023 A 
ATOM     18  C   UNL     1       2.018   6.302  -4.044  0.00  0.00    +0.002 A 
ATOM     19  C   UNL     1       2.942   5.418  -4.571  0.00  0.00    +0.000 A 
ATOM     20  C   UNL     1       3.142   4.186  -3.976  0.00  0.00    +0.002 A 
ATOM     21  C   UNL     1       2.418   3.834  -2.854  0.00  0.00    +0.023 A 
ENDBRANCH  14  16
BRANCH   9  22
ATOM     22  C   UNL     1      -6.181   0.602   0.564  0.00  0.00    -0.035 C 
ATOM     23  C   UNL     1      -6.492  -0.433  -0.520  0.00  0.00    +0.011 C 
ATOM     24  C   UNL     1      -6.335  -0.042   1.943  0.00  0.00    +0.011 C 
ATOM     25  C   UNL     1      -7.152   1.778   0.439  0.00  0.00    +0.011 C 
ENDBRANCH   9  22
BRANCH   1  26
ATOM     26  S   UNL     1       2.282   3.329   0.750  0.00  0.00    -0.119 S 
BRANCH  26  27
ATOM     27  C   UNL     1       1.093   1.963   0.865  0.00  0.00    +0.073 C 
BRANCH  27  28
ATOM     28  C   UNL     1       1.803   0.713   1.389  0.00  0.00    +0.014 C 
BRANCH  28  30
ATOM     29  C   UNL     1       0.311  -0.809   0.084  0.00  0.00    +0.007 C 
ATOM     30  C   UNL     1       0.801  -0.439   1.486  0.00  0.00    -0.016 C 
ATOM     31  C   UNL     1       1.479  -1.653   2.125  0.00  0.00    +0.007 C 
ENDBRANCH  28  30
ENDBRANCH  27  28
ENDBRANCH  26  27
ENDBRANCH   1  26
TORSDOF 6
