REMARK  Name = ZINC50906986
REMARK  8 active torsions:
REMARK  status: ('A' for Active; 'I' for Inactive)
REMARK    1  A    between atoms: C_1  and  C_2
REMARK    2  A    between atoms: C_2  and  C_3
REMARK    3  A    between atoms: C_3  and  C_4
REMARK    4  A    between atoms: C_10  and  C_12
REMARK    5  A    between atoms: C_12  and  C_13
REMARK    6  A    between atoms: C_12  and  C_14
REMARK    7  A    between atoms: C_12  and  C_15
REMARK    8  A    between atoms: N_16  and  O_17
REMARK                            x       y       z     vdW  Elec       q    Type
REMARK                         _______ _______ _______ _____ _____    ______ ____
ROOT
ATOM      1  C   UNL     1       0.763  -2.034   0.818  0.00  0.00    -0.008 C 
ATOM      2  C   UNL     1       1.972  -2.738   1.439  0.00  0.00    +0.022 C 
ATOM      3  C   UNL     1       1.898  -4.237   1.129  0.00  0.00    +0.108 C 
ATOM      4  N   UNL     1       1.777  -4.414  -0.324  0.00  0.00    -0.301 N 
ATOM      5  C   UNL     1       0.703  -3.708  -1.035  0.00  0.00    +0.108 C 
ATOM      6  C   UNL     1       0.789  -2.215  -0.701  0.00  0.00    +0.022 C 
ATOM      7  C   UNL     1       2.636  -5.210  -0.993  0.00  0.00    +0.228 C 
ATOM      8  O   UNL     1       2.471  -5.420  -2.176  0.00  0.00    -0.275 OA
ENDROOT
BRANCH   7   9
ATOM      9  C   UNL     1       3.800  -5.837  -0.270  0.00  0.00    +0.100 C 
ATOM     10  C   UNL     1       4.667  -4.740   0.350  0.00  0.00    +0.028 C 
ATOM     11  C   UNL     1       3.278  -6.760   0.833  0.00  0.00    +0.028 C 
BRANCH   9  12
ATOM     12  C   UNL     1       4.624  -6.637  -1.246  0.00  0.00    +0.146 C 
ATOM     13  N   UNL     1       5.866  -6.339  -1.439  0.00  0.00    -0.076 NA
ATOM     14  N   UNL     1       4.053  -7.686  -1.932  0.00  0.00    -0.343 N 
ATOM     15  H   UNL     1       3.120  -7.910  -1.787  0.00  0.00    +0.144 HD
ATOM     16  H   UNL     1       4.583  -8.201  -2.560  0.00  0.00    +0.144 HD
BRANCH  13  17
ATOM     17  O   UNL     1       6.641  -7.091  -2.356  0.00  0.00    -0.408 OA
ATOM     18  H   UNL     1       7.557  -6.794  -2.432  0.00  0.00    +0.328 HD
ENDBRANCH  13  17
ENDBRANCH   9  12
ENDBRANCH   7   9
BRANCH   1  19
ATOM     19  C   UNL     1       0.814  -0.542   1.155  0.00  0.00    +0.003 C 
BRANCH  19  21
ATOM     20  C   UNL     1       0.714   1.137   3.002  0.00  0.00    +0.004 C 
ATOM     21  C   UNL     1       0.663  -0.354   2.666  0.00  0.00    -0.003 C 
ENDBRANCH  19  21
ENDBRANCH   1  19
TORSDOF 5
