REMARK  Name = ZINC38532848
REMARK  10 active torsions:
REMARK  status: ('A' for Active; 'I' for Inactive)
REMARK    1  A    between atoms: C_1  and  C_2
REMARK    2  A    between atoms: C_2  and  O_3
REMARK    3  A    between atoms: O_3  and  C_4
REMARK    4  A    between atoms: C_6  and  C_15
REMARK    5  A    between atoms: C_9  and  O_10
REMARK    6  A    between atoms: O_10  and  C_11
REMARK    7  A    between atoms: C_11  and  C_12
REMARK    8  A    between atoms: C_17  and  C_28
REMARK    9  A    between atoms: C_18  and  N_27
REMARK   10  A    between atoms: C_23  and  C_26
REMARK                            x       y       z     vdW  Elec       q    Type
REMARK                         _______ _______ _______ _____ _____    ______ ____
ROOT
ATOM      1  C   UNL     1       0.655  -4.953  -0.019  0.00  0.00    +0.098 C 
ATOM      2  C   UNL     1       0.632  -5.877   1.186  0.00  0.00    +0.097 C 
ATOM      3  C   UNL     1       0.768  -7.213   1.058  0.00  0.00    +0.195 C 
ATOM      4  O   UNL     1       0.913  -7.900  -0.090  0.00  0.00    -0.448 OA
ATOM      5  C   UNL     1       1.389  -7.181  -1.230  0.00  0.00    +0.343 C 
ATOM      6  C   UNL     1       0.621  -5.856  -1.221  0.00  0.00    +0.030 C 
ATOM      7  C   UNL     1       0.025  -5.800  -2.386  0.00  0.00    +0.066 C 
ATOM      8  N   UNL     1       0.233  -6.949  -3.079  0.00  0.00    -0.155 NA
ATOM      9  N   UNL     1       0.963  -7.786  -2.495  0.00  0.00    -0.138 NA
ATOM     10  C   UNL     1      -0.777  -4.626  -2.887  0.00  0.00    +0.067 C 
ENDROOT
BRANCH   1  13
ATOM     11  C   UNL     1      -1.498  -1.849   0.006  0.00  0.00    +0.164 A 
ATOM     12  C   UNL     1      -0.389  -2.680  -0.003  0.00  0.00    +0.054 A 
ATOM     13  C   UNL     1      -0.552  -4.052  -0.009  0.00  0.00    -0.030 A 
ATOM     14  C   UNL     1      -1.822  -4.600  -0.006  0.00  0.00    +0.028 A 
ATOM     15  C   UNL     1      -2.934  -3.777   0.003  0.00  0.00    +0.086 A 
ATOM     16  C   UNL     1      -2.776  -2.400   0.016  0.00  0.00    +0.181 A 
ATOM     17 CL   UNL     1      -4.526  -4.469   0.006  0.00  0.00    -0.080 Cl
BRANCH  11  18
ATOM     18  O   UNL     1      -1.339  -0.499   0.012  0.00  0.00    -0.489 OA
BRANCH  18  20
ATOM     19  C   UNL     1      -0.019   1.526   0.010  0.00  0.00    +0.048 C 
ATOM     20  C   UNL     1       0.002  -0.004   0.002  0.00  0.00    +0.226 C 
ENDBRANCH  18  20
ENDBRANCH  11  18
BRANCH  16  21
ATOM     21  O   UNL     1      -3.868  -1.589   0.031  0.00  0.00    -0.483 OA
BRANCH  21  22
ATOM     22  C   UNL     1      -4.401  -1.195  -1.235  0.00  0.00    +0.256 C 
BRANCH  22  23
ATOM     23  C   UNL     1      -5.598  -0.305  -1.021  0.00  0.00    +0.006 C 
ATOM     24  C   UNL     1      -5.732   0.793  -1.723  0.00  0.00    +0.007 C 
ENDBRANCH  22  23
ENDBRANCH  21  22
ENDBRANCH  16  21
ENDBRANCH   1  13
BRANCH   3  25
ATOM     25  N   UNL     1       0.760  -7.947   2.217  0.00  0.00    -0.329 N 
ATOM     26  H   UNL     1       0.659  -7.500   3.073  0.00  0.00    +0.145 HD
ATOM     27  H   UNL     1       0.854  -8.911   2.182  0.00  0.00    +0.145 HD
ENDBRANCH   3  25
BRANCH   2  28
ATOM     28  C   UNL     1       0.461  -5.315   2.492  0.00  0.00    +0.101 C 
ATOM     29  N   UNL     1       0.325  -4.869   3.528  0.00  0.00    -0.191 NA
ENDBRANCH   2  28
TORSDOF 8
