REMARK  Name = ZINC12635876
REMARK  6 active torsions:
REMARK  status: ('A' for Active; 'I' for Inactive)
REMARK    1  A    between atoms: C_1  and  C_2
REMARK    2  A    between atoms: C_9  and  C_15
REMARK    3  A    between atoms: N_17  and  C_18
REMARK    4  A    between atoms: N_17  and  C_27
REMARK    5  A    between atoms: C_18  and  C_19
REMARK    6  A    between atoms: N_21  and  C_22
REMARK                            x       y       z     vdW  Elec       q    Type
REMARK                         _______ _______ _______ _____ _____    ______ ____
ROOT
ATOM      1  C   UNL     1      -5.038   1.880   0.344  0.00  0.00    +0.254 C 
ATOM      2  O   UNL     1      -3.874   2.225   0.421  0.00  0.00    -0.269 OA
ATOM      3  N   UNL     1      -5.977   2.761  -0.055  0.00  0.00    -0.285 N 
ENDROOT
BRANCH   1  12
ATOM      4  C   UNL     1      -7.733  -7.619   2.719  0.00  0.00    +0.044 C 
ATOM      5  C   UNL     1      -6.902  -6.397   2.424  0.00  0.00    -0.048 A 
ATOM      6  C   UNL     1      -5.511  -6.480   2.487  0.00  0.00    +0.004 A 
ATOM      7  C   UNL     1      -4.733  -5.396   2.226  0.00  0.00    +0.010 A 
ATOM      8  C   UNL     1      -5.336  -4.169   1.888  0.00  0.00    +0.001 A 
ATOM      9  C   UNL     1      -4.559  -3.038   1.616  0.00  0.00    +0.020 A 
ATOM     10  C   UNL     1      -5.206  -1.831   1.288  0.00  0.00    +0.009 A 
ATOM     11  C   UNL     1      -4.610  -0.545   0.977  0.00  0.00    +0.030 A 
ATOM     12  C   UNL     1      -5.420   0.502   0.685  0.00  0.00    +0.077 A 
ATOM     13  S   UNL     1      -7.058  -0.190   0.800  0.00  0.00    -0.064 S 
ATOM     14  C   UNL     1      -6.629  -1.856   1.247  0.00  0.00    +0.110 A 
ATOM     15  N   UNL     1      -7.335  -2.926   1.505  0.00  0.00    -0.240 NA
ATOM     16  C   UNL     1      -6.752  -4.085   1.824  0.00  0.00    +0.073 A 
ATOM     17  C   UNL     1      -7.521  -5.229   2.101  0.00  0.00    +0.031 A 
ENDBRANCH   1  12
BRANCH   3  18
ATOM     18  C   UNL     1      -5.589   4.117  -0.448  0.00  0.00    +0.077 C 
ATOM     19  C   UNL     1      -4.531   4.061  -1.570  0.00  0.00    +0.022 C 
ATOM     20  C   UNL     1      -3.574   5.235  -1.248  0.00  0.00    +0.002 C 
ATOM     21  C   UNL     1      -3.498   5.201   0.298  0.00  0.00    +0.002 C 
ATOM     22  C   UNL     1      -4.932   4.842   0.740  0.00  0.00    +0.022 C 
ENDBRANCH   3  18
BRANCH   3  23
ATOM     23  C   UNL     1      -7.386   2.361  -0.096  0.00  0.00    +0.204 C 
BRANCH  23  24
ATOM     24  C   UNL     1      -7.984   2.487   1.282  0.00  0.00    +0.231 C 
ATOM     25  O   UNL     1      -7.300   2.873   2.206  0.00  0.00    -0.274 OA
ATOM     26  N   UNL     1      -9.278   2.171   1.486  0.00  0.00    -0.311 N 
ATOM     27  H   UNL     1      -9.825   1.863   0.747  0.00  0.00    +0.149 HD
BRANCH  26  28
ATOM     28  C   UNL     1      -9.859   2.294   2.825  0.00  0.00    +0.073 C 
ATOM     29  C   UNL     1      -9.641   0.989   3.618  0.00  0.00    +0.022 C 
ATOM     30  C   UNL     1     -10.942   0.822   4.441  0.00  0.00    +0.002 C 
ATOM     31  C   UNL     1     -12.035   1.308   3.457  0.00  0.00    +0.002 C 
ATOM     32  C   UNL     1     -11.381   2.497   2.723  0.00  0.00    +0.022 C 
ENDBRANCH  26  28
ENDBRANCH  23  24
ENDBRANCH   3  23
TORSDOF 5
