REMARK  Name = ZINC09328284
REMARK  11 active torsions:
REMARK  status: ('A' for Active; 'I' for Inactive)
REMARK    1  A    between atoms: C_1  and  C_2
REMARK    2  A    between atoms: C_2  and  N_3
REMARK    3  A    between atoms: C_4  and  C_20
REMARK    4  A    between atoms: C_7  and  S_8
REMARK    5  A    between atoms: S_8  and  C_9
REMARK    6  A    between atoms: C_9  and  C_10
REMARK    7  A    between atoms: C_10  and  C_12
REMARK    8  A    between atoms: C_15  and  C_18
REMARK    9  A    between atoms: C_20  and  C_22
REMARK   10  A    between atoms: C_20  and  N_23
REMARK   11  A    between atoms: C_24  and  C_26
REMARK                            x       y       z     vdW  Elec       q    Type
REMARK                         _______ _______ _______ _____ _____    ______ ____
ROOT
ATOM      1  N   UNL     1      -3.212   6.149   1.566  0.00  0.00    -0.305 N 
ATOM      2  C   UNL     1      -2.401   5.547   0.644  0.00  0.00    +0.154 A 
ATOM      3  N   UNL     1      -1.430   6.376   0.383  0.00  0.00    -0.132 NA
ATOM      4  N   UNL     1      -1.568   7.450   1.076  0.00  0.00    -0.122 NA
ATOM      5  C   UNL     1      -2.644   7.364   1.822  0.00  0.00    +0.192 A 
ENDROOT
BRANCH   1   7
ATOM      6  C   UNL     1      -4.084   4.826   3.430  0.00  0.00    +0.027 C 
ATOM      7  C   UNL     1      -4.435   5.601   2.159  0.00  0.00    +0.122 C 
ENDBRANCH   1   7
BRANCH   2   8
ATOM      8  C   UNL     1      -2.597   4.182   0.037  0.00  0.00    +0.138 C 
ATOM      9  C   UNL     1      -3.110   4.330  -1.397  0.00  0.00    +0.036 C 
BRANCH   8  10
ATOM     10  N   UNL     1      -1.320   3.464   0.027  0.00  0.00    -0.302 N 
ATOM     11  C   UNL     1      -1.305   2.116   0.020  0.00  0.00    +0.245 C 
ATOM     12  O   UNL     1      -2.351   1.497   0.021  0.00  0.00    -0.270 OA
ATOM     13  H   UNL     1      -0.486   3.958   0.026  0.00  0.00    +0.150 HD
BRANCH  11  14
ATOM     14  C   UNL     1      -0.017   1.392   0.010  0.00  0.00    +0.037 A 
ATOM     15  C   UNL     1       1.186   2.101   0.002  0.00  0.00    +0.014 A 
ATOM     16  C   UNL     1       2.385   1.419  -0.013  0.00  0.00    +0.021 A 
ATOM     17  C   UNL     1       2.397   0.035  -0.020  0.00  0.00    +0.041 A 
ATOM     18  C   UNL     1       1.207  -0.674  -0.013  0.00  0.00    +0.021 A 
ATOM     19  C   UNL     1       0.002  -0.004   0.002  0.00  0.00    +0.014 A 
ATOM     20 CL   UNL     1       3.910  -0.816  -0.038  0.00  0.00    -0.084 Cl
ENDBRANCH  11  14
ENDBRANCH   8  10
ENDBRANCH   2   8
BRANCH   5  21
ATOM     21  S   UNL     1      -3.246   8.587   2.939  0.00  0.00    -0.078 S 
BRANCH  21  22
ATOM     22  C   UNL     1      -1.985   9.866   2.713  0.00  0.00    +0.157 C 
BRANCH  22  23
ATOM     23  C   UNL     1      -2.303  11.045   3.595  0.00  0.00    +0.173 C 
ATOM     24  O   UNL     1      -3.284  11.023   4.307  0.00  0.00    -0.291 OA
BRANCH  23  25
ATOM     25  C   UNL     1      -1.421  12.224   3.594  0.00  0.00    +0.018 A 
ATOM     26  C   UNL     1      -0.285  12.248   2.777  0.00  0.00    +0.012 A 
ATOM     27  C   UNL     1       0.536  13.353   2.773  0.00  0.00    +0.019 A 
ATOM     28  C   UNL     1       0.242  14.446   3.591  0.00  0.00    +0.052 A 
ATOM     29  C   UNL     1      -0.889  14.421   4.411  0.00  0.00    +0.019 A 
ATOM     30  C   UNL     1      -1.715  13.319   4.413  0.00  0.00    +0.012 A 
BRANCH  28  31
ATOM     31  C   UNL     1       1.099  15.592   3.590  0.00  0.00    +0.099 C 
ATOM     32  N   UNL     1       1.780  16.502   3.588  0.00  0.00    -0.191 NA
ENDBRANCH  28  31
ENDBRANCH  23  25
ENDBRANCH  22  23
ENDBRANCH  21  22
ENDBRANCH   5  21
TORSDOF 9
