REMARK  Name = ZINC07144048
REMARK  5 active torsions:
REMARK  status: ('A' for Active; 'I' for Inactive)
REMARK    1  A    between atoms: C_6  and  C_7
REMARK    2  A    between atoms: C_7  and  O_9
REMARK    3  A    between atoms: O_9  and  C_10
REMARK    4  A    between atoms: C_10  and  C_11
REMARK    5  A    between atoms: N_16  and  C_17
REMARK                            x       y       z     vdW  Elec       q    Type
REMARK                         _______ _______ _______ _____ _____    ______ ____
ROOT
ATOM      1  C   UNL     1       2.207   5.722   0.008  0.00  0.00    +0.328 C 
ENDROOT
BRANCH   1   2
ATOM      2  C   UNL     1       3.590   6.321  -0.002  0.00  0.00    +0.258 C 
ATOM      3  O   UNL     1       4.563   5.598  -0.013  0.00  0.00    -0.272 OA
ATOM      4  N   UNL     1       3.744   7.660   0.003  0.00  0.00    -0.237 N 
ATOM      5  C   UNL     1       4.981   8.195  -0.006  0.00  0.00    +0.306 C 
ATOM      6  O   UNL     1       5.957   7.471  -0.018  0.00  0.00    -0.252 OA
ATOM      7  N   UNL     1       5.136   9.534  -0.002  0.00  0.00    -0.296 N 
ATOM      8  H   UNL     1       2.966   8.238   0.012  0.00  0.00    +0.159 HD
ATOM      9  H   UNL     1       4.357  10.112   0.008  0.00  0.00    +0.151 HD
BRANCH   7  10
ATOM     10  C   UNL     1       6.480  10.116  -0.011  0.00  0.00    +0.074 C 
ATOM     11  C   UNL     1       7.000  10.270   1.433  0.00  0.00    +0.022 C 
ATOM     12  C   UNL     1       7.791  11.601   1.413  0.00  0.00    +0.002 C 
ATOM     13  C   UNL     1       6.933  12.494   0.482  0.00  0.00    +0.002 C 
ATOM     14  C   UNL     1       6.438  11.530  -0.616  0.00  0.00    +0.022 C 
ENDBRANCH   7  10
ENDBRANCH   1   2
BRANCH   1  15
ATOM     15  O   UNL     1       2.306   4.274   0.001  0.00  0.00    -0.452 OA
BRANCH  15  16
ATOM     16  C   UNL     1       1.151   3.581   0.009  0.00  0.00    +0.340 C 
ATOM     17  O   UNL     1       0.089   4.171   0.020  0.00  0.00    -0.245 OA
BRANCH  16  23
ATOM     18  C   UNL     1       2.392   1.420  -0.011  0.00  0.00    +0.015 A 
ATOM     19  C   UNL     1       2.399   0.043  -0.019  0.00  0.00    +0.005 A 
ATOM     20  C   UNL     1       1.207  -0.674  -0.014  0.00  0.00    -0.044 A 
ATOM     21  C   UNL     1       0.002  -0.004   0.002  0.00  0.00    -0.043 A 
ATOM     22  C   UNL     1      -0.017   1.382   0.010  0.00  0.00    +0.019 A 
ATOM     23  C   UNL     1       1.175   2.104   0.002  0.00  0.00    +0.059 A 
ATOM     24  C   UNL     1      -1.323  -0.721   0.017  0.00  0.00    +0.035 C 
ATOM     25  C   UNL     1      -1.153  -2.174  -0.422  0.00  0.00    +0.005 C 
ATOM     26  C   UNL     1      -0.026  -2.800   0.407  0.00  0.00    +0.005 C 
ATOM     27  C   UNL     1       1.298  -2.178  -0.032  0.00  0.00    +0.035 C 
ENDBRANCH  16  23
ENDBRANCH  15  16
ENDBRANCH   1  15
TORSDOF 5
