REMARK  Name = ZINC21582775
REMARK  9 active torsions:
REMARK  status: ('A' for Active; 'I' for Inactive)
REMARK    1  A    between atoms: C_1  and  C_2
REMARK    2  A    between atoms: C_2  and  C_27
REMARK    3  A    between atoms: N_5  and  N_9
REMARK    4  A    between atoms: C_10  and  C_12
REMARK    5  A    between atoms: C_12  and  N_13
REMARK    6  A    between atoms: N_16  and  C_19
REMARK    7  A    between atoms: C_19  and  C_20
REMARK    8  A    between atoms: C_27  and  C_28
REMARK    9  A    between atoms: C_28  and  C_29
REMARK                            x       y       z     vdW  Elec       q    Type
REMARK                         _______ _______ _______ _____ _____    ______ ____
ROOT
ATOM      1  N   UNL     1      -2.518  -1.955   1.783  0.00  0.00    -0.223 N 
ATOM      2  C   UNL     1      -2.586  -3.298   1.684  0.00  0.00    +0.244 C 
ATOM      3  O   UNL     1      -1.682  -3.914   1.162  0.00  0.00    -0.273 OA
ATOM      4  H   UNL     1      -3.242  -1.462   2.200  0.00  0.00    +0.174 HD
ENDROOT
BRANCH   1   9
ATOM      5  C   UNL     1      -0.019   1.526   0.010  0.00  0.00    +0.041 C 
ATOM      6  C   UNL     1       0.002  -0.004   0.002  0.00  0.00    +0.112 C 
ATOM      7  C   UNL     1      -1.403  -0.557   0.139  0.00  0.00    +0.263 C 
ATOM      8  O   UNL     1      -2.332  -0.392  -0.621  0.00  0.00    -0.271 OA
ATOM      9  N   UNL     1      -1.403  -1.272   1.282  0.00  0.00    -0.137 N 
ATOM     10  C   UNL     1      -0.206  -1.247   1.879  0.00  0.00    +0.326 C 
ATOM     11  O   UNL     1       0.040  -1.819   2.924  0.00  0.00    -0.251 OA
ATOM     12  N   UNL     1       0.695  -0.520   1.195  0.00  0.00    -0.284 N 
ATOM     13  H   UNL     1       1.621  -0.365   1.440  0.00  0.00    +0.151 HD
BRANCH   6  14
ATOM     14  C   UNL     1       0.667  -0.525  -1.274  0.00  0.00    +0.040 C 
BRANCH  14  15
ATOM     15  C   UNL     1       2.136  -0.098  -1.294  0.00  0.00    +0.038 C 
BRANCH  15  16
ATOM     16  C   UNL     1       2.791  -0.611  -2.551  0.00  0.00    -0.047 A 
ATOM     17  C   UNL     1       3.388  -1.858  -2.560  0.00  0.00    +0.003 A 
ATOM     18  C   UNL     1       3.988  -2.328  -3.712  0.00  0.00    +0.000 A 
ATOM     19  C   UNL     1       3.992  -1.552  -4.856  0.00  0.00    +0.000 A 
ATOM     20  C   UNL     1       3.394  -0.305  -4.847  0.00  0.00    +0.000 A 
ATOM     21  C   UNL     1       2.790   0.163  -3.696  0.00  0.00    +0.003 A 
ENDBRANCH  15  16
ENDBRANCH  14  15
ENDBRANCH   6  14
ENDBRANCH   1   9
BRANCH   2  22
ATOM     22  C   UNL     1      -3.787  -4.033   2.223  0.00  0.00    +0.182 C 
BRANCH  22  23
ATOM     23  N   UNL     1      -3.620  -5.475   1.996  0.00  0.00    -0.298 NA
ATOM     24  C   UNL     1      -3.641  -5.787   0.559  0.00  0.00    +0.066 C 
ATOM     25  C   UNL     1      -3.406  -7.287   0.363  0.00  0.00    -0.063 C 
ATOM     26  N   UNL     1      -4.454  -8.042   1.062  0.00  0.00    +0.384 N 
ATOM     27  C   UNL     1      -4.405  -7.738   2.498  0.00  0.00    -0.063 C 
ATOM     28  C   UNL     1      -4.649  -6.243   2.712  0.00  0.00    +0.066 C 
ATOM     29  H   UNL     1      -5.357  -7.783   0.694  0.00  0.00    -0.081 HD
BRANCH  26  30
ATOM     30  C   UNL     1      -4.238  -9.481   0.858  0.00  0.00    -0.043 C 
BRANCH  30  31
ATOM     31  C   UNL     1      -5.380 -10.252   1.469  0.00  0.00    -0.064 A 
ATOM     32  C   UNL     1      -5.311 -10.658   2.789  0.00  0.00    +0.003 A 
ATOM     33  C   UNL     1      -6.357 -11.364   3.350  0.00  0.00    +0.020 A 
ATOM     34  C   UNL     1      -7.474 -11.666   2.591  0.00  0.00    +0.041 A 
ATOM     35  C   UNL     1      -7.543 -11.259   1.271  0.00  0.00    +0.020 A 
ATOM     36  C   UNL     1      -6.498 -10.547   0.712  0.00  0.00    +0.003 A 
ATOM     37 CL   UNL     1      -8.789 -12.554   3.296  0.00  0.00    -0.084 Cl
ENDBRANCH  30  31
ENDBRANCH  26  30
ENDBRANCH  22  23
ENDBRANCH   2  22
TORSDOF 8
