REMARK  Name = ZINC08883647
REMARK  7 active torsions:
REMARK  status: ('A' for Active; 'I' for Inactive)
REMARK    1  A    between atoms: C_3  and  C_6
REMARK    2  A    between atoms: C_6  and  N_7
REMARK    3  A    between atoms: N_7  and  S_8
REMARK    4  A    between atoms: S_8  and  C_11
REMARK    5  A    between atoms: C_14  and  N_17
REMARK    6  A    between atoms: C_18  and  C_20
REMARK    7  A    between atoms: C_25  and  N_59
REMARK                            x       y       z     vdW  Elec       q    Type
REMARK                         _______ _______ _______ _____ _____    ______ ____
ROOT
ATOM      1  N   UNL     1      -2.386   1.453   3.816  0.00  0.00    -0.285 N 
ATOM      2  C   UNL     1      -2.847   1.563   2.554  0.00  0.00    +0.220 C 
ATOM      3  O   UNL     1      -3.904   2.119   2.342  0.00  0.00    -0.275 OA
ATOM      4  H   UNL     1      -1.509   1.072   3.980  0.00  0.00    +0.155 HD
ENDROOT
BRANCH   2   5
ATOM      5  C   UNL     1      -2.050   0.996   1.408  0.00  0.00    +0.072 C 
ATOM      6  C   UNL     1      -0.678   1.673   1.353  0.00  0.00    -0.006 C 
ATOM      7  C   UNL     1       0.103   1.136   0.152  0.00  0.00    -0.078 C 
ATOM      8  C   UNL     1      -1.948   0.729  -1.072  0.00  0.00    -0.078 C 
ATOM      9  C   UNL     1      -2.790   1.254   0.093  0.00  0.00    -0.006 C 
ATOM     10  N   UNL     1      -0.650   1.437  -1.083  0.00  0.00    +0.383 N 
ATOM     11  H   UNL     1      -0.823   2.448  -1.130  0.00  0.00    -0.081 HD
BRANCH  10  12
ATOM     12  C   UNL     1       0.136   1.030  -2.266  0.00  0.00    -0.046 C 
ATOM     13  C   UNL     1       1.408   1.893  -2.335  0.00  0.00    +0.009 C 
ATOM     14  C   UNL     1       2.048   1.701  -3.739  0.00  0.00    +0.164 C 
ATOM     15  S   UNL     1       0.541   1.699  -4.799  0.00  0.00    -0.033 S 
ATOM     16  O   UNL     1       0.292   3.024  -5.250  0.00  0.00    -0.174 OA
ATOM     17  O   UNL     1       0.644   0.646  -5.747  0.00  0.00    -0.174 OA
ATOM     18  C   UNL     1      -0.719   1.249  -3.537  0.00  0.00    +0.151 C 
ENDBRANCH  10  12
ENDBRANCH   2   5
BRANCH   1  22
ATOM     19  C   UNL     1      -4.726   2.748   7.010  0.00  0.00    +0.105 A 
ATOM     20  C   UNL     1      -5.328   2.208   5.889  0.00  0.00    +0.030 A 
ATOM     21  C   UNL     1      -4.555   1.777   4.828  0.00  0.00    +0.025 A 
ATOM     22  C   UNL     1      -3.172   1.888   4.889  0.00  0.00    +0.034 A 
ATOM     23  C   UNL     1      -2.571   2.426   6.019  0.00  0.00    +0.025 A 
ATOM     24  C   UNL     1      -3.349   2.859   7.074  0.00  0.00    +0.030 A 
BRANCH  19  25
ATOM     25  S   UNL     1      -5.716   3.296   8.361  0.00  0.00    +0.059 S 
ATOM     26  O   UNL     1      -4.946   4.263   9.063  0.00  0.00    -0.153 OA
ATOM     27  O   UNL     1      -7.003   3.585   7.831  0.00  0.00    -0.153 OA
BRANCH  25  28
ATOM     28  N   UNL     1      -5.904   2.008   9.384  0.00  0.00    -0.183 NA
ATOM     29  H   UNL     1      -6.784   1.624   9.524  0.00  0.00    +0.148 HD
BRANCH  28  30
ATOM     30  C   UNL     1      -4.742   1.447  10.078  0.00  0.00    +0.180 C 
BRANCH  30  33
ATOM     31  C   UNL     1      -5.869  -1.194  12.388  0.00  0.00    +0.041 A 
ATOM     32  C   UNL     1      -5.458  -0.762  11.106  0.00  0.00    +0.046 A 
ATOM     33  C   UNL     1      -5.208   0.556  11.200  0.00  0.00    +0.120 A 
ATOM     34  O   UNL     1      -5.440   0.943  12.465  0.00  0.00    -0.466 OA
ATOM     35  C   UNL     1      -5.846  -0.113  13.189  0.00  0.00    +0.195 A 
ENDBRANCH  30  33
ENDBRANCH  28  30
ENDBRANCH  25  28
ENDBRANCH  19  25
ENDBRANCH   1  22
TORSDOF 7
