REMARK  Name = ZINC63746698
REMARK  8 active torsions:
REMARK  status: ('A' for Active; 'I' for Inactive)
REMARK    1  A    between atoms: C_1  and  C_2
REMARK    2  A    between atoms: C_5  and  C_28
REMARK    3  A    between atoms: C_6  and  C_20
REMARK    4  A    between atoms: C_10  and  N_12
REMARK    5  A    between atoms: N_15  and  C_16
REMARK    6  A    between atoms: C_16  and  C_17
REMARK    7  A    between atoms: C_17  and  C_18
REMARK    8  A    between atoms: C_17  and  C_19
REMARK                            x       y       z     vdW  Elec       q    Type
REMARK                         _______ _______ _______ _____ _____    ______ ____
ROOT
ATOM      1  C   UNL     1      -0.107   1.509  -0.016  0.00  0.00    +0.044 C 
ATOM      2  C   UNL     1      -0.067   0.002  -0.018  0.00  0.00    -0.048 A 
ATOM      3  C   UNL     1      -0.065  -0.648  -1.204  0.00  0.00    +0.013 A 
ATOM      4  C   UNL     1      -0.029  -2.064  -1.244  0.00  0.00    +0.006 A 
ATOM      5  C   UNL     1      -0.019  -2.972  -2.288  0.00  0.00    -0.000 C 
ATOM      6  C   UNL     1       0.025  -4.339  -1.641  0.00  0.00    +0.198 C 
ATOM      7  N   UNL     1       0.037  -4.101  -0.194  0.00  0.00    -0.368 N 
ATOM      8  C   UNL     1       0.007  -2.809   0.030  0.00  0.00    +0.065 A 
ATOM      9  C   UNL     1       0.002  -2.029   1.277  0.00  0.00    +0.059 A 
ATOM     10  C   UNL     1      -0.029  -0.671   1.207  0.00  0.00    +0.028 A 
ATOM     11  H   UNL     1       0.064  -4.789   0.489  0.00  0.00    +0.161 HD
ENDROOT
BRANCH   6  12
ATOM     12  C   UNL     1      -1.195  -5.135  -2.026  0.00  0.00    +0.243 C 
ATOM     13  O   UNL     1      -2.166  -5.148  -1.300  0.00  0.00    -0.273 OA
ATOM     14  N   UNL     1      -1.208  -5.832  -3.180  0.00  0.00    -0.295 N 
ATOM     15  C   UNL     1      -0.004  -5.927  -4.021  0.00  0.00    +0.136 C 
ATOM     16  C   UNL     1       0.244  -7.404  -4.346  0.00  0.00    +0.179 C 
ATOM     17  O   UNL     1      -0.952  -7.975  -4.883  0.00  0.00    -0.377 OA
ATOM     18  C   UNL     1      -2.060  -7.971  -3.979  0.00  0.00    +0.179 C 
ATOM     19  C   UNL     1      -2.423  -6.527  -3.632  0.00  0.00    +0.136 C 
ENDBRANCH   6  12
BRANCH   9  20
ATOM     20  N   UNL     1       0.035  -2.675   2.518  0.00  0.00    -0.268 N 
ATOM     21  C   UNL     1       0.527  -2.036   3.597  0.00  0.00    +0.304 C 
ATOM     22  O   UNL     1       1.036  -0.938   3.475  0.00  0.00    -0.253 OA
ATOM     23  N   UNL     1       0.454  -2.613   4.813  0.00  0.00    -0.299 N 
ATOM     24  H   UNL     1      -0.297  -3.582   2.600  0.00  0.00    +0.156 HD
ATOM     25  H   UNL     1       0.048  -3.488   4.911  0.00  0.00    +0.150 HD
BRANCH  23  26
ATOM     26  C   UNL     1       0.989  -1.918   5.987  0.00  0.00    +0.108 C 
BRANCH  26  27
ATOM     27  C   UNL     1       0.782  -2.785   7.231  0.00  0.00    -0.000 C 
ATOM     28  C   UNL     1       1.450  -2.117   8.434  0.00  0.00    +0.009 C 
ATOM     29  C   UNL     1      -0.716  -2.940   7.500  0.00  0.00    +0.009 C 
ENDBRANCH  26  27
ENDBRANCH  23  26
ENDBRANCH   9  20
BRANCH   5  30
ATOM     30  C   UNL     1      -0.045  -2.672  -3.721  0.00  0.00    -0.019 A 
ATOM     31  C   UNL     1      -1.263  -2.656  -4.416  0.00  0.00    +0.008 A 
ATOM     32  C   UNL     1      -1.278  -2.373  -5.764  0.00  0.00    +0.001 A 
ATOM     33  C   UNL     1      -0.096  -2.106  -6.433  0.00  0.00    +0.000 A 
ATOM     34  C   UNL     1       1.112  -2.120  -5.755  0.00  0.00    +0.001 A 
ATOM     35  C   UNL     1       1.146  -2.394  -4.406  0.00  0.00    +0.008 A 
ENDBRANCH   5  30
TORSDOF 5
