REMARK  Name = ZINC02808969
REMARK  6 active torsions:
REMARK  status: ('A' for Active; 'I' for Inactive)
REMARK    1  A    between atoms: C_1  and  C_2
REMARK    2  A    between atoms: C_2  and  C_3
REMARK    3  A    between atoms: C_4  and  C_27
REMARK    4  A    between atoms: C_10  and  C_15
REMARK    5  A    between atoms: C_18  and  C_20
REMARK    6  A    between atoms: C_23  and  C_26
REMARK                            x       y       z     vdW  Elec       q    Type
REMARK                         _______ _______ _______ _____ _____    ______ ____
ROOT
ATOM      1  C   UNL     1      -1.319  -4.890  -2.875  0.00  0.00    -0.025 A 
ATOM      2  C   UNL     1      -1.653  -5.878  -3.723  0.00  0.00    -0.007 A 
ATOM      3  S   UNL     1      -1.934  -5.022  -5.261  0.00  0.00    -0.073 S 
ATOM      4  C   UNL     1      -1.595  -3.367  -4.721  0.00  0.00    +0.114 A 
ATOM      5  C   UNL     1      -1.274  -3.526  -3.361  0.00  0.00    +0.055 A 
ATOM      6  C   UNL     1      -0.942  -2.278  -2.648  0.00  0.00    +0.168 A 
ATOM      7  N   UNL     1      -0.597  -2.007  -1.405  0.00  0.00    -0.210 NA
ATOM      8  C   UNL     1      -0.403  -0.698  -1.273  0.00  0.00    +0.156 A 
ATOM      9  N   UNL     1      -0.623  -0.104  -2.420  0.00  0.00    -0.148 NA
ATOM     10  N   UNL     1      -0.971  -1.102  -3.342  0.00  0.00    -0.201 N 
ATOM     11  C   UNL     1      -1.299  -1.083  -4.662  0.00  0.00    +0.226 A 
ATOM     12  N   UNL     1      -1.596  -2.176  -5.308  0.00  0.00    -0.228 NA
ATOM     13  C   UNL     1      -1.764  -7.354  -3.441  0.00  0.00    +0.052 C 
ENDROOT
BRANCH   8  14
ATOM     14  C   UNL     1       0.002  -0.004   0.002  0.00  0.00    +0.067 C 
ATOM     15  C   UNL     1      -0.019   1.526   0.010  0.00  0.00    +0.020 C 
ATOM     16  C   UNL     1       1.317   0.779  -0.006  0.00  0.00    +0.030 C 
BRANCH  16  17
ATOM     17  C   UNL     1       2.132   0.783   1.261  0.00  0.00    -0.044 A 
ATOM     18  C   UNL     1       1.594   1.294   2.427  0.00  0.00    +0.004 A 
ATOM     19  C   UNL     1       2.340   1.293   3.591  0.00  0.00    +0.003 A 
ATOM     20  C   UNL     1       3.628   0.791   3.586  0.00  0.00    -0.050 A 
ATOM     21  C   UNL     1       4.168   0.285   2.418  0.00  0.00    +0.003 A 
ATOM     22  C   UNL     1       3.420   0.281   1.256  0.00  0.00    +0.004 A 
ATOM     23  C   UNL     1       4.444   0.794   4.853  0.00  0.00    +0.044 C 
ENDBRANCH  16  17
ENDBRANCH   8  14
BRANCH   1  25
ATOM     24  C   UNL     1       0.502  -5.473  -1.297  0.00  0.00    +0.009 C 
ATOM     25  C   UNL     1      -0.996  -5.198  -1.435  0.00  0.00    +0.033 C 
ENDBRANCH   1  25
TORSDOF 3
