REMARK  Name = ZINC00171591
REMARK  4 active torsions:
REMARK  status: ('A' for Active; 'I' for Inactive)
REMARK    1  A    between atoms: C_1  and  N_2
REMARK    2  A    between atoms: N_2  and  C_3
REMARK    3  A    between atoms: C_11  and  C_13
REMARK    4  A    between atoms: C_19  and  N_23
REMARK                            x       y       z     vdW  Elec       q    Type
REMARK                         _______ _______ _______ _____ _____    ______ ____
ROOT
ATOM      1  C   UNL     1      -4.223  -0.129  -1.143  0.00  0.00    +0.103 A 
ATOM      2  C   UNL     1      -4.770  -0.759  -2.214  0.00  0.00    +0.041 A 
ATOM      3  C   UNL     1      -6.037  -1.255  -1.822  0.00  0.00    +0.003 A 
ATOM      4  C   UNL     1      -7.037  -1.976  -2.489  0.00  0.00    +0.010 A 
ATOM      5  C   UNL     1      -8.183  -2.313  -1.831  0.00  0.00    +0.003 A 
ATOM      6  C   UNL     1      -8.370  -1.949  -0.503  0.00  0.00    +0.035 A 
ATOM      7  C   UNL     1      -7.403  -1.241   0.174  0.00  0.00    +0.150 A 
ATOM      8  C   UNL     1      -6.224  -0.884  -0.476  0.00  0.00    +0.078 A 
ATOM      9  N   UNL     1      -5.102  -0.196  -0.080  0.00  0.00    -0.349 N 
ATOM     10  H   UNL     1      -4.953   0.180   0.802  0.00  0.00    +0.166 HD
ENDROOT
BRANCH   1  13
ATOM     11  C   UNL     1      -1.263   1.978  -0.057  0.00  0.00    +0.139 C 
ATOM     12  N   UNL     1      -2.525   1.234  -0.038  0.00  0.00    -0.267 N 
ATOM     13  C   UNL     1      -2.906   0.526  -1.119  0.00  0.00    +0.267 C 
ATOM     14  O   UNL     1      -2.162   0.430  -2.077  0.00  0.00    -0.268 OA
BRANCH  12  15
ATOM     15  C   UNL     1      -3.335   1.259   1.104  0.00  0.00    +0.072 A 
ATOM     16  C   UNL     1      -4.311   2.236   1.243  0.00  0.00    +0.029 A 
ATOM     17  C   UNL     1      -5.114   2.255   2.368  0.00  0.00    +0.040 A 
ATOM     18  C   UNL     1      -4.942   1.304   3.359  0.00  0.00    +0.126 A 
ATOM     19  C   UNL     1      -3.965   0.332   3.228  0.00  0.00    +0.078 A 
ATOM     20  C   UNL     1      -3.159   0.308   2.104  0.00  0.00    +0.147 A 
ATOM     21  F   UNL     1      -2.206  -0.640   1.975  0.00  0.00    -0.203 F 
ATOM     22  F   UNL     1      -5.728   1.325   4.458  0.00  0.00    -0.205 F 
ENDBRANCH  12  15
ENDBRANCH   1  13
BRANCH   7  23
ATOM     23  N   UNL     1      -7.615  -0.859   1.588  0.00  0.00    +0.058 N 
ATOM     24  O   UNL     1      -8.647  -1.172   2.155  0.00  0.00    -0.126 OA
ATOM     25  O   UNL     1      -6.758  -0.232   2.185  0.00  0.00    -0.126 OA
ENDBRANCH   7  23
TORSDOF 3
