REMARK  Name = ZINC38980576
REMARK  8 active torsions:
REMARK  status: ('A' for Active; 'I' for Inactive)
REMARK    1  A    between atoms: C_1  and  C_2
REMARK    2  A    between atoms: C_2  and  C_3
REMARK    3  A    between atoms: C_2  and  C_4
REMARK    4  A    between atoms: C_4  and  C_5
REMARK    5  A    between atoms: C_5  and  N_6
REMARK    6  A    between atoms: N_6  and  C_7
REMARK    7  A    between atoms: N_10  and  S_11
REMARK    8  A    between atoms: S_11  and  C_14
REMARK                            x       y       z     vdW  Elec       q    Type
REMARK                         _______ _______ _______ _____ _____    ______ ____
ROOT
ATOM      1  C   UNL     1       4.291  -0.157  -2.403  0.00  0.00    +0.219 C 
ATOM      2  C   UNL     1       4.609   0.472  -3.741  0.00  0.00    +0.188 C 
ATOM      3  N   UNL     1       3.947   1.512  -4.154  0.00  0.00    -0.110 NA
ATOM      4  N   UNL     1       5.584  -0.058  -4.495  0.00  0.00    -0.226 NA
ATOM      5  C   UNL     1       6.269  -1.110  -4.098  0.00  0.00    +0.089 A 
ATOM      6  C   UNL     1       7.293  -1.645  -4.920  0.00  0.00    +0.030 A 
ATOM      7  C   UNL     1       7.999  -2.724  -4.518  0.00  0.00    +0.002 A 
ATOM      8  C   UNL     1       7.768  -3.369  -3.292  0.00  0.00    +0.002 A 
ATOM      9  C   UNL     1       6.816  -2.942  -2.433  0.00  0.00    +0.027 A 
ATOM     10  C   UNL     1       6.004  -1.772  -2.796  0.00  0.00    +0.063 A 
ATOM     11  N   UNL     1       5.077  -1.331  -1.993  0.00  0.00    -0.362 N 
ATOM     12  H   UNL     1       4.909  -1.768  -1.144  0.00  0.00    +0.162 HD
ENDROOT
BRANCH   3  13
ATOM     13  S   UNL     1       4.304   2.192  -5.622  0.00  0.00    +0.102 S 
ATOM     14  O   UNL     1       5.616   2.728  -5.512  0.00  0.00    -0.146 OA
ATOM     15  O   UNL     1       3.954   1.233  -6.610  0.00  0.00    -0.146 OA
BRANCH  13  16
ATOM     16  C   UNL     1       3.218   3.561  -5.841  0.00  0.00    +0.132 A 
ATOM     17  C   UNL     1       3.727   4.845  -5.904  0.00  0.00    +0.050 A 
ATOM     18  C   UNL     1       2.874   5.920  -6.076  0.00  0.00    +0.043 A 
ATOM     19  C   UNL     1       1.510   5.710  -6.184  0.00  0.00    +0.021 A 
ATOM     20  C   UNL     1       1.001   4.428  -6.121  0.00  0.00    +0.023 A 
ATOM     21  C   UNL     1       1.855   3.352  -5.955  0.00  0.00    +0.068 A 
ATOM     22 CL   UNL     1       1.216   1.739  -5.883  0.00  0.00    -0.082 Cl
ATOM     23 CL   UNL     1       3.513   7.532  -6.155  0.00  0.00    -0.083 Cl
ENDBRANCH  13  16
ENDBRANCH   3  13
BRANCH   1  24
ATOM     24  N   UNL     1       2.875  -0.547  -2.416  0.00  0.00    -0.291 NA
ATOM     25  H   UNL     1       2.776  -1.546  -2.520  0.00  0.00    +0.124 HD
BRANCH  24  26
ATOM     26  C   UNL     1       2.187  -0.073  -1.207  0.00  0.00    +0.083 C 
BRANCH  26  27
ATOM     27  C   UNL     1       0.718  -0.497  -1.257  0.00  0.00    +0.018 C 
BRANCH  27  29
ATOM     28  C   UNL     1      -0.019   1.526   0.010  0.00  0.00    +0.007 C 
ATOM     29  C   UNL     1       0.002  -0.004   0.002  0.00  0.00    -0.016 C 
ATOM     30  C   UNL     1      -1.433  -0.534   0.013  0.00  0.00    +0.007 C 
ENDBRANCH  27  29
ENDBRANCH  26  27
ENDBRANCH  24  26
ENDBRANCH   1  24
TORSDOF 6
