REMARK  Name = ZINC38671459
REMARK  7 active torsions:
REMARK  status: ('A' for Active; 'I' for Inactive)
REMARK    1  A    between atoms: C_1  and  N_2
REMARK    2  A    between atoms: C_9  and  C_11
REMARK    3  A    between atoms: C_11  and  C_13
REMARK    4  A    between atoms: C_11  and  N_27
REMARK    5  A    between atoms: C_13  and  N_14
REMARK    6  A    between atoms: C_15  and  C_17
REMARK    7  A    between atoms: C_17  and  C_22
REMARK                            x       y       z     vdW  Elec       q    Type
REMARK                         _______ _______ _______ _____ _____    ______ ____
ROOT
ATOM      1  C   UNL     1      -0.051  -3.830   4.119  0.00  0.00    -0.020 C 
ENDROOT
BRANCH   1  10
ATOM      2  C   UNL     1      -0.664   0.514  -0.988  0.00  0.00    +0.129 C 
ATOM      3  N   UNL     1      -0.541  -0.922  -0.723  0.00  0.00    -0.332 N 
ATOM      4  C   UNL     1      -0.514  -1.966  -1.751  0.00  0.00    +0.109 C 
ATOM      5  C   UNL     1      -0.374  -3.288  -0.979  0.00  0.00    +0.056 C 
ATOM      6  C   UNL     1      -0.332  -2.875   0.476  0.00  0.00    -0.025 A 
ATOM      7  C   UNL     1      -0.427  -1.494   0.545  0.00  0.00    +0.033 A 
ATOM      8  C   UNL     1      -0.404  -0.875   1.796  0.00  0.00    +0.023 A 
ATOM      9  C   UNL     1      -0.283  -1.631   2.943  0.00  0.00    +0.004 A 
ATOM     10  C   UNL     1      -0.184  -3.007   2.863  0.00  0.00    -0.059 A 
ATOM     11  C   UNL     1      -0.215  -3.628   1.628  0.00  0.00    +0.007 A 
ENDBRANCH   1  10
BRANCH   1  12
ATOM     12  N   UNL     1      -0.928  -3.278   5.160  0.00  0.00    +0.385 N 
ATOM     13  C   UNL     1      -0.836  -4.110   6.366  0.00  0.00    -0.078 C 
ATOM     14  C   UNL     1      -1.685  -3.494   7.481  0.00  0.00    -0.019 C 
ATOM     15  C   UNL     1      -3.143  -3.418   7.021  0.00  0.00    -0.004 C 
ATOM     16  C   UNL     1      -3.218  -2.611   5.722  0.00  0.00    -0.019 C 
ATOM     17  C   UNL     1      -2.312  -3.259   4.673  0.00  0.00    -0.078 C 
ATOM     18  H   UNL     1      -0.637  -2.337   5.380  0.00  0.00    -0.081 HD
ENDBRANCH   1  12
BRANCH   1  19
ATOM     19  C   UNL     1       1.400  -3.792   4.602  0.00  0.00    +0.093 C 
BRANCH  19  20
ATOM     20  N   UNL     1       2.265  -4.416   3.597  0.00  0.00    -0.316 N 
ATOM     21  C   UNL     1       3.576  -4.596   3.855  0.00  0.00    +0.224 C 
ATOM     22  O   UNL     1       4.039  -4.243   4.918  0.00  0.00    -0.275 OA
ATOM     23  H   UNL     1       1.895  -4.699   2.746  0.00  0.00    +0.149 HD
BRANCH  21  24
ATOM     24  C   UNL     1       4.465  -5.238   2.821  0.00  0.00    +0.078 C 
ATOM     25  C   UNL     1       4.003  -6.680   2.550  0.00  0.00    +0.021 C 
ATOM     26  C   UNL     1       5.184  -7.599   2.926  0.00  0.00    +0.001 C 
ATOM     27  C   UNL     1       6.011  -6.763   3.934  0.00  0.00    +0.001 C 
ATOM     28  C   UNL     1       5.911  -5.330   3.353  0.00  0.00    +0.021 C 
BRANCH  24  29
ATOM     29  C   UNL     1       4.435  -4.436   1.545  0.00  0.00    +0.005 A 
ATOM     30  C   UNL     1       3.377  -4.125   0.758  0.00  0.00    +0.012 A 
ATOM     31  C   UNL     1       3.587  -3.367  -0.379  0.00  0.00    +0.008 A 
ATOM     32  C   UNL     1       4.845  -2.958  -0.673  0.00  0.00    +0.045 A 
ATOM     33  S   UNL     1       5.783  -3.643   0.683  0.00  0.00    -0.101 S 
ENDBRANCH  24  29
ENDBRANCH  21  24
ENDBRANCH  19  20
ENDBRANCH   1  19
TORSDOF 6
