REMARK  Name = ZINC05484670
REMARK  8 active torsions:
REMARK  status: ('A' for Active; 'I' for Inactive)
REMARK    1  A    between atoms: C_1  and  C_2
REMARK    2  A    between atoms: C_9  and  N_21
REMARK    3  A    between atoms: C_10  and  C_13
REMARK    4  A    between atoms: C_16  and  O_19
REMARK    5  A    between atoms: O_19  and  C_20
REMARK    6  A    between atoms: C_22  and  C_24
REMARK    7  A    between atoms: C_29  and  O_30
REMARK    8  A    between atoms: O_30  and  C_31
REMARK                            x       y       z     vdW  Elec       q    Type
REMARK                         _______ _______ _______ _____ _____    ______ ____
ROOT
ATOM      1  C   UNL     1       2.600  -2.771  -0.037  0.00  0.00    +0.047 C 
ATOM      2  C   UNL     1       1.277  -2.049  -0.021  0.00  0.00    -0.007 A 
ATOM      3  C   UNL     1       0.100  -2.768  -0.014  0.00  0.00    +0.007 A 
ATOM      4  C   UNL     1      -1.125  -2.118   0.001  0.00  0.00    +0.001 A 
ATOM      5  C   UNL     1      -1.181  -0.741   0.010  0.00  0.00    +0.015 A 
ATOM      6  C   UNL     1       0.002  -0.004   0.002  0.00  0.00    +0.065 A 
ATOM      7  C   UNL     1       1.242  -0.660  -0.013  0.00  0.00    +0.144 A 
ATOM      8  O   UNL     1       2.387   0.056  -0.020  0.00  0.00    -0.440 OA
ATOM      9  C   UNL     1       2.398   1.394  -0.013  0.00  0.00    +0.205 A 
ATOM     10  C   UNL     1       1.234   2.141   0.002  0.00  0.00    +0.087 A 
ATOM     11  C   UNL     1      -0.018   1.472   0.010  0.00  0.00    +0.202 A 
ATOM     12  O   UNL     1      -1.068   2.092   0.018  0.00  0.00    -0.286 OA
ENDROOT
BRANCH  10  13
ATOM     13  C   UNL     1       1.294   3.622   0.009  0.00  0.00    -0.009 A 
ATOM     14  C   UNL     1       1.826   4.306  -1.083  0.00  0.00    +0.012 A 
ATOM     15  C   UNL     1       1.875   5.684  -1.075  0.00  0.00    +0.046 A 
ATOM     16  C   UNL     1       1.405   6.391   0.024  0.00  0.00    +0.120 A 
ATOM     17  C   UNL     1       0.880   5.713   1.115  0.00  0.00    +0.046 A 
ATOM     18  C   UNL     1       0.823   4.335   1.111  0.00  0.00    +0.012 A 
BRANCH  16  19
ATOM     19  O   UNL     1       1.460   7.749   0.031  0.00  0.00    -0.495 OA
ATOM     20  C   UNL     1       2.013   8.382  -1.124  0.00  0.00    +0.277 C 
ENDBRANCH  16  19
ENDBRANCH  10  13
BRANCH   9  21
ATOM     21  N   UNL     1       3.607   2.048  -0.020  0.00  0.00    -0.252 N 
ATOM     22  C   UNL     1       4.755   1.342  -0.035  0.00  0.00    +0.254 C 
ATOM     23  O   UNL     1       4.721   0.127  -0.042  0.00  0.00    -0.270 OA
ATOM     24  H   UNL     1       3.634   3.018  -0.015  0.00  0.00    +0.158 HD
BRANCH  22  25
ATOM     25  C   UNL     1       6.052   2.043  -0.043  0.00  0.00    +0.079 A 
ATOM     26  C   UNL     1       6.096   3.440  -0.041  0.00  0.00    +0.017 A 
ATOM     27  C   UNL     1       7.311   4.090  -0.044  0.00  0.00    +0.001 A 
ATOM     28  C   UNL     1       8.491   3.364  -0.059  0.00  0.00    +0.004 A 
ATOM     29  C   UNL     1       8.463   1.984  -0.067  0.00  0.00    +0.046 A 
ATOM     30  C   UNL     1       7.248   1.313  -0.059  0.00  0.00    +0.132 A 
BRANCH  30  31
ATOM     31  O   UNL     1       7.219  -0.043  -0.066  0.00  0.00    -0.494 OA
ATOM     32  C   UNL     1       8.477  -0.719  -0.082  0.00  0.00    +0.277 C 
ENDBRANCH  30  31
ENDBRANCH  22  25
ENDBRANCH   9  21
TORSDOF 5
