REMARK  Name = ZINC33771493
REMARK  12 active torsions:
REMARK  status: ('A' for Active; 'I' for Inactive)
REMARK    1  A    between atoms: C_1  and  C_2
REMARK    2  A    between atoms: C_2  and  C_3
REMARK    3  A    between atoms: C_3  and  C_4
REMARK    4  A    between atoms: C_4  and  O_5
REMARK    5  A    between atoms: O_5  and  C_6
REMARK    6  A    between atoms: C_10  and  C_12
REMARK    7  A    between atoms: C_12  and  C_13
REMARK    8  A    between atoms: C_14  and  C_31
REMARK    9  A    between atoms: C_23  and  C_30
REMARK   10  A    between atoms: C_24  and  C_26
REMARK   11  A    between atoms: C_26  and  O_28
REMARK   12  A    between atoms: O_28  and  C_29
REMARK                            x       y       z     vdW  Elec       q    Type
REMARK                         _______ _______ _______ _____ _____    ______ ____
ROOT
ATOM      1  C   UNL     1      -6.166   2.792   3.574  0.00  0.00    +0.080 C 
ATOM      2  C   UNL     1      -4.688   2.616   3.834  0.00  0.00    +0.187 C 
ATOM      3  N   UNL     1      -4.170   1.770   2.755  0.00  0.00    -0.229 N 
ATOM      4  C   UNL     1      -5.177   1.459   1.921  0.00  0.00    +0.293 C 
ATOM      5  O   UNL     1      -5.068   0.773   0.925  0.00  0.00    -0.266 OA
ATOM      6  C   UNL     1      -6.444   2.073   2.399  0.00  0.00    +0.250 C 
ATOM      7  O   UNL     1      -7.533   1.974   1.863  0.00  0.00    -0.282 OA
ATOM      8  C   UNL     1      -2.856   1.365   2.613  0.00  0.00    +0.169 A 
ATOM      9  N   UNL     1      -2.319   0.611   1.666  0.00  0.00    -0.229 NA
ATOM     10  C   UNL     1      -1.048   0.306   1.671  0.00  0.00    +0.062 A 
ATOM     11  C   UNL     1      -0.267   0.810   2.703  0.00  0.00    +0.120 A 
ATOM     12  S   UNL     1      -1.494   1.721   3.629  0.00  0.00    -0.045 S 
ATOM     13  C   UNL     1      -0.450  -0.558   0.591  0.00  0.00    +0.067 C 
ENDROOT
BRANCH   2  14
ATOM     14  C   UNL     1      -3.998   3.955   3.818  0.00  0.00    +0.130 A 
ATOM     15  C   UNL     1      -3.622   4.660   4.901  0.00  0.00    +0.047 A 
ATOM     16  C   UNL     1      -3.016   5.846   4.427  0.00  0.00    +0.041 A 
ATOM     17  C   UNL     1      -3.056   5.795   3.084  0.00  0.00    +0.195 A 
ATOM     18  O   UNL     1      -3.647   4.645   2.720  0.00  0.00    -0.466 OA
ENDBRANCH   2  14
BRANCH   1  19
ATOM     19  C   UNL     1      -7.062   3.514   4.335  0.00  0.00    +0.195 C 
ATOM     20  O   UNL     1      -6.673   4.041   5.516  0.00  0.00    -0.287 OA
BRANCH  19  25
ATOM     21  C   UNL     1     -10.816   3.601   4.245  0.00  0.00    +0.121 A 
ATOM     22  C   UNL     1     -11.040   4.079   2.960  0.00  0.00    +0.046 A 
ATOM     23  C   UNL     1      -9.975   4.372   2.129  0.00  0.00    +0.004 A 
ATOM     24  C   UNL     1      -8.680   4.196   2.571  0.00  0.00    +0.012 A 
ATOM     25  C   UNL     1      -8.443   3.709   3.860  0.00  0.00    +0.026 A 
ATOM     26  C   UNL     1      -9.522   3.414   4.699  0.00  0.00    +0.057 A 
BRANCH  21  27
ATOM     27  O   UNL     1     -11.868   3.315   5.057  0.00  0.00    -0.492 OA
BRANCH  27  28
ATOM     28  C   UNL     1     -13.176   3.531   4.524  0.00  0.00    +0.229 C 
BRANCH  28  29
ATOM     29  C   UNL     1     -14.223   3.157   5.574  0.00  0.00    +0.041 C 
BRANCH  29  31
ATOM     30  C   UNL     1     -16.671   3.014   6.054  0.00  0.00    +0.004 C 
ATOM     31  C   UNL     1     -15.624   3.388   5.003  0.00  0.00    -0.000 C 
ENDBRANCH  29  31
ENDBRANCH  28  29
ENDBRANCH  27  28
ENDBRANCH  21  27
ENDBRANCH  19  25
ENDBRANCH   1  19
BRANCH  11  32
ATOM     32  C   UNL     1       1.163   0.643   2.959  0.00  0.00    +0.347 C 
ATOM     33  O   UNL     1       1.842  -0.025   2.202  0.00  0.00    -0.244 OA
BRANCH  32  34
ATOM     34  O   UNL     1       1.728   1.228   4.035  0.00  0.00    -0.464 OA
ATOM     35  C   UNL     1       3.130   1.022   4.224  0.00  0.00    +0.280 C 
ENDBRANCH  32  34
ENDBRANCH  11  32
TORSDOF 9
