REMARK  Name = ZINC57782189
REMARK  16 active torsions:
REMARK  status: ('A' for Active; 'I' for Inactive)
REMARK    1  A    between atoms: C_1  and  C_2
REMARK    2  A    between atoms: C_2  and  C_3
REMARK    3  A    between atoms: C_3  and  C_4
REMARK    4  A    between atoms: C_4  and  N_5
REMARK    5  A    between atoms: C_6  and  C_22
REMARK    6  A    between atoms: C_9  and  S_10
REMARK    7  A    between atoms: S_10  and  C_11
REMARK    8  A    between atoms: C_11  and  C_12
REMARK    9  A    between atoms: C_12  and  C_13
REMARK   10  A    between atoms: C_13  and  O_14
REMARK   11  A    between atoms: O_14  and  C_15
REMARK   12  A    between atoms: C_22  and  C_24
REMARK   13  A    between atoms: C_22  and  N_26
REMARK   14  A    between atoms: C_24  and  C_25
REMARK   15  A    between atoms: N_26  and  C_27
REMARK   16  A    between atoms: N_26  and  C_28
REMARK                            x       y       z     vdW  Elec       q    Type
REMARK                         _______ _______ _______ _____ _____    ______ ____
ROOT
ATOM      1  N   UNL     1      -1.967  -3.190   0.298  0.00  0.00    -0.307 N 
ATOM      2  C   UNL     1      -3.013  -3.127   1.177  0.00  0.00    +0.120 A 
ATOM      3  N   UNL     1      -4.106  -3.312   0.492  0.00  0.00    -0.135 NA
ATOM      4  N   UNL     1      -3.825  -3.486  -0.750  0.00  0.00    -0.123 NA
ATOM      5  C   UNL     1      -2.526  -3.415  -0.927  0.00  0.00    +0.192 A 
ENDROOT
BRANCH   1   6
ATOM      6  C   UNL     1      -0.543  -3.039   0.607  0.00  0.00    +0.125 C 
BRANCH   6   7
ATOM      7  C   UNL     1      -0.151  -1.564   0.499  0.00  0.00    +0.021 C 
BRANCH   7   9
ATOM      8  C   UNL     1       1.729   0.068   0.714  0.00  0.00    +0.004 C 
ATOM      9  C   UNL     1       1.337  -1.407   0.821  0.00  0.00    -0.002 C 
ENDBRANCH   7   9
ENDBRANCH   6   7
ENDBRANCH   1   6
BRANCH   5  10
ATOM     10  S   UNL     1      -1.666  -3.583  -2.456  0.00  0.00    -0.086 S 
BRANCH  10  11
ATOM     11  C   UNL     1      -2.983  -3.863  -3.671  0.00  0.00    +0.081 C 
BRANCH  11  12
ATOM     12  C   UNL     1      -2.366  -4.028  -5.062  0.00  0.00    +0.052 C 
BRANCH  12  13
ATOM     13  C   UNL     1      -3.477  -4.263  -6.088  0.00  0.00    +0.230 C 
BRANCH  13  14
ATOM     14  O   UNL     1      -2.901  -4.417  -7.386  0.00  0.00    -0.492 OA
BRANCH  14  15
ATOM     15  C   UNL     1      -3.758  -4.635  -8.419  0.00  0.00    +0.121 A 
ATOM     16  C   UNL     1      -5.124  -4.694  -8.188  0.00  0.00    +0.047 A 
ATOM     17  C   UNL     1      -5.993  -4.916  -9.238  0.00  0.00    +0.023 A 
ATOM     18  C   UNL     1      -5.501  -5.080 -10.521  0.00  0.00    +0.041 A 
ATOM     19  C   UNL     1      -4.138  -5.022 -10.754  0.00  0.00    +0.023 A 
ATOM     20  C   UNL     1      -3.267  -4.794  -9.707  0.00  0.00    +0.047 A 
ATOM     21 CL   UNL     1      -6.595  -5.359 -11.840  0.00  0.00    -0.084 Cl
ENDBRANCH  14  15
ENDBRANCH  13  14
ENDBRANCH  12  13
ENDBRANCH  11  12
ENDBRANCH  10  11
ENDBRANCH   5  10
BRANCH   2  22
ATOM     22  C   UNL     1      -2.919  -2.890   2.662  0.00  0.00    +0.000 C 
BRANCH  22  23
ATOM     23  N   UNL     1      -3.795  -3.836   3.366  0.00  0.00    +0.383 N 
ATOM     24  C   UNL     1      -3.380  -5.211   3.056  0.00  0.00    -0.096 C 
ATOM     25  C   UNL     1      -3.698  -3.610   4.814  0.00  0.00    -0.096 C 
ATOM     26  H   UNL     1      -4.749  -3.698   3.067  0.00  0.00    -0.082 HD
ENDBRANCH  22  23
BRANCH  22  27
ATOM     27  C   UNL     1      -3.357  -1.458   2.978  0.00  0.00    -0.011 C 
ATOM     28  C   UNL     1      -4.810  -1.261   2.542  0.00  0.00    +0.002 C 
ENDBRANCH  22  27
ENDBRANCH   2  22
TORSDOF 12
