REMARK  Name = ZINC13064978
REMARK  13 active torsions:
REMARK  status: ('A' for Active; 'I' for Inactive)
REMARK    1  A    between atoms: C_1  and  C_2
REMARK    2  A    between atoms: C_2  and  C_3
REMARK    3  A    between atoms: C_3  and  C_5
REMARK    4  A    between atoms: C_3  and  N_72
REMARK    5  A    between atoms: N_9  and  C_10
REMARK    6  A    between atoms: C_10  and  C_11
REMARK    7  A    between atoms: C_11  and  C_12
REMARK    8  A    between atoms: C_18  and  C_19
REMARK    9  A    between atoms: C_18  and  N_72
REMARK   10  A    between atoms: C_26  and  C_27
REMARK   11  A    between atoms: C_26  and  N_72
REMARK   12  A    between atoms: C_30  and  C_40
REMARK   13  A    between atoms: C_32  and  C_39
REMARK                            x       y       z     vdW  Elec       q    Type
REMARK                         _______ _______ _______ _____ _____    ______ ____
ROOT
ATOM      1  N   UNL     1       4.042  -0.421  -1.299  0.00  0.00    +0.392 N 
ATOM      2  H   UNL     1       3.732  -0.288  -2.268  0.00  0.00    -0.080 HD
ENDROOT
BRANCH   1   3
ATOM      3  C   UNL     1       3.696   0.784  -0.515  0.00  0.00    +0.003 C 
BRANCH   3   4
ATOM      4  C   UNL     1       4.266   0.691   0.877  0.00  0.00    +0.138 A 
ATOM      5  N   UNL     1       5.473   0.298   1.204  0.00  0.00    -0.115 NA
ATOM      6  N   UNL     1       5.576   0.357   2.487  0.00  0.00    -0.023 NA
ATOM      7  N   UNL     1       4.467   0.777   2.986  0.00  0.00    -0.044 NA
ATOM      8  N   UNL     1       3.633   0.994   2.026  0.00  0.00    -0.231 N 
BRANCH   8   9
ATOM      9  C   UNL     1       2.257   1.478   2.160  0.00  0.00    +0.152 C 
BRANCH   9  10
ATOM     10  C   UNL     1       2.247   3.007   2.106  0.00  0.00    +0.058 C 
BRANCH  10  11
ATOM     11  C   UNL     1       0.832   3.505   2.244  0.00  0.00    -0.046 A 
ATOM     12  C   UNL     1       0.053   3.696   1.118  0.00  0.00    +0.004 A 
ATOM     13  C   UNL     1      -1.247   4.148   1.245  0.00  0.00    +0.000 A 
ATOM     14  C   UNL     1      -1.765   4.420   2.498  0.00  0.00    +0.000 A 
ATOM     15  C   UNL     1      -0.985   4.234   3.624  0.00  0.00    +0.000 A 
ATOM     16  C   UNL     1       0.314   3.776   3.497  0.00  0.00    +0.004 A 
ENDBRANCH  10  11
ENDBRANCH   9  10
ENDBRANCH   8   9
ENDBRANCH   3   4
BRANCH   3  18
ATOM     17  C   UNL     1       3.591   2.188  -2.579  0.00  0.00    +0.002 C 
ATOM     18  C   UNL     1       4.271   2.014  -1.220  0.00  0.00    -0.011 C 
ENDBRANCH   3  18
ENDBRANCH   1   3
BRANCH   1  19
ATOM     19  C   UNL     1       3.361  -1.604  -0.734  0.00  0.00    -0.042 C 
BRANCH  19  20
ATOM     20  C   UNL     1       1.910  -1.565  -1.139  0.00  0.00    -0.064 A 
ATOM     21  C   UNL     1       0.963  -1.058  -0.268  0.00  0.00    +0.004 A 
ATOM     22  C   UNL     1      -0.367  -1.017  -0.640  0.00  0.00    +0.038 A 
ATOM     23  C   UNL     1      -0.753  -1.494  -1.881  0.00  0.00    +0.123 A 
ATOM     24  C   UNL     1       0.195  -2.007  -2.750  0.00  0.00    +0.038 A 
ATOM     25  C   UNL     1       1.525  -2.042  -2.378  0.00  0.00    +0.004 A 
ATOM     26  F   UNL     1      -2.054  -1.459  -2.244  0.00  0.00    -0.205 F 
ENDBRANCH  19  20
ENDBRANCH   1  19
BRANCH   1  27
ATOM     27  C   UNL     1       5.506  -0.627  -1.287  0.00  0.00    -0.036 C 
BRANCH  27  28
ATOM     28  C   UNL     1       5.866  -1.599  -2.381  0.00  0.00    +0.001 A 
ATOM     29  C   UNL     1       6.211  -1.137  -3.608  0.00  0.00    +0.017 A 
ATOM     30  C   UNL     1       6.555  -2.108  -4.649  0.00  0.00    +0.002 A 
ATOM     31  C   UNL     1       6.920  -1.692  -5.934  0.00  0.00    -0.041 A 
ATOM     32  C   UNL     1       7.236  -2.622  -6.883  0.00  0.00    +0.007 A 
ATOM     33  C   UNL     1       7.198  -3.977  -6.584  0.00  0.00    -0.048 A 
ATOM     34  C   UNL     1       6.842  -4.410  -5.325  0.00  0.00    +0.029 A 
ATOM     35  C   UNL     1       6.516  -3.481  -4.342  0.00  0.00    +0.050 A 
ATOM     36  N   UNL     1       6.157  -3.885  -3.074  0.00  0.00    -0.322 N 
ATOM     37  H   UNL     1       6.131  -4.832  -2.864  0.00  0.00    +0.169 HD
ATOM     38  C   UNL     1       5.848  -2.987  -2.123  0.00  0.00    +0.251 A 
ATOM     39  O   UNL     1       5.540  -3.380  -1.011  0.00  0.00    -0.268 OA
ATOM     40  C   UNL     1       7.551  -4.986  -7.646  0.00  0.00    +0.044 C 
ATOM     41  C   UNL     1       6.963  -0.223  -6.270  0.00  0.00    +0.044 C 
ENDBRANCH  27  28
ENDBRANCH   1  27
TORSDOF 10
