REMARK  Name = ZINC21077687
REMARK  7 active torsions:
REMARK  status: ('A' for Active; 'I' for Inactive)
REMARK    1  A    between atoms: C_5  and  C_7
REMARK    2  A    between atoms: N_8  and  N_9
REMARK    3  A    between atoms: C_12  and  S_15
REMARK    4  A    between atoms: S_15  and  C_16
REMARK    5  A    between atoms: C_16  and  C_17
REMARK    6  A    between atoms: C_17  and  O_19
REMARK    7  A    between atoms: O_19  and  C_20
REMARK                            x       y       z     vdW  Elec       q    Type
REMARK                         _______ _______ _______ _____ _____    ______ ____
ROOT
ATOM      1  N   UNL     1      -3.751   5.856   0.065  0.00  0.00    -0.205 N 
ATOM      2  C   UNL     1      -3.764   7.243   0.071  0.00  0.00    +0.232 A 
ATOM      3  N   UNL     1      -4.878   8.036   0.086  0.00  0.00    -0.186 NA
ATOM      4  C   UNL     1      -4.469   9.339   0.087  0.00  0.00    +0.211 A 
ATOM      5  N   UNL     1      -3.158   9.352   0.075  0.00  0.00    -0.144 NA
ATOM      6  N   UNL     1      -2.712   8.024   0.071  0.00  0.00    -0.245 N 
ATOM      7  H   UNL     1      -4.698   5.297   0.072  0.00  0.00    +0.177 HD
ATOM      8  H   UNL     1      -1.702   7.587   0.067  0.00  0.00    +0.192 HD
ENDROOT
BRANCH   1  10
ATOM      9  C   UNL     1      -2.518   3.869   0.045  0.00  0.00    +0.139 C 
ATOM     10  N   UNL     1      -2.531   5.167   0.051  0.00  0.00    -0.188 NA
BRANCH   9  15
ATOM     11  C   UNL     1      -0.013   1.076   0.008  0.00  0.00    +0.001 A 
ATOM     12  C   UNL     1       1.178   1.782   0.000  0.00  0.00    +0.001 A 
ATOM     13  C   UNL     1       1.169   3.165   0.007  0.00  0.00    +0.020 A 
ATOM     14  C   UNL     1      -0.029   3.852   0.022  0.00  0.00    +0.050 A 
ATOM     15  C   UNL     1      -1.235   3.144   0.030  0.00  0.00    +0.013 A 
ATOM     16  C   UNL     1      -1.217   1.747   0.017  0.00  0.00    +0.011 A 
ATOM     17 CL   UNL     1      -0.038   5.588   0.029  0.00  0.00    -0.083 Cl
ENDBRANCH   9  15
ENDBRANCH   1  10
BRANCH   4  18
ATOM     18  S   UNL     1      -5.519  10.754   0.104  0.00  0.00    -0.073 S 
BRANCH  18  19
ATOM     19  C   UNL     1      -4.367  12.155   0.099  0.00  0.00    +0.197 C 
BRANCH  19  20
ATOM     20  C   UNL     1      -5.145  13.446   0.112  0.00  0.00    +0.318 C 
ATOM     21  O   UNL     1      -6.353  13.423   0.124  0.00  0.00    -0.250 OA
BRANCH  20  22
ATOM     22  O   UNL     1      -4.496  14.621   0.111  0.00  0.00    -0.461 OA
BRANCH  22  23
ATOM     23  C   UNL     1      -5.310  15.823   0.125  0.00  0.00    +0.176 C 
ATOM     24  C   UNL     1      -5.610  16.252  -1.313  0.00  0.00    +0.044 C 
ATOM     25  C   UNL     1      -6.467  17.519  -1.299  0.00  0.00    +0.004 C 
ATOM     26  C   UNL     1      -5.712  18.639  -0.580  0.00  0.00    +0.000 C 
ATOM     27  C   UNL     1      -5.412  18.210   0.858  0.00  0.00    +0.004 C 
ATOM     28  C   UNL     1      -4.554  16.943   0.844  0.00  0.00    +0.044 C 
ENDBRANCH  22  23
ENDBRANCH  20  22
ENDBRANCH  19  20
ENDBRANCH  18  19
ENDBRANCH   4  18
TORSDOF 7
