REMARK  Name = ZINC20581803
REMARK  10 active torsions:
REMARK  status: ('A' for Active; 'I' for Inactive)
REMARK    1  A    between atoms: C_1  and  C_2
REMARK    2  A    between atoms: C_2  and  S_3
REMARK    3  A    between atoms: S_3  and  N_6
REMARK    4  A    between atoms: C_12  and  C_18
REMARK    5  A    between atoms: C_13  and  C_17
REMARK    6  A    between atoms: N_20  and  C_21
REMARK    7  A    between atoms: C_21  and  C_23
REMARK    8  A    between atoms: C_21  and  C_24
REMARK    9  A    between atoms: C_24  and  C_25
REMARK   10  A    between atoms: C_25  and  C_26
REMARK                            x       y       z     vdW  Elec       q    Type
REMARK                         _______ _______ _______ _____ _____    ______ ____
ROOT
ATOM      1  N   UNL     1      -1.545  -2.281   0.005  0.00  0.00    -0.181 NA
ATOM      2  C   UNL     1      -1.481  -3.018  -1.264  0.00  0.00    +0.113 C 
ATOM      3  C   UNL     1      -2.556  -4.110  -1.254  0.00  0.00    +0.070 C 
ATOM      4  C   UNL     1      -2.385  -4.978  -0.007  0.00  0.00    +0.146 C 
ATOM      5  C   UNL     1      -2.544  -4.125   1.252  0.00  0.00    +0.070 C 
ATOM      6  C   UNL     1      -1.463  -3.033   1.264  0.00  0.00    +0.113 C 
ATOM      7  C   UNL     1      -3.409  -6.087  -0.009  0.00  0.00    +0.067 C 
ATOM      8  C   UNL     1      -2.723  -7.243  -0.019  0.00  0.00    +0.045 C 
ATOM      9  C   UNL     1      -1.282  -6.937  -0.025  0.00  0.00    +0.336 C 
ATOM     10  O   UNL     1      -0.393  -7.763  -0.035  0.00  0.00    -0.245 OA
ATOM     11  O   UNL     1      -1.101  -5.604  -0.017  0.00  0.00    -0.450 OA
ATOM     12  C   UNL     1      -3.328  -8.623  -0.024  0.00  0.00    +0.052 C 
ENDROOT
BRANCH   7  13
ATOM     13  C   UNL     1      -4.877  -5.932   0.000  0.00  0.00    +0.245 C 
ATOM     14  O   UNL     1      -5.592  -6.915  -0.002  0.00  0.00    -0.270 OA
ATOM     15  N   UNL     1      -5.425  -4.701   0.011  0.00  0.00    -0.309 N 
ATOM     16  H   UNL     1      -4.855  -3.916   0.013  0.00  0.00    +0.149 HD
BRANCH  15  17
ATOM     17  C   UNL     1      -6.882  -4.548   0.020  0.00  0.00    +0.070 C 
ATOM     18  C   UNL     1      -7.395  -4.628   1.459  0.00  0.00    +0.028 C 
BRANCH  17  19
ATOM     19  C   UNL     1      -7.256  -3.190  -0.579  0.00  0.00    +0.026 C 
BRANCH  19  20
ATOM     20  C   UNL     1      -6.854  -3.156  -2.055  0.00  0.00    +0.037 C 
BRANCH  20  21
ATOM     21  C   UNL     1      -7.222  -1.819  -2.645  0.00  0.00    -0.047 A 
ATOM     22  C   UNL     1      -8.469  -1.634  -3.213  0.00  0.00    +0.003 A 
ATOM     23  C   UNL     1      -8.806  -0.407  -3.755  0.00  0.00    +0.000 A 
ATOM     24  C   UNL     1      -7.897   0.634  -3.727  0.00  0.00    +0.000 A 
ATOM     25  C   UNL     1      -6.651   0.449  -3.158  0.00  0.00    +0.000 A 
ATOM     26  C   UNL     1      -6.315  -0.776  -2.613  0.00  0.00    +0.003 A 
ENDBRANCH  20  21
ENDBRANCH  19  20
ENDBRANCH  17  19
ENDBRANCH  15  17
ENDBRANCH   7  13
BRANCH   1  27
ATOM     27  S   UNL     1      -1.700  -0.632   0.015  0.00  0.00    +0.032 S 
ATOM     28  O   UNL     1      -2.322  -0.334   1.257  0.00  0.00    -0.158 OA
ATOM     29  O   UNL     1      -2.346  -0.321  -1.212  0.00  0.00    -0.158 OA
BRANCH  27  31
ATOM     30  C   UNL     1      -0.019   1.526   0.010  0.00  0.00    +0.029 C 
ATOM     31  C   UNL     1       0.002  -0.004   0.002  0.00  0.00    +0.182 C 
ENDBRANCH  27  31
ENDBRANCH   1  27
TORSDOF 7
