REMARK  Name = ZINC10189063
REMARK  6 active torsions:
REMARK  status: ('A' for Active; 'I' for Inactive)
REMARK    1  A    between atoms: C_4  and  C_7
REMARK    2  A    between atoms: C_7  and  C_9
REMARK    3  A    between atoms: C_7  and  S_12
REMARK    4  A    between atoms: S_12  and  C_13
REMARK    5  A    between atoms: N_23  and  C_24
REMARK    6  A    between atoms: C_29  and  C_30
REMARK                            x       y       z     vdW  Elec       q    Type
REMARK                         _______ _______ _______ _____ _____    ______ ____
ROOT
ATOM      1  C   UNL     1       3.141   4.073  -1.188  0.00  0.00    +0.178 A 
ATOM      2  N   UNL     1       3.853   5.170  -1.272  0.00  0.00    -0.223 NA
ATOM      3  C   UNL     1       4.307   5.805  -0.167  0.00  0.00    +0.079 A 
ATOM      4  C   UNL     1       5.066   6.976  -0.254  0.00  0.00    +0.028 A 
ATOM      5  C   UNL     1       5.505   7.584   0.889  0.00  0.00    +0.002 A 
ATOM      6  C   UNL     1       5.207   7.057   2.139  0.00  0.00    +0.001 A 
ATOM      7  C   UNL     1       4.467   5.913   2.257  0.00  0.00    +0.015 A 
ATOM      8  C   UNL     1       4.007   5.271   1.107  0.00  0.00    +0.065 A 
ATOM      9  C   UNL     1       3.202   4.044   1.173  0.00  0.00    +0.267 A 
ATOM     10  O   UNL     1       2.907   3.540   2.241  0.00  0.00    -0.267 OA
ATOM     11  N   UNL     1       2.806   3.492   0.003  0.00  0.00    -0.255 N 
ENDROOT
BRANCH  11  12
ATOM     12  C   UNL     1       2.041   2.318   0.013  0.00  0.00    +0.064 A 
ATOM     13  C   UNL     1       2.667   1.079  -0.020  0.00  0.00    +0.027 A 
ATOM     14  C   UNL     1       1.911  -0.076  -0.010  0.00  0.00    +0.002 A 
ATOM     15  C   UNL     1       0.530   0.000   0.027  0.00  0.00    +0.001 A 
ATOM     16  C   UNL     1      -0.096   1.232   0.065  0.00  0.00    +0.014 A 
ATOM     17  C   UNL     1       0.655   2.391   0.055  0.00  0.00    +0.079 A 
BRANCH  17  18
ATOM     18  C   UNL     1      -0.029   3.734   0.091  0.00  0.00    +0.419 C 
ATOM     19  F   UNL     1      -1.415   3.550   0.130  0.00  0.00    -0.166 F 
ATOM     20  F   UNL     1       0.381   4.436   1.230  0.00  0.00    -0.166 F 
ATOM     21  F   UNL     1       0.313   4.462  -1.054  0.00  0.00    -0.166 F 
ENDBRANCH  17  18
ENDBRANCH  11  12
BRANCH   1  22
ATOM     22  S   UNL     1       2.590   3.313  -2.679  0.00  0.00    -0.070 S 
BRANCH  22  23
ATOM     23  C   UNL     1       3.292   4.457  -3.893  0.00  0.00    +0.169 C 
BRANCH  23  27
ATOM     24  C   UNL     1       2.590   2.960  -7.832  0.00  0.00    +0.000 A 
ATOM     25  C   UNL     1       3.864   3.340  -7.454  0.00  0.00    +0.000 A 
ATOM     26  C   UNL     1       4.091   3.824  -6.179  0.00  0.00    +0.005 A 
ATOM     27  C   UNL     1       3.044   3.929  -5.283  0.00  0.00    -0.025 A 
ATOM     28  C   UNL     1       1.771   3.545  -5.660  0.00  0.00    +0.005 A 
ATOM     29  C   UNL     1       1.543   3.065  -6.936  0.00  0.00    +0.000 A 
ENDBRANCH  23  27
BRANCH  23  30
ATOM     30  C   UNL     1       2.640   5.808  -3.746  0.00  0.00    +0.228 C 
ATOM     31  O   UNL     1       3.307   6.773  -3.438  0.00  0.00    -0.274 OA
ATOM     32  N   UNL     1       1.315   5.944  -3.955  0.00  0.00    -0.328 N 
ATOM     33  H   UNL     1       0.770   5.161  -4.132  0.00  0.00    +0.145 HD
ATOM     34  H   UNL     1       0.908   6.824  -3.930  0.00  0.00    +0.145 HD
ENDBRANCH  23  30
ENDBRANCH  22  23
ENDBRANCH   1  22
TORSDOF 6
