REMARK  Name = ZINC67469226
REMARK  7 active torsions:
REMARK  status: ('A' for Active; 'I' for Inactive)
REMARK    1  A    between atoms: C_1  and  C_2
REMARK    2  A    between atoms: N_14  and  C_15
REMARK    3  A    between atoms: C_15  and  C_17
REMARK    4  A    between atoms: C_15  and  C_18
REMARK    5  A    between atoms: C_22  and  S_24
REMARK    6  A    between atoms: S_24  and  N_27
REMARK    7  A    between atoms: N_27  and  C_28
REMARK                            x       y       z     vdW  Elec       q    Type
REMARK                         _______ _______ _______ _____ _____    ______ ____
ROOT
ATOM      1  C   UNL     1      -0.026   1.527   0.018  0.00  0.00    +0.033 C 
ATOM      2  C   UNL     1      -0.004  -0.003   0.007  0.00  0.00    +0.105 C 
ATOM      3  C   UNL     1      -1.425  -0.542   0.168  0.00  0.00    -0.017 A 
ATOM      4  C   UNL     1      -2.508  -0.069  -0.571  0.00  0.00    +0.013 A 
ATOM      5  C   UNL     1      -3.739  -0.597  -0.379  0.00  0.00    +0.046 A 
ATOM      6  S   UNL     1      -3.423  -1.818   0.886  0.00  0.00    -0.101 S 
ATOM      7  C   UNL     1      -1.682  -1.532   1.065  0.00  0.00    -0.004 A 
ATOM      8  C   UNL     1      -0.719  -2.210   1.984  0.00  0.00    +0.062 C 
ATOM      9  C   UNL     1       0.711  -1.918   1.504  0.00  0.00    +0.115 C 
ATOM     10  N   UNL     1       0.795  -0.497   1.137  0.00  0.00    -0.278 N 
ATOM     11  C   UNL     1       1.593   0.341   1.828  0.00  0.00    +0.303 C 
ATOM     12  O   UNL     1       1.591   1.530   1.574  0.00  0.00    -0.253 OA
ATOM     13  N   UNL     1       2.393  -0.139   2.800  0.00  0.00    -0.293 N 
ATOM     14  H   UNL     1       2.451  -1.095   2.953  0.00  0.00    +0.151 HD
ENDROOT
BRANCH  13  15
ATOM     15  C   UNL     1       3.177   0.783   3.626  0.00  0.00    +0.102 C 
ATOM     16  C   UNL     1       4.489   1.118   2.913  0.00  0.00    +0.033 C 
BRANCH  15  17
ATOM     17  C   UNL     1       3.477   0.137   4.954  0.00  0.00    -0.026 A 
ATOM     18  C   UNL     1       3.815  -1.202   5.010  0.00  0.00    +0.005 A 
ATOM     19  C   UNL     1       4.090  -1.795   6.228  0.00  0.00    +0.002 A 
ATOM     20  C   UNL     1       4.028  -1.048   7.390  0.00  0.00    +0.028 A 
ATOM     21  C   UNL     1       3.691   0.291   7.333  0.00  0.00    +0.106 A 
ATOM     22  C   UNL     1       3.420   0.885   6.115  0.00  0.00    +0.034 A 
BRANCH  21  23
ATOM     23  S   UNL     1       3.612   1.242   8.814  0.00  0.00    +0.058 S 
ATOM     24  O   UNL     1       2.743   2.335   8.549  0.00  0.00    -0.153 OA
ATOM     25  O   UNL     1       3.380   0.325   9.874  0.00  0.00    -0.153 OA
BRANCH  23  26
ATOM     26  N   UNL     1       5.117   1.884   9.065  0.00  0.00    -0.193 NA
ATOM     27  C   UNL     1       5.666   2.858   8.118  0.00  0.00    +0.127 C 
ATOM     28  H   UNL     1       5.636   1.616   9.840  0.00  0.00    +0.148 HD
ENDBRANCH  23  26
ENDBRANCH  21  23
ENDBRANCH  15  17
ENDBRANCH  13  15
TORSDOF 4
