REMARK  Name = ZINC13065161
REMARK  14 active torsions:
REMARK  status: ('A' for Active; 'I' for Inactive)
REMARK    1  A    between atoms: C_1  and  C_2
REMARK    2  A    between atoms: C_2  and  C_3
REMARK    3  A    between atoms: C_3  and  C_5
REMARK    4  A    between atoms: C_3  and  N_71
REMARK    5  A    between atoms: N_9  and  C_10
REMARK    6  A    between atoms: C_10  and  C_11
REMARK    7  A    between atoms: C_10  and  C_12
REMARK    8  A    between atoms: C_10  and  C_13
REMARK    9  A    between atoms: C_14  and  C_15
REMARK   10  A    between atoms: C_14  and  N_71
REMARK   11  A    between atoms: C_24  and  C_25
REMARK   12  A    between atoms: C_24  and  N_71
REMARK   13  A    between atoms: C_28  and  C_38
REMARK   14  A    between atoms: C_31  and  C_37
REMARK                            x       y       z     vdW  Elec       q    Type
REMARK                         _______ _______ _______ _____ _____    ______ ____
ROOT
ATOM      1  N   UNL     1      -0.935   1.828   0.548  0.00  0.00    +0.392 N 
ATOM      2  H   UNL     1      -1.361   0.925   0.785  0.00  0.00    -0.080 HD
ENDROOT
BRANCH   1   3
ATOM      3  C   UNL     1      -1.994   2.856   0.478  0.00  0.00    +0.003 C 
BRANCH   3   4
ATOM      4  C   UNL     1      -3.278   2.194   0.047  0.00  0.00    +0.139 A 
ATOM      5  N   UNL     1      -3.401   1.208  -0.807  0.00  0.00    -0.115 NA
ATOM      6  N   UNL     1      -4.653   0.921  -0.907  0.00  0.00    -0.023 NA
ATOM      7  N   UNL     1      -5.333   1.705  -0.144  0.00  0.00    -0.043 NA
ATOM      8  N   UNL     1      -4.521   2.504   0.461  0.00  0.00    -0.226 N 
BRANCH   8   9
ATOM      9  C   UNL     1      -4.883   3.552   1.419  0.00  0.00    +0.059 C 
ATOM     10  C   UNL     1      -4.226   4.871   1.004  0.00  0.00    +0.036 C 
ATOM     11  C   UNL     1      -6.403   3.723   1.437  0.00  0.00    +0.036 C 
ATOM     12  C   UNL     1      -4.396   3.157   2.815  0.00  0.00    +0.036 C 
ENDBRANCH   8   9
ENDBRANCH   3   4
BRANCH   3  14
ATOM     13  C   UNL     1      -0.336   4.641  -0.074  0.00  0.00    +0.002 C 
ATOM     14  C   UNL     1      -1.618   3.943  -0.531  0.00  0.00    -0.011 C 
ENDBRANCH   3  14
ENDBRANCH   1   3
BRANCH   1  15
ATOM     15  C   UNL     1      -0.259   1.710  -0.762  0.00  0.00    -0.041 C 
BRANCH  15  16
ATOM     16  C   UNL     1      -1.212   1.081  -1.745  0.00  0.00    -0.060 A 
ATOM     17  C   UNL     1      -1.556  -0.252  -1.615  0.00  0.00    +0.005 A 
ATOM     18  C   UNL     1      -2.435  -0.832  -2.511  0.00  0.00    +0.050 A 
ATOM     19  C   UNL     1      -2.964  -0.082  -3.549  0.00  0.00    +0.166 A 
ATOM     20  C   UNL     1      -2.613   1.260  -3.682  0.00  0.00    +0.166 A 
ATOM     21  C   UNL     1      -1.737   1.836  -2.777  0.00  0.00    +0.051 A 
ATOM     22  O   UNL     1      -3.259   1.773  -4.769  0.00  0.00    -0.453 OA
ATOM     23  C   UNL     1      -3.687   0.633  -5.537  0.00  0.00    +0.466 C 
ATOM     24  O   UNL     1      -3.829  -0.408  -4.552  0.00  0.00    -0.453 OA
ENDBRANCH  15  16
ENDBRANCH   1  15
BRANCH   1  25
ATOM     25  C   UNL     1       0.048   2.185   1.593  0.00  0.00    -0.036 C 
BRANCH  25  26
ATOM     26  C   UNL     1      -0.572   1.938   2.944  0.00  0.00    +0.001 A 
ATOM     27  C   UNL     1      -0.413   0.736   3.550  0.00  0.00    +0.017 A 
ATOM     28  C   UNL     1      -1.023   0.530   4.865  0.00  0.00    +0.002 A 
ATOM     29  C   UNL     1      -0.889  -0.686   5.543  0.00  0.00    -0.041 A 
ATOM     30  C   UNL     1      -1.474  -0.849   6.766  0.00  0.00    +0.004 A 
ATOM     31  C   UNL     1      -2.202   0.183   7.344  0.00  0.00    +0.005 A 
ATOM     32  C   UNL     1      -2.348   1.390   6.694  0.00  0.00    -0.026 A 
ATOM     33  C   UNL     1      -1.760   1.579   5.447  0.00  0.00    +0.052 A 
ATOM     34  N   UNL     1      -1.889   2.776   4.776  0.00  0.00    -0.322 N 
ATOM     35  H   UNL     1      -2.397   3.497   5.179  0.00  0.00    +0.169 HD
ATOM     36  C   UNL     1      -1.321   2.958   3.571  0.00  0.00    +0.251 A 
ATOM     37  O   UNL     1      -1.456   4.029   3.006  0.00  0.00    -0.268 OA
ATOM     38  C   UNL     1      -3.140   2.502   7.333  0.00  0.00    +0.046 C 
ATOM     39  C   UNL     1      -0.101  -1.813   4.926  0.00  0.00    +0.044 C 
ENDBRANCH  25  26
ENDBRANCH   1  25
TORSDOF 8
