REMARK  Name = ZINC39658336
REMARK  7 active torsions:
REMARK  status: ('A' for Active; 'I' for Inactive)
REMARK    1  A    between atoms: C_4  and  C_7
REMARK    2  A    between atoms: C_7  and  S_8
REMARK    3  A    between atoms: S_8  and  C_9
REMARK    4  A    between atoms: C_9  and  C_10
REMARK    5  A    between atoms: C_10  and  N_11
REMARK    6  A    between atoms: C_12  and  C_14
REMARK    7  A    between atoms: C_25  and  C_27
REMARK                            x       y       z     vdW  Elec       q    Type
REMARK                         _______ _______ _______ _____ _____    ______ ____
ROOT
ATOM      1  C   UNL     1       9.681  -4.043   3.622  0.00  0.00    +0.100 C 
ATOM      2  C   UNL     1      10.675  -3.193   2.800  0.00  0.00    +0.121 C 
ATOM      3  N   UNL     1      11.486  -2.479   3.814  0.00  0.00    -0.296 N 
ATOM      4  C   UNL     1      11.702  -3.482   4.885  0.00  0.00    +0.115 C 
ATOM      5  C   UNL     1      10.360  -4.233   4.989  0.00  0.00    -0.004 C 
ATOM      6  C   UNL     1      10.605  -5.715   5.256  0.00  0.00    -0.010 C 
ATOM      7  C   UNL     1      11.227  -5.883   6.645  0.00  0.00    -0.082 C 
ATOM      8  N   UNL     1      10.324  -5.325   7.659  0.00  0.00    +0.379 N 
ATOM      9  C   UNL     1      10.168  -3.880   7.450  0.00  0.00    -0.082 C 
ATOM     10  C   UNL     1       9.501  -3.628   6.095  0.00  0.00    -0.010 C 
ATOM     11  C   UNL     1      11.928  -1.207   3.773  0.00  0.00    +0.249 C 
ATOM     12  O   UNL     1      12.588  -0.762   4.691  0.00  0.00    -0.270 OA
ATOM     13  H   UNL     1       9.422  -5.773   7.588  0.00  0.00    -0.086 HD
ATOM     14  H   UNL     1      10.707  -5.491   8.577  0.00  0.00    -0.086 HD
ENDROOT
BRANCH  11  15
ATOM     15  C   UNL     1      11.608  -0.352   2.611  0.00  0.00    +0.073 A 
ATOM     16  C   UNL     1      10.449   0.427   2.610  0.00  0.00    +0.054 A 
ATOM     17  C   UNL     1      10.157   1.224   1.520  0.00  0.00    +0.021 A 
ATOM     18  C   UNL     1      11.010   1.252   0.432  0.00  0.00    +0.003 A 
ATOM     19  C   UNL     1      12.160   0.483   0.425  0.00  0.00    +0.021 A 
ATOM     20  C   UNL     1      12.468  -0.315   1.510  0.00  0.00    +0.054 A 
ATOM     21 CL   UNL     1      13.915  -1.273   1.502  0.00  0.00    -0.083 Cl
ATOM     22 CL   UNL     1       9.376   0.394   3.975  0.00  0.00    -0.083 Cl
ENDBRANCH  11  15
BRANCH   1  24
ATOM     23  N   UNL     1       7.237  -4.003   3.999  0.00  0.00    -0.314 N 
ATOM     24  C   UNL     1       8.374  -3.312   3.783  0.00  0.00    +0.218 C 
ATOM     25  O   UNL     1       8.344  -2.101   3.719  0.00  0.00    -0.275 OA
ATOM     26  H   UNL     1       7.260  -4.971   4.050  0.00  0.00    +0.149 HD
BRANCH  23  27
ATOM     27  C   UNL     1       5.966  -3.292   4.155  0.00  0.00    +0.115 C 
BRANCH  27  28
ATOM     28  C   UNL     1       4.841  -4.303   4.387  0.00  0.00    +0.088 C 
BRANCH  28  29
ATOM     29  S   UNL     1       3.267  -3.422   4.580  0.00  0.00    -0.155 S 
BRANCH  29  30
ATOM     30  C   UNL     1       2.053  -4.745   4.843  0.00  0.00    +0.104 C 
BRANCH  30  34
ATOM     31  C   UNL     1      -1.830  -3.038   5.348  0.00  0.00    +0.000 A 
ATOM     32  C   UNL     1      -1.384  -3.380   4.085  0.00  0.00    +0.000 A 
ATOM     33  C   UNL     1      -0.127  -3.932   3.922  0.00  0.00    +0.004 A 
ATOM     34  C   UNL     1       0.684  -4.142   5.021  0.00  0.00    -0.038 A 
ATOM     35  C   UNL     1       0.238  -3.799   6.284  0.00  0.00    +0.004 A 
ATOM     36  C   UNL     1      -1.019  -3.248   6.448  0.00  0.00    +0.000 A 
ENDBRANCH  30  34
ENDBRANCH  29  30
ENDBRANCH  28  29
ENDBRANCH  27  28
ENDBRANCH  23  27
ENDBRANCH   1  24
TORSDOF 7
