REMARK  Name = ZINC00743522
REMARK  9 active torsions:
REMARK  status: ('A' for Active; 'I' for Inactive)
REMARK    1  A    between atoms: C_1  and  C_2
REMARK    2  A    between atoms: C_5  and  C_8
REMARK    3  A    between atoms: C_15  and  C_17
REMARK    4  A    between atoms: C_18  and  C_20
REMARK    5  A    between atoms: C_20  and  C_22
REMARK    6  A    between atoms: C_20  and  N_25
REMARK    7  A    between atoms: C_22  and  C_23
REMARK    8  A    between atoms: C_22  and  C_24
REMARK    9  A    between atoms: N_28  and  C_29
REMARK                            x       y       z     vdW  Elec       q    Type
REMARK                         _______ _______ _______ _____ _____    ______ ____
ROOT
ATOM      1  C   UNL     1      -5.590  11.209  -0.970  0.00  0.00    +0.247 C 
ATOM      2  O   UNL     1      -5.296  12.344  -1.291  0.00  0.00    -0.270 OA
ATOM      3  N   UNL     1      -4.697  10.212  -1.128  0.00  0.00    -0.292 N 
ATOM      4  C   UNL     1      -5.073   8.819  -0.845  0.00  0.00    +0.127 C 
ATOM      5  C   UNL     1      -4.787   7.972  -2.091  0.00  0.00    +0.127 C 
ATOM      6  N   UNL     1      -3.421   8.257  -2.550  0.00  0.00    -0.297 N 
ATOM      7  C   UNL     1      -3.043   9.650  -2.828  0.00  0.00    +0.130 C 
ATOM      8  C   UNL     1      -3.330  10.497  -1.587  0.00  0.00    +0.091 C 
ATOM      9  C   UNL     1      -3.205  11.982  -1.936  0.00  0.00    +0.029 C 
ATOM     10  C   UNL     1      -2.528   7.260  -2.709  0.00  0.00    +0.236 C 
ATOM     11  O   UNL     1      -1.379   7.516  -2.999  0.00  0.00    -0.274 OA
ENDROOT
BRANCH   1  16
ATOM     12  C   UNL     1     -10.789  10.093   1.229  0.00  0.00    +0.044 C 
ATOM     13  C   UNL     1      -9.427  10.386   0.654  0.00  0.00    -0.050 A 
ATOM     14  C   UNL     1      -9.273  11.410  -0.264  0.00  0.00    +0.004 A 
ATOM     15  C   UNL     1      -8.029  11.682  -0.795  0.00  0.00    +0.013 A 
ATOM     16  C   UNL     1      -6.925  10.922  -0.405  0.00  0.00    +0.037 A 
ATOM     17  C   UNL     1      -7.089   9.887   0.517  0.00  0.00    +0.013 A 
ATOM     18  C   UNL     1      -8.337   9.629   1.045  0.00  0.00    +0.004 A 
ENDBRANCH   1  16
BRANCH  10  19
ATOM     19  C   UNL     1      -2.958   5.827  -2.525  0.00  0.00    +0.163 C 
BRANCH  19  20
ATOM     20  N   UNL     1      -2.299   4.987  -3.528  0.00  0.00    -0.288 N 
ATOM     21  C   UNL     1      -2.861   3.822  -3.905  0.00  0.00    +0.305 C 
ATOM     22  O   UNL     1      -3.916   3.468  -3.414  0.00  0.00    -0.252 OA
ATOM     23  N   UNL     1      -2.255   3.049  -4.828  0.00  0.00    -0.268 N 
ATOM     24  H   UNL     1      -1.458   5.269  -3.920  0.00  0.00    +0.151 HD
ATOM     25  H   UNL     1      -1.375   3.289  -5.159  0.00  0.00    +0.156 HD
BRANCH  23  26
ATOM     26  C   UNL     1      -2.895   1.900  -5.309  0.00  0.00    +0.053 A 
ATOM     27  C   UNL     1      -4.274   1.778  -5.208  0.00  0.00    +0.026 A 
ATOM     28  C   UNL     1      -4.903   0.644  -5.683  0.00  0.00    +0.022 A 
ATOM     29  C   UNL     1      -4.160  -0.371  -6.260  0.00  0.00    +0.042 A 
ATOM     30  C   UNL     1      -2.785  -0.253  -6.362  0.00  0.00    +0.041 A 
ATOM     31  C   UNL     1      -2.150   0.879  -5.888  0.00  0.00    +0.064 A 
ATOM     32 CL   UNL     1      -0.425   1.027  -6.017  0.00  0.00    -0.082 Cl
ATOM     33 CL   UNL     1      -4.954  -1.796  -6.856  0.00  0.00    -0.083 Cl
ENDBRANCH  23  26
ENDBRANCH  19  20
BRANCH  19  34
ATOM     34  C   UNL     1      -2.566   5.353  -1.124  0.00  0.00    +0.012 C 
ATOM     35  C   UNL     1      -3.304   6.190  -0.077  0.00  0.00    +0.009 C 
ATOM     36  C   UNL     1      -2.946   3.880  -0.960  0.00  0.00    +0.009 C 
ENDBRANCH  19  34
ENDBRANCH  10  19
TORSDOF 5
