REMARK  Name = ZINC66402269
REMARK  3 active torsions:
REMARK  status: ('A' for Active; 'I' for Inactive)
REMARK    1  A    between atoms: C_2  and  C_24
REMARK    2  A    between atoms: C_8  and  N_9
REMARK    3  A    between atoms: C_16  and  C_18
REMARK                            x       y       z     vdW  Elec       q    Type
REMARK                         _______ _______ _______ _____ _____    ______ ____
ROOT
ATOM      1  N   UNL     1      -1.566  -0.613  -0.270  0.00  0.00    -0.265 N 
ATOM      2  C   UNL     1      -1.405  -1.950  -0.296  0.00  0.00    +0.307 C 
ATOM      3  O   UNL     1      -0.286  -2.427  -0.327  0.00  0.00    -0.252 OA
ATOM      4  N   UNL     1      -2.482  -2.760  -0.288  0.00  0.00    -0.282 N 
ATOM      5  C   UNL     1      -3.888  -2.320  -0.359  0.00  0.00    +0.110 C 
ATOM      6  C   UNL     1      -4.697  -3.470   0.289  0.00  0.00    +0.021 C 
ATOM      7  C   UNL     1      -3.915  -4.717  -0.203  0.00  0.00    +0.024 C 
ATOM      8  C   UNL     1      -2.451  -4.228  -0.212  0.00  0.00    +0.081 C 
ATOM      9  H   UNL     1      -2.454  -0.233  -0.176  0.00  0.00    +0.157 HD
ENDROOT
BRANCH   1  17
ATOM     10  C   UNL     1      -0.370   1.144  -1.394  0.00  0.00    +0.042 A 
ATOM     11  C   UNL     1       0.756   1.975  -1.479  0.00  0.00    +0.073 A 
ATOM     12  C   UNL     1       1.747   1.869  -0.564  0.00  0.00    +0.098 A 
ATOM     13  N   UNL     1       1.668   0.962   0.446  0.00  0.00    -0.327 N 
ATOM     14  H   UNL     1       2.389   0.901   1.092  0.00  0.00    +0.168 HD
ATOM     15  C   UNL     1       0.601   0.147   0.559  0.00  0.00    +0.270 A 
ATOM     16  O   UNL     1       0.545  -0.661   1.471  0.00  0.00    -0.266 OA
ATOM     17  C   UNL     1      -0.451   0.230  -0.379  0.00  0.00    +0.100 A 
BRANCH  11  18
ATOM     18  C   UNL     1       0.863   2.987  -2.591  0.00  0.00    +0.419 C 
ATOM     19  F   UNL     1       2.065   3.692  -2.466  0.00  0.00    -0.166 F 
ATOM     20  F   UNL     1       0.834   2.328  -3.825  0.00  0.00    -0.166 F 
ATOM     21  F   UNL     1      -0.212   3.880  -2.514  0.00  0.00    -0.166 F 
ENDBRANCH  11  18
ENDBRANCH   1  17
BRANCH   8  22
ATOM     22  C   UNL     1      -1.718  -4.796  -1.429  0.00  0.00    +0.010 C 
ATOM     23  C   UNL     1      -2.408  -4.319  -2.709  0.00  0.00    +0.005 C 
ATOM     24  C   UNL     1      -1.674  -4.887  -3.925  0.00  0.00    +0.000 C 
ATOM     25  C   UNL     1      -1.702  -6.416  -3.870  0.00  0.00    +0.000 C 
ATOM     26  C   UNL     1      -1.012  -6.893  -2.590  0.00  0.00    +0.000 C 
ATOM     27  C   UNL     1      -1.746  -6.324  -1.373  0.00  0.00    +0.005 C 
ENDBRANCH   8  22
TORSDOF 3
