REMARK  Name = ZINC20692559
REMARK  9 active torsions:
REMARK  status: ('A' for Active; 'I' for Inactive)
REMARK    1  A    between atoms: C_1  and  C_2
REMARK    2  A    between atoms: C_2  and  C_3
REMARK    3  A    between atoms: C_3  and  N_4
REMARK    4  A    between atoms: N_4  and  C_5
REMARK    5  A    between atoms: C_5  and  C_6
REMARK    6  A    between atoms: C_6  and  C_7
REMARK    7  A    between atoms: C_8  and  C_10
REMARK    8  A    between atoms: C_23  and  C_26
REMARK    9  A    between atoms: C_29  and  C_32
REMARK                            x       y       z     vdW  Elec       q    Type
REMARK                         _______ _______ _______ _____ _____    ______ ____
ROOT
ATOM      1  C   UNL     1      -4.986   1.816   1.577  0.00  0.00    +0.037 A 
ATOM      2  C   UNL     1      -4.613   2.963   2.285  0.00  0.00    +0.015 A 
ATOM      3  C   UNL     1      -3.390   3.027   2.844  0.00  0.00    +0.024 A 
ATOM      4  C   UNL     1      -2.487   1.975   2.709  0.00  0.00    +0.031 A 
ATOM      5  C   UNL     1      -2.828   0.831   2.008  0.00  0.00    -0.019 A 
ATOM      6  C   UNL     1      -4.088   0.757   1.444  0.00  0.00    +0.019 A 
ATOM      7  C   UNL     1      -1.899  -0.330   1.842  0.00  0.00    +0.049 C 
ATOM      8  C   UNL     1      -1.324  -0.381   0.446  0.00  0.00    -0.023 C 
ATOM      9  C   UNL     1      -0.076  -0.782   0.485  0.00  0.00    -0.030 C 
ATOM     10  C   UNL     1       0.349  -1.058   1.914  0.00  0.00    +0.033 C 
ATOM     11  C   UNL     1      -0.660  -0.228   2.760  0.00  0.00    +0.029 C 
ATOM     12  C   UNL     1      -0.151   1.216   2.788  0.00  0.00    +0.105 C 
ATOM     13  N   UNL     1      -1.222   2.089   3.280  0.00  0.00    -0.336 N 
ATOM     14  H   UNL     1      -1.017   2.812   4.083  0.00  0.00    +0.147 HD
ENDROOT
BRANCH  12  15
ATOM     15  C   UNL     1       0.244   1.639   1.397  0.00  0.00    -0.027 A 
ATOM     16  C   UNL     1       1.548   1.474   0.969  0.00  0.00    +0.006 A 
ATOM     17  C   UNL     1       1.911   1.858  -0.309  0.00  0.00    +0.004 A 
ATOM     18  C   UNL     1       0.970   2.414  -1.156  0.00  0.00    -0.050 A 
ATOM     19  C   UNL     1      -0.333   2.583  -0.726  0.00  0.00    +0.004 A 
ATOM     20  C   UNL     1      -0.696   2.196   0.550  0.00  0.00    +0.006 A 
ATOM     21  C   UNL     1       1.366   2.835  -2.548  0.00  0.00    +0.044 C 
ENDBRANCH  12  15
BRANCH   1  23
ATOM     22  N   UNL     1      -7.402   2.190   1.639  0.00  0.00    -0.298 N 
ATOM     23  C   UNL     1      -6.328   1.727   0.970  0.00  0.00    +0.247 C 
ATOM     24  O   UNL     1      -6.464   1.237  -0.134  0.00  0.00    -0.270 OA
BRANCH  22  25
ATOM     25  C   UNL     1      -7.224   2.911   2.902  0.00  0.00    +0.108 C 
BRANCH  25  27
ATOM     26  C   UNL     1      -6.946   5.171   3.930  0.00  0.00    +0.005 C 
ATOM     27  C   UNL     1      -7.281   4.418   2.641  0.00  0.00    +0.016 C 
ENDBRANCH  25  27
ENDBRANCH  22  25
BRANCH  22  28
ATOM     28  C   UNL     1      -8.748   1.971   1.105  0.00  0.00    +0.108 C 
BRANCH  28  29
ATOM     29  C   UNL     1      -9.302   0.650   1.642  0.00  0.00    +0.016 C 
ATOM     30  C   UNL     1     -10.708   0.421   1.083  0.00  0.00    +0.005 C 
ENDBRANCH  28  29
ENDBRANCH  22  28
ENDBRANCH   1  23
TORSDOF 6
