REMARK  Name = ZINC11910119
REMARK  11 active torsions:
REMARK  status: ('A' for Active; 'I' for Inactive)
REMARK    1  A    between atoms: C_1  and  C_2
REMARK    2  A    between atoms: C_2  and  C_3
REMARK    3  A    between atoms: C_2  and  C_4
REMARK    4  A    between atoms: C_2  and  C_31
REMARK    5  A    between atoms: C_4  and  N_5
REMARK    6  A    between atoms: C_6  and  C_8
REMARK    7  A    between atoms: C_12  and  C_13
REMARK    8  A    between atoms: C_20  and  C_22
REMARK    9  A    between atoms: C_31  and  N_64
REMARK   10  A    between atoms: C_32  and  N_64
REMARK   11  A    between atoms: C_33  and  N_64
REMARK                            x       y       z     vdW  Elec       q    Type
REMARK                         _______ _______ _______ _____ _____    ______ ____
ROOT
ATOM      1  C   UNL     1       0.653  -4.568   2.019  0.00  0.00    +0.078 A 
ATOM      2  C   UNL     1      -0.727  -4.851   2.145  0.00  0.00    +0.148 A 
ATOM      3  N   UNL     1      -1.283  -3.868   2.797  0.00  0.00    -0.171 NA
ATOM      4  N   UNL     1      -0.302  -2.921   3.115  0.00  0.00    -0.201 N 
ATOM      5  C   UNL     1       0.879  -3.353   2.632  0.00  0.00    +0.063 A 
ATOM      6  C   UNL     1      -0.513  -1.730   3.809  0.00  0.00    +0.252 A 
ATOM      7  N   UNL     1       0.523  -0.954   4.086  0.00  0.00    -0.219 NA
ATOM      8  C   UNL     1       0.367   0.185   4.743  0.00  0.00    +0.117 A 
ATOM      9  C   UNL     1      -0.901   0.566   5.145  0.00  0.00    +0.051 A 
ATOM     10  C   UNL     1      -1.977  -0.275   4.838  0.00  0.00    +0.111 A 
ATOM     11  N   UNL     1      -1.742  -1.406   4.173  0.00  0.00    -0.208 NA
ENDROOT
BRANCH  10  12
ATOM     12  C   UNL     1      -3.351   0.089   5.238  0.00  0.00    +0.155 A 
ATOM     13  C   UNL     1      -4.458  -0.649   4.981  0.00  0.00    +0.060 A 
ATOM     14  C   UNL     1      -5.582   0.090   5.560  0.00  0.00    +0.021 A 
ATOM     15  C   UNL     1      -6.958  -0.132   5.634  0.00  0.00    +0.011 A 
ATOM     16  C   UNL     1      -7.759   0.782   6.259  0.00  0.00    +0.001 A 
ATOM     17  C   UNL     1      -7.213   1.929   6.820  0.00  0.00    +0.004 A 
ATOM     18  C   UNL     1      -5.856   2.166   6.756  0.00  0.00    +0.047 A 
ATOM     19  C   UNL     1      -5.022   1.250   6.126  0.00  0.00    +0.136 A 
ATOM     20  O   UNL     1      -3.693   1.206   5.910  0.00  0.00    -0.453 OA
ENDBRANCH  10  12
BRANCH   1  22
ATOM     21  N   UNL     1       1.296  -6.580   0.787  0.00  0.00    -0.311 N 
ATOM     22  C   UNL     1       1.661  -5.412   1.352  0.00  0.00    +0.247 C 
ATOM     23  O   UNL     1       2.823  -5.054   1.310  0.00  0.00    -0.270 OA
ATOM     24  H   UNL     1       0.369  -6.866   0.820  0.00  0.00    +0.149 HD
BRANCH  21  25
ATOM     25  C   UNL     1       2.298  -7.419   0.124  0.00  0.00    +0.109 C 
BRANCH  25  27
ATOM     26  C   UNL     1       0.986  -9.459   0.723  0.00  0.00    +0.010 C 
ATOM     27  C   UNL     1       1.625  -8.678  -0.427  0.00  0.00    -0.034 C 
ATOM     28  C   UNL     1       0.546  -8.279  -1.435  0.00  0.00    +0.010 C 
BRANCH  27  29
ATOM     29  C   UNL     1       2.671  -9.553  -1.119  0.00  0.00    -0.072 C 
BRANCH  29  32
ATOM     30  C   UNL     1       1.443 -10.578  -2.937  0.00  0.00    -0.097 C 
ATOM     31  C   UNL     1       2.989 -11.900  -1.623  0.00  0.00    -0.097 C 
ATOM     32  N   UNL     1       2.013 -10.790  -1.590  0.00  0.00    +0.376 N 
ATOM     33  H   UNL     1       1.255 -11.032  -0.941  0.00  0.00    -0.083 HD
ENDBRANCH  29  32
ENDBRANCH  27  29
ENDBRANCH  25  27
ENDBRANCH  21  25
ENDBRANCH   1  22
BRANCH   5  34
ATOM     34  C   UNL     1       2.202  -2.641   2.743  0.00  0.00    +0.039 C 
ATOM     35  C   UNL     1       3.400  -3.451   3.244  0.00  0.00    +0.010 C 
ATOM     36  C   UNL     1       2.757  -2.397   4.148  0.00  0.00    +0.010 C 
ENDBRANCH   5  34
TORSDOF 7
