REMARK  Name = ZINC36038430
REMARK  12 active torsions:
REMARK  status: ('A' for Active; 'I' for Inactive)
REMARK    1  A    between atoms: C_1  and  C_2
REMARK    2  A    between atoms: C_2  and  C_3
REMARK    3  A    between atoms: C_3  and  C_5
REMARK    4  A    between atoms: C_3  and  C_6
REMARK    5  A    between atoms: C_6  and  N_7
REMARK    6  A    between atoms: C_10  and  C_32
REMARK    7  A    between atoms: N_16  and  S_19
REMARK    8  A    between atoms: S_19  and  C_22
REMARK    9  A    between atoms: C_26  and  C_28
REMARK   10  A    between atoms: C_32  and  C_33
REMARK   11  A    between atoms: C_33  and  C_34
REMARK   12  A    between atoms: C_33  and  C_35
REMARK                            x       y       z     vdW  Elec       q    Type
REMARK                         _______ _______ _______ _____ _____    ______ ____
ROOT
ATOM      1  N   UNL     1      -2.755  -2.555   0.024  0.00  0.00    -0.313 N 
ATOM      2  C   UNL     1      -3.546  -2.825   1.083  0.00  0.00    +0.200 C 
ATOM      3  O   UNL     1      -3.241  -2.687   2.248  0.00  0.00    -0.277 OA
ATOM      4  C   UNL     1      -4.877  -3.330   0.571  0.00  0.00    +0.019 C 
ATOM      5  N   UNL     1      -4.909  -2.932  -0.858  0.00  0.00    +0.401 N 
ATOM      6  C   UNL     1      -3.479  -2.850  -1.216  0.00  0.00    +0.006 C 
ATOM      7  C   UNL     1      -3.018  -4.187  -1.792  0.00  0.00    +0.023 C 
ATOM      8  C   UNL     1      -1.525  -4.109  -2.127  0.00  0.00    +0.109 C 
ATOM      9  N   UNL     1      -1.298  -2.953  -3.006  0.00  0.00    -0.177 NA
ATOM     10  C   UNL     1      -1.773  -1.632  -2.572  0.00  0.00    +0.109 C 
ATOM     11  C   UNL     1      -3.264  -1.731  -2.233  0.00  0.00    +0.023 C 
ATOM     12  H   UNL     1      -5.378  -3.632  -1.412  0.00  0.00    -0.082 HD
ATOM     13  H   UNL     1      -5.352  -2.033  -0.968  0.00  0.00    -0.082 HD
ENDROOT
BRANCH   9  14
ATOM     14  S   UNL     1      -0.521  -3.136  -4.457  0.00  0.00    +0.061 S 
ATOM     15  O   UNL     1       0.030  -1.868  -4.785  0.00  0.00    -0.153 OA
ATOM     16  O   UNL     1       0.275  -4.308  -4.346  0.00  0.00    -0.153 OA
BRANCH  14  17
ATOM     17  C   UNL     1      -1.754  -3.477  -5.668  0.00  0.00    +0.106 A 
ATOM     18  C   UNL     1      -2.125  -4.784  -5.929  0.00  0.00    +0.028 A 
ATOM     19  C   UNL     1      -3.092  -5.051  -6.879  0.00  0.00    +0.002 A 
ATOM     20  C   UNL     1      -3.690  -4.013  -7.569  0.00  0.00    +0.012 A 
ATOM     21  C   UNL     1      -3.320  -2.707  -7.308  0.00  0.00    +0.057 A 
ATOM     22  C   UNL     1      -2.356  -2.439  -6.354  0.00  0.00    +0.041 A 
BRANCH  21  23
ATOM     23  C   UNL     1      -3.971  -1.575  -8.060  0.00  0.00    +0.417 C 
ATOM     24  F   UNL     1      -4.909  -2.092  -8.960  0.00  0.00    -0.166 F 
ATOM     25  F   UNL     1      -4.614  -0.723  -7.155  0.00  0.00    -0.166 F 
ATOM     26  F   UNL     1      -2.996  -0.860  -8.762  0.00  0.00    -0.166 F 
ENDBRANCH  21  23
ENDBRANCH  14  17
ENDBRANCH   9  14
BRANCH   1  27
ATOM     27  C   UNL     1      -1.385  -2.040   0.101  0.00  0.00    +0.109 C 
BRANCH  27  28
ATOM     28  C   UNL     1      -1.417  -0.511   0.138  0.00  0.00    +0.003 C 
ATOM     29  C   UNL     1      -2.078  -0.046   1.438  0.00  0.00    +0.009 C 
BRANCH  28  31
ATOM     30  C   UNL     1      -0.024   1.558  -0.016  0.00  0.00    +0.004 C 
ATOM     31  C   UNL     1       0.013   0.031   0.072  0.00  0.00    +0.001 C 
ENDBRANCH  28  31
ENDBRANCH  27  28
ENDBRANCH   1  27
BRANCH   4  32
ATOM     32  C   UNL     1      -4.958  -4.852   0.704  0.00  0.00    -0.004 C 
BRANCH  32  33
ATOM     33  C   UNL     1      -6.345  -5.330   0.269  0.00  0.00    -0.018 C 
ATOM     34  C   UNL     1      -6.385  -6.859   0.283  0.00  0.00    +0.007 C 
ATOM     35  C   UNL     1      -7.399  -4.782   1.233  0.00  0.00    +0.007 C 
ENDBRANCH  32  33
ENDBRANCH   4  32
TORSDOF 8
