REMARK  Name = ZINC14611128
REMARK  8 active torsions:
REMARK  status: ('A' for Active; 'I' for Inactive)
REMARK    1  A    between atoms: C_1  and  C_2
REMARK    2  A    between atoms: C_6  and  C_8
REMARK    3  A    between atoms: C_13  and  C_15
REMARK    4  A    between atoms: N_20  and  C_21
REMARK    5  A    between atoms: C_21  and  C_22
REMARK    6  A    between atoms: C_25  and  C_28
REMARK    7  A    between atoms: C_28  and  C_29
REMARK    8  A    between atoms: C_28  and  C_30
REMARK                            x       y       z     vdW  Elec       q    Type
REMARK                         _______ _______ _______ _____ _____    ______ ____
ROOT
ATOM      1  C   UNL     1      -0.070   5.322   0.031  0.00  0.00    +0.281 C 
ATOM      2  O   UNL     1      -1.127   5.915  -0.053  0.00  0.00    -0.265 OA
ATOM      3  N   UNL     1       1.084   6.011   0.125  0.00  0.00    -0.162 N 
ATOM      4  C   UNL     1       1.222   7.364   0.239  0.00  0.00    +0.222 A 
ATOM      5  N   UNL     1       2.506   7.635   0.304  0.00  0.00    -0.190 NA
ATOM      6  C   UNL     1       3.214   6.495   0.234  0.00  0.00    +0.219 A 
ATOM      7  N   UNL     1       2.384   5.479   0.130  0.00  0.00    -0.137 NA
ATOM      8  N   UNL     1       0.195   8.284   0.281  0.00  0.00    -0.309 N 
ATOM      9  H   UNL     1      -0.726   7.986   0.227  0.00  0.00    +0.149 HD
ENDROOT
BRANCH   1  15
ATOM     10  C   UNL     1      -2.515   0.973   0.085  0.00  0.00    +0.044 C 
ATOM     11  C   UNL     1      -1.223   1.749   0.056  0.00  0.00    -0.050 A 
ATOM     12  C   UNL     1      -0.014   1.076   0.027  0.00  0.00    +0.003 A 
ATOM     13  C   UNL     1       1.176   1.780  -0.006  0.00  0.00    +0.001 A 
ATOM     14  C   UNL     1       1.165   3.160  -0.005  0.00  0.00    +0.013 A 
ATOM     15  C   UNL     1      -0.051   3.845   0.030  0.00  0.00    +0.042 A 
ATOM     16  C   UNL     1      -1.249   3.127   0.063  0.00  0.00    +0.016 A 
ENDBRANCH   1  15
BRANCH   6  17
ATOM     17  C   UNL     1       4.687   6.397   0.274  0.00  0.00    +0.173 A 
ATOM     18  C   UNL     1       5.413   5.249   0.205  0.00  0.00    +0.053 A 
ATOM     19  C   UNL     1       6.769   5.622   0.279  0.00  0.00    +0.042 A 
ATOM     20  C   UNL     1       6.804   6.965   0.389  0.00  0.00    +0.196 A 
ATOM     21  O   UNL     1       5.545   7.430   0.381  0.00  0.00    -0.460 OA
ENDBRANCH   6  17
BRANCH   8  22
ATOM     22  C   UNL     1       0.496   9.712   0.407  0.00  0.00    +0.139 C 
BRANCH  22  23
ATOM     23  C   UNL     1      -0.790  10.497   0.430  0.00  0.00    -0.030 A 
ATOM     24  C   UNL     1      -1.339  10.959  -0.752  0.00  0.00    +0.005 A 
ATOM     25  C   UNL     1      -2.522  11.674  -0.732  0.00  0.00    +0.004 A 
ATOM     26  C   UNL     1      -3.150  11.936   0.471  0.00  0.00    -0.045 A 
ATOM     27  C   UNL     1      -2.599  11.479   1.653  0.00  0.00    +0.004 A 
ATOM     28  C   UNL     1      -1.419  10.759   1.633  0.00  0.00    +0.005 A 
BRANCH  26  29
ATOM     29  C   UNL     1      -4.438  12.720   0.494  0.00  0.00    +0.013 C 
ATOM     30  C   UNL     1      -4.201  14.106  -0.109  0.00  0.00    +0.012 C 
ATOM     31  C   UNL     1      -5.498  11.982  -0.326  0.00  0.00    +0.012 C 
ENDBRANCH  26  29
ENDBRANCH  22  23
ENDBRANCH   8  22
TORSDOF 5
