REMARK  Name = ZINC53544064
REMARK  15 active torsions:
REMARK  status: ('A' for Active; 'I' for Inactive)
REMARK    1  A    between atoms: C_1  and  C_2
REMARK    2  A    between atoms: C_3  and  C_28
REMARK    3  A    between atoms: N_4  and  C_24
REMARK    4  A    between atoms: C_5  and  S_7
REMARK    5  A    between atoms: S_7  and  C_8
REMARK    6  A    between atoms: C_8  and  C_9
REMARK    7  A    between atoms: N_11  and  C_12
REMARK    8  A    between atoms: N_11  and  C_13
REMARK    9  A    between atoms: C_13  and  C_15
REMARK   10  A    between atoms: C_13  and  C_16
REMARK   11  A    between atoms: C_21  and  O_22
REMARK   12  A    between atoms: O_22  and  C_23
REMARK   13  A    between atoms: C_24  and  C_25
REMARK   14  A    between atoms: C_25  and  C_26
REMARK   15  A    between atoms: C_25  and  C_27
REMARK                            x       y       z     vdW  Elec       q    Type
REMARK                         _______ _______ _______ _____ _____    ______ ____
ROOT
ATOM      1  C   UNL     1      -0.118  -2.456   3.618  0.00  0.00    +0.173 C 
ENDROOT
BRANCH   1   2
ATOM      2  C   UNL     1      -0.003  -3.645   4.536  0.00  0.00    +0.226 C 
ATOM      3  O   UNL     1       0.089  -4.762   4.073  0.00  0.00    -0.275 OA
ATOM      4  N   UNL     1      -0.003  -3.468   5.872  0.00  0.00    -0.297 N 
ATOM      5  C   UNL     1      -0.115  -2.118   6.432  0.00  0.00    +0.132 C 
BRANCH   4   6
ATOM      6  C   UNL     1       0.108  -4.624   6.765  0.00  0.00    +0.106 C 
ATOM      7  C   UNL     1      -1.175  -4.759   7.587  0.00  0.00    +0.033 C 
BRANCH   6   8
ATOM      8  C   UNL     1       1.281  -4.432   7.692  0.00  0.00    +0.014 A 
ATOM      9  C   UNL     1       1.069  -4.074   9.009  0.00  0.00    +0.009 A 
ATOM     10  C   UNL     1       2.144  -3.897   9.860  0.00  0.00    +0.001 A 
ATOM     11  C   UNL     1       3.434  -4.078   9.395  0.00  0.00    +0.004 A 
ATOM     12  C   UNL     1       3.651  -4.437   8.079  0.00  0.00    +0.046 A 
ATOM     13  C   UNL     1       2.573  -4.620   7.224  0.00  0.00    +0.125 A 
BRANCH  13  14
ATOM     14  O   UNL     1       2.784  -4.978   5.931  0.00  0.00    -0.495 OA
ATOM     15  C   UNL     1       4.140  -5.155   5.519  0.00  0.00    +0.277 C 
ENDBRANCH  13  14
ENDBRANCH   6   8
ENDBRANCH   4   6
ENDBRANCH   1   2
BRANCH   1  16
ATOM     16  S   UNL     1      -0.089  -3.018   1.893  0.00  0.00    -0.080 S 
BRANCH  16  21
ATOM     17  C   UNL     1      -0.546   2.059   0.592  0.00  0.00    +0.065 C 
ATOM     18  C   UNL     1      -0.418   0.565   0.445  0.00  0.00    +0.034 A 
ATOM     19  C   UNL     1      -0.373  -0.110  -0.716  0.00  0.00    +0.037 A 
ATOM     20  N   UNL     1      -0.253  -1.445  -0.400  0.00  0.00    -0.324 N 
ATOM     21  C   UNL     1      -0.230  -1.532   0.958  0.00  0.00    +0.148 A 
ATOM     22  N   UNL     1      -0.325  -0.319   1.452  0.00  0.00    -0.338 N 
ATOM     23  C   UNL     1      -0.441   0.481  -2.101  0.00  0.00    +0.065 C 
ATOM     24  H   UNL     1      -0.328  -0.097   2.396  0.00  0.00    +0.168 HD
BRANCH  20  25
ATOM     25  C   UNL     1      -0.167  -2.560  -1.346  0.00  0.00    +0.127 C 
BRANCH  25  26
ATOM     26  C   UNL     1       1.300  -2.823  -1.693  0.00  0.00    +0.003 C 
ATOM     27  C   UNL     1       1.399  -4.064  -2.582  0.00  0.00    +0.009 C 
ATOM     28  C   UNL     1       1.872  -1.615  -2.438  0.00  0.00    +0.009 C 
ENDBRANCH  25  26
ENDBRANCH  20  25
ENDBRANCH  16  21
ENDBRANCH   1  16
TORSDOF 8
