REMARK  Name = ZINC32958874
REMARK  6 active torsions:
REMARK  status: ('A' for Active; 'I' for Inactive)
REMARK    1  A    between atoms: C_1  and  C_2
REMARK    2  A    between atoms: C_7  and  S_8
REMARK    3  A    between atoms: S_8  and  N_11
REMARK    4  A    between atoms: C_14  and  C_17
REMARK    5  A    between atoms: N_19  and  C_20
REMARK    6  A    between atoms: C_28  and  C_33
REMARK                            x       y       z     vdW  Elec       q    Type
REMARK                         _______ _______ _______ _____ _____    ______ ____
ROOT
ATOM      1  S   UNL     1      -2.833   3.962   0.027  0.00  0.00    +0.061 S 
ATOM      2  O   UNL     1      -3.763   3.507   1.000  0.00  0.00    -0.153 OA
ATOM      3  O   UNL     1      -2.348   5.298   0.003  0.00  0.00    -0.153 OA
ENDROOT
BRANCH   1  10
ATOM      4  C   UNL     1      -0.301   4.337  -1.575  0.00  0.00    +0.046 C 
ATOM      5  C   UNL     1      -0.305   3.168  -0.624  0.00  0.00    -0.022 A 
ATOM      6  C   UNL     1       0.805   2.348  -0.535  0.00  0.00    +0.032 A 
ATOM      7  C   UNL     1       0.801   1.278   0.344  0.00  0.00    +0.076 A 
ATOM      8  C   UNL     1      -0.322   1.026   1.131  0.00  0.00    +0.145 A 
ATOM      9  C   UNL     1      -1.431   1.848   1.032  0.00  0.00    +0.076 A 
ATOM     10  C   UNL     1      -1.421   2.916   0.153  0.00  0.00    +0.112 A 
ATOM     11  O   UNL     1      -0.315  -0.030   1.988  0.00  0.00    -0.478 OA
ATOM     12  C   UNL     1       0.428  -1.182   1.583  0.00  0.00    +0.256 C 
ATOM     13  C   UNL     1       1.780  -0.758   1.068  0.00  0.00    +0.258 C 
ATOM     14  O   UNL     1       2.740  -1.488   1.203  0.00  0.00    -0.271 OA
ATOM     15  N   UNL     1       1.919   0.438   0.456  0.00  0.00    -0.280 N 
ATOM     16  C   UNL     1      -0.332  -1.915   0.475  0.00  0.00    +0.062 C 
ATOM     17  H   UNL     1       2.889   0.757   0.048  0.00  0.00    +0.155 HD
ENDBRANCH   1  10
BRANCH   1  18
ATOM     18  N   UNL     1      -3.520   3.682  -1.453  0.00  0.00    -0.177 NA
ATOM     19  C   UNL     1      -3.198   4.538  -2.603  0.00  0.00    +0.110 C 
ATOM     20  C   UNL     1      -2.729   3.645  -3.761  0.00  0.00    +0.030 C 
ATOM     21  C   UNL     1      -3.797   2.586  -4.046  0.00  0.00    +0.077 C 
ATOM     22  C   UNL     1      -3.990   1.707  -2.808  0.00  0.00    +0.030 C 
ATOM     23  C   UNL     1      -4.469   2.575  -1.640  0.00  0.00    +0.110 C 
BRANCH  21  24
ATOM     24  C   UNL     1      -3.358   1.730  -5.206  0.00  0.00    +0.216 C 
ATOM     25  O   UNL     1      -3.214   0.535  -5.058  0.00  0.00    -0.276 OA
ATOM     26  N   UNL     1      -3.126   2.292  -6.409  0.00  0.00    -0.312 N 
ATOM     27  H   UNL     1      -3.257   3.376  -6.544  0.00  0.00    +0.149 HD
BRANCH  26  28
ATOM     28  C   UNL     1      -2.699   1.460  -7.537  0.00  0.00    +0.073 C 
ATOM     29  C   UNL     1      -1.172   1.258  -7.458  0.00  0.00    +0.022 C 
ATOM     30  C   UNL     1      -0.811   0.037  -8.262  0.00  0.00    +0.002 C 
ATOM     31  C   UNL     1      -0.402   0.384  -9.706  0.00  0.00    +0.000 C 
ATOM     32  C   UNL     1      -1.302   1.462 -10.340  0.00  0.00    +0.000 C 
ATOM     33  C   UNL     1      -2.758   1.257 -10.019  0.00  0.00    +0.002 C 
ATOM     34  C   UNL     1      -3.109   2.101  -8.777  0.00  0.00    +0.022 C 
ENDBRANCH  26  28
ENDBRANCH  21  24
ENDBRANCH   1  18
TORSDOF 4
