REMARK  Name = ZINC00255002
REMARK  3 active torsions:
REMARK  status: ('A' for Active; 'I' for Inactive)
REMARK    1  A    between atoms: C_6  and  C_7
REMARK    2  A    between atoms: N_9  and  N_13
REMARK    3  A    between atoms: C_14  and  C_15
REMARK                            x       y       z     vdW  Elec       q    Type
REMARK                         _______ _______ _______ _____ _____    ______ ____
ROOT
ATOM      1  C   UNL     1       6.292   5.540   0.395  0.00  0.00    +0.093 A 
ATOM      2  C   UNL     1       5.017   5.180   0.691  0.00  0.00    +0.144 A 
ATOM      3  N   UNL     1       4.752   4.033  -0.020  0.00  0.00    -0.207 N 
ATOM      4  C   UNL     1       5.872   3.733  -0.739  0.00  0.00    +0.214 A 
ATOM      5  N   UNL     1       6.788   4.636  -0.487  0.00  0.00    -0.213 NA
ATOM      6  N   UNL     1       6.018   2.653  -1.593  0.00  0.00    -0.327 N 
ATOM      7  H   UNL     1       5.284   2.031  -1.719  0.00  0.00    +0.145 HD
ATOM      8  H   UNL     1       6.855   2.517  -2.065  0.00  0.00    +0.145 HD
ENDROOT
BRANCH   1  14
ATOM      9  C   UNL     1       6.378   7.574   1.834  0.00  0.00    +0.013 A 
ATOM     10  C   UNL     1       7.053   8.667   2.337  0.00  0.00    +0.039 A 
ATOM     11  C   UNL     1       8.357   8.920   1.942  0.00  0.00    +0.123 A 
ATOM     12  C   UNL     1       8.990   8.075   1.045  0.00  0.00    +0.039 A 
ATOM     13  C   UNL     1       8.324   6.978   0.540  0.00  0.00    +0.013 A 
ATOM     14  C   UNL     1       7.012   6.719   0.935  0.00  0.00    +0.002 A 
ATOM     15  F   UNL     1       9.013   9.994   2.433  0.00  0.00    -0.205 F 
ENDBRANCH   1  14
BRANCH   3  16
ATOM     16  N   UNL     1       3.551   3.311  -0.013  0.00  0.00    -0.172 NA
ATOM     17  C   UNL     1       2.416   3.939   0.001  0.00  0.00    +0.142 C 
BRANCH  17  18
ATOM     18  C   UNL     1       1.153   3.179   0.008  0.00  0.00    +0.013 A 
ATOM     19  C   UNL     1      -0.071   3.852   0.023  0.00  0.00    +0.012 A 
ATOM     20  C   UNL     1      -1.249   3.135   0.031  0.00  0.00    +0.021 A 
ATOM     21  C   UNL     1      -1.222   1.750   0.017  0.00  0.00    +0.042 A 
ATOM     22  C   UNL     1      -0.013   1.076   0.008  0.00  0.00    +0.040 A 
ATOM     23  C   UNL     1       1.174   1.781   0.000  0.00  0.00    +0.051 A 
ATOM     24 CL   UNL     1       2.690   0.934  -0.018  0.00  0.00    -0.083 Cl
ATOM     25 CL   UNL     1      -2.710   0.856   0.020  0.00  0.00    -0.083 Cl
ENDBRANCH  17  18
ENDBRANCH   3  16
TORSDOF 3
