REMARK  Name = ZINC38736410
REMARK  12 active torsions:
REMARK  status: ('A' for Active; 'I' for Inactive)
REMARK    1  A    between atoms: C_4  and  C_7
REMARK    2  A    between atoms: C_7  and  C_33
REMARK    3  A    between atoms: C_9  and  C_11
REMARK    4  A    between atoms: C_11  and  N_12
REMARK    5  A    between atoms: N_12  and  C_13
REMARK    6  A    between atoms: N_12  and  C_17
REMARK    7  A    between atoms: C_13  and  C_14
REMARK    8  A    between atoms: C_14  and  C_15
REMARK    9  A    between atoms: C_15  and  O_16
REMARK   10  A    between atoms: C_17  and  C_18
REMARK   11  A    between atoms: C_21  and  C_23
REMARK   12  A    between atoms: C_28  and  C_29
REMARK                            x       y       z     vdW  Elec       q    Type
REMARK                         _______ _______ _______ _____ _____    ______ ____
ROOT
ATOM      1  N   UNL     1       2.663  -4.311   0.685  0.00  0.00    +0.385 N 
ATOM      2  H   UNL     1       3.323  -4.376   1.445  0.00  0.00    -0.081 HD
ENDROOT
BRANCH   1   3
ATOM      3  C   UNL     1       2.472  -2.900   0.323  0.00  0.00    -0.074 C 
BRANCH   3   6
ATOM      4  C   UNL     1       3.850  -0.770  -0.315  0.00  0.00    +0.022 C 
ATOM      5  C   UNL     1       4.083  -1.802  -1.421  0.00  0.00    +0.019 C 
ATOM      6  C   UNL     1       3.829  -2.264   0.015  0.00  0.00    -0.012 C 
BRANCH   4  10
ATOM      7  C   UNL     1       0.118   1.308  -0.307  0.00  0.00    +0.000 A 
ATOM      8  C   UNL     1       0.627   0.795   0.872  0.00  0.00    +0.000 A 
ATOM      9  C   UNL     1       1.834   0.123   0.870  0.00  0.00    +0.004 A 
ATOM     10  C   UNL     1       2.533  -0.038  -0.312  0.00  0.00    -0.037 A 
ATOM     11  C   UNL     1       2.025   0.474  -1.491  0.00  0.00    +0.004 A 
ATOM     12  C   UNL     1       0.818   1.148  -1.488  0.00  0.00    +0.000 A 
ENDBRANCH   4  10
BRANCH   4  13
ATOM     13  C   UNL     1       5.039   0.029   0.153  0.00  0.00    -0.037 A 
ATOM     14  C   UNL     1       6.098  -0.607   0.775  0.00  0.00    +0.004 A 
ATOM     15  C   UNL     1       7.188   0.126   1.204  0.00  0.00    +0.000 A 
ATOM     16  C   UNL     1       7.221   1.494   1.012  0.00  0.00    +0.000 A 
ATOM     17  C   UNL     1       6.163   2.130   0.389  0.00  0.00    +0.000 A 
ATOM     18  C   UNL     1       5.074   1.396  -0.044  0.00  0.00    +0.004 A 
ENDBRANCH   4  13
ENDBRANCH   3   6
ENDBRANCH   1   3
BRANCH   1  19
ATOM     19  C   UNL     1       3.177  -5.049  -0.476  0.00  0.00    -0.076 C 
BRANCH  19  20
ATOM     20  C   UNL     1       2.210  -4.891  -1.651  0.00  0.00    +0.009 C 
BRANCH  20  21
ATOM     21  C   UNL     1       2.682  -5.756  -2.821  0.00  0.00    +0.154 C 
BRANCH  21  22
ATOM     22  O   UNL     1       1.778  -5.609  -3.918  0.00  0.00    -0.395 OA
ATOM     23  H   UNL     1       2.016  -6.130  -4.697  0.00  0.00    +0.209 HD
ENDBRANCH  21  22
ENDBRANCH  20  21
ENDBRANCH  19  20
ENDBRANCH   1  19
BRANCH   1  24
ATOM     24  C   UNL     1       1.378  -4.888   1.101  0.00  0.00    -0.003 C 
BRANCH  24  25
ATOM     25  C   UNL     1       1.594  -6.297   1.589  0.00  0.00    +0.089 A 
ATOM     26  C   UNL     1       1.862  -6.656   2.860  0.00  0.00    +0.043 A 
ATOM     27  C   UNL     1       1.991  -8.059   2.874  0.00  0.00    +0.050 A 
ATOM     28  C   UNL     1       1.792  -8.484   1.598  0.00  0.00    +0.136 A 
ATOM     29  O   UNL     1       1.546  -7.404   0.830  0.00  0.00    -0.462 OA
BRANCH  28  30
ATOM     30  C   UNL     1       1.831  -9.886   1.134  0.00  0.00    +0.029 A 
ATOM     31  C   UNL     1       2.908 -10.707   1.474  0.00  0.00    +0.012 A 
ATOM     32  C   UNL     1       2.938 -12.016   1.038  0.00  0.00    +0.001 A 
ATOM     33  C   UNL     1       1.904 -12.515   0.266  0.00  0.00    +0.001 A 
ATOM     34  C   UNL     1       0.834 -11.707  -0.075  0.00  0.00    +0.013 A 
ATOM     35  C   UNL     1       0.789 -10.398   0.359  0.00  0.00    +0.065 A 
BRANCH  35  36
ATOM     36  C   UNL     1      -0.381  -9.521  -0.007  0.00  0.00    +0.418 C 
ATOM     37  F   UNL     1      -1.288 -10.253  -0.781  0.00  0.00    -0.166 F 
ATOM     38  F   UNL     1      -1.014  -9.077   1.159  0.00  0.00    -0.166 F 
ATOM     39  F   UNL     1       0.074  -8.419  -0.739  0.00  0.00    -0.166 F 
ENDBRANCH  35  36
ENDBRANCH  28  30
ENDBRANCH  24  25
ENDBRANCH   1  24
TORSDOF 12
