REMARK  Name = ZINC33232463
REMARK  11 active torsions:
REMARK  status: ('A' for Active; 'I' for Inactive)
REMARK    1  A    between atoms: C_1  and  O_2
REMARK    2  A    between atoms: O_2  and  C_3
REMARK    3  A    between atoms: C_6  and  C_11
REMARK    4  A    between atoms: C_7  and  O_9
REMARK    5  A    between atoms: O_9  and  C_10
REMARK    6  A    between atoms: C_17  and  C_19
REMARK    7  A    between atoms: C_22  and  C_24
REMARK    8  A    between atoms: C_24  and  C_25
REMARK    9  A    between atoms: C_25  and  N_26
REMARK   10  A    between atoms: N_26  and  S_27
REMARK   11  A    between atoms: S_27  and  C_30
REMARK                            x       y       z     vdW  Elec       q    Type
REMARK                         _______ _______ _______ _____ _____    ______ ____
ROOT
ATOM      1  C   UNL     1      -9.862   1.127   4.347  0.00  0.00    +0.110 C 
ATOM      2  C   UNL     1     -10.342   2.545   3.973  0.00  0.00    +0.029 C 
ATOM      3  C   UNL     1      -9.062   3.403   4.150  0.00  0.00    +0.021 C 
ATOM      4  C   UNL     1      -7.960   2.421   3.689  0.00  0.00    +0.109 C 
ATOM      5  N   UNL     1      -8.402   1.100   4.171  0.00  0.00    -0.290 N 
ATOM      6  C   UNL     1      -7.601   0.044   4.416  0.00  0.00    +0.254 C 
ATOM      7  O   UNL     1      -8.078  -1.001   4.818  0.00  0.00    -0.269 OA
ENDROOT
BRANCH   1  11
ATOM      8  C   UNL     1     -11.690  -1.755   1.769  0.00  0.00    +0.124 A 
ATOM      9  C   UNL     1     -10.395  -1.321   1.523  0.00  0.00    +0.046 A 
ATOM     10  C   UNL     1      -9.807  -0.390   2.357  0.00  0.00    +0.012 A 
ATOM     11  C   UNL     1     -10.506   0.111   3.439  0.00  0.00    +0.015 A 
ATOM     12  C   UNL     1     -11.799  -0.324   3.693  0.00  0.00    +0.128 A 
ATOM     13  C   UNL     1     -12.394  -1.254   2.853  0.00  0.00    +0.091 A 
BRANCH   8  15
ATOM     14  C   UNL     1     -11.485  -3.144  -0.149  0.00  0.00    +0.277 C 
ATOM     15  O   UNL     1     -12.268  -2.671   0.948  0.00  0.00    -0.495 OA
ENDBRANCH   8  15
BRANCH  12  16
ATOM     16  O   UNL     1     -12.484   0.165   4.760  0.00  0.00    -0.495 OA
ATOM     17  C   UNL     1     -13.810  -0.328   4.960  0.00  0.00    +0.277 C 
ENDBRANCH  12  16
ENDBRANCH   1  11
BRANCH   6  18
ATOM     18  C   UNL     1      -6.156   0.154   4.197  0.00  0.00    +0.074 A 
ATOM     19  C   UNL     1      -5.169  -0.800   4.385  0.00  0.00    +0.021 A 
ATOM     20  C   UNL     1      -3.878  -0.429   4.100  0.00  0.00    +0.012 A 
ATOM     21  C   UNL     1      -3.633   0.832   3.656  0.00  0.00    -0.008 A 
ATOM     22  S   UNL     1      -5.209   1.554   3.627  0.00  0.00    -0.089 S 
BRANCH  21  23
ATOM     23  C   UNL     1      -2.311   1.453   3.285  0.00  0.00    +0.059 C 
BRANCH  23  24
ATOM     24  C   UNL     1      -2.036   1.217   1.799  0.00  0.00    +0.110 C 
BRANCH  24  25
ATOM     25  N   UNL     1      -0.751   1.822   1.438  0.00  0.00    -0.194 NA
ATOM     26  H   UNL     1      -0.353   2.660   2.028  0.00  0.00    +0.148 HD
BRANCH  25  27
ATOM     27  S   UNL     1      -0.017   1.417   0.010  0.00  0.00    +0.027 S 
ATOM     28  O   UNL     1       0.002  -0.004   0.002  0.00  0.00    -0.158 OA
ATOM     29  O   UNL     1       1.195   2.158   0.002  0.00  0.00    -0.158 OA
ATOM     30  C   UNL     1      -1.135   2.034  -1.279  0.00  0.00    +0.214 C 
ENDBRANCH  25  27
ENDBRANCH  24  25
ENDBRANCH  23  24
ENDBRANCH  21  23
ENDBRANCH   6  18
TORSDOF 8
