REMARK  Name = ZINC59466798
REMARK  6 active torsions:
REMARK  status: ('A' for Active; 'I' for Inactive)
REMARK    1  A    between atoms: C_4  and  C_7
REMARK    2  A    between atoms: C_7  and  C_9
REMARK    3  A    between atoms: C_14  and  C_15
REMARK    4  A    between atoms: N_17  and  N_18
REMARK    5  A    between atoms: C_19  and  C_21
REMARK    6  A    between atoms: C_26  and  N_27
REMARK                            x       y       z     vdW  Elec       q    Type
REMARK                         _______ _______ _______ _____ _____    ______ ____
ROOT
ATOM      1  C   UNL     1       6.722  -2.824  -1.193  0.00  0.00    +0.261 C 
ATOM      2  O   UNL     1       6.464  -1.647  -1.353  0.00  0.00    -0.269 OA
ATOM      3  N   UNL     1       7.970  -3.199  -0.847  0.00  0.00    -0.230 N 
ATOM      4  H   UNL     1       8.176  -4.139  -0.720  0.00  0.00    +0.173 HD
ENDROOT
BRANCH   1  10
ATOM      5  C   UNL     1       4.371  -3.459  -1.768  0.00  0.00    +0.034 A 
ATOM      6  C   UNL     1       3.388  -4.431  -1.945  0.00  0.00    +0.012 A 
ATOM      7  C   UNL     1       3.688  -5.763  -1.731  0.00  0.00    +0.001 A 
ATOM      8  C   UNL     1       4.962  -6.141  -1.342  0.00  0.00    +0.001 A 
ATOM      9  C   UNL     1       5.949  -5.190  -1.161  0.00  0.00    +0.014 A 
ATOM     10  C   UNL     1       5.667  -3.844  -1.378  0.00  0.00    +0.049 A 
BRANCH   5  11
ATOM     11  C   UNL     1       4.055  -2.033  -1.995  0.00  0.00    +0.194 C 
ATOM     12  O   UNL     1       3.959  -1.605  -3.129  0.00  0.00    -0.287 OA
BRANCH  11  16
ATOM     13  C   UNL     1       3.482   0.568   1.313  0.00  0.00    +0.000 A 
ATOM     14  C   UNL     1       3.489   1.080   0.027  0.00  0.00    +0.001 A 
ATOM     15  C   UNL     1       3.674   0.241  -1.052  0.00  0.00    +0.012 A 
ATOM     16  C   UNL     1       3.856  -1.128  -0.845  0.00  0.00    +0.022 A 
ATOM     17  C   UNL     1       3.849  -1.638   0.456  0.00  0.00    +0.012 A 
ATOM     18  C   UNL     1       3.662  -0.788   1.526  0.00  0.00    +0.001 A 
ENDBRANCH  11  16
ENDBRANCH   5  11
ENDBRANCH   1  10
BRANCH   3  19
ATOM     19  N   UNL     1       8.969  -2.233  -0.672  0.00  0.00    -0.230 N 
ATOM     20  C   UNL     1      10.216  -2.609  -0.326  0.00  0.00    +0.262 C 
ATOM     21  O   UNL     1      10.474  -3.786  -0.166  0.00  0.00    -0.269 OA
ATOM     22  H   UNL     1       8.763  -1.294  -0.800  0.00  0.00    +0.173 HD
BRANCH  20  23
ATOM     23  C   UNL     1      11.271  -1.589  -0.141  0.00  0.00    +0.068 A 
ATOM     24  C   UNL     1      11.535  -0.663  -1.152  0.00  0.00    +0.015 A 
ATOM     25  C   UNL     1      12.520   0.286  -0.973  0.00  0.00    +0.001 A 
ATOM     26  C   UNL     1      13.245   0.321   0.205  0.00  0.00    +0.002 A 
ATOM     27  C   UNL     1      12.989  -0.594   1.210  0.00  0.00    +0.033 A 
ATOM     28  C   UNL     1      12.002  -1.545   1.046  0.00  0.00    +0.138 A 
BRANCH  28  29
ATOM     29  N   UNL     1      11.725  -2.519   2.125  0.00  0.00    +0.057 N 
ATOM     30  O   UNL     1      12.441  -2.564   3.098  0.00  0.00    -0.126 OA
ATOM     31  O   UNL     1      10.782  -3.270   2.033  0.00  0.00    -0.126 OA
ENDBRANCH  28  29
ENDBRANCH  20  23
ENDBRANCH   3  19
TORSDOF 6
