REMARK  Name = ZINC36303278
REMARK  16 active torsions:
REMARK  status: ('A' for Active; 'I' for Inactive)
REMARK    1  A    between atoms: C_1  and  C_2
REMARK    2  A    between atoms: C_2  and  C_3
REMARK    3  A    between atoms: C_4  and  C_22
REMARK    4  A    between atoms: C_5  and  O_14
REMARK    5  A    between atoms: N_6  and  C_8
REMARK    6  A    between atoms: O_14  and  C_15
REMARK    7  A    between atoms: C_22  and  N_23
REMARK    8  A    between atoms: N_23  and  C_24
REMARK    9  A    between atoms: N_23  and  C_28
REMARK   10  A    between atoms: C_24  and  C_25
REMARK   11  A    between atoms: C_25  and  O_26
REMARK   12  A    between atoms: O_26  and  C_27
REMARK   13  A    between atoms: C_28  and  C_29
REMARK   14  A    between atoms: C_29  and  C_31
REMARK   15  A    between atoms: C_29  and  O_38
REMARK   16  A    between atoms: C_31  and  C_32
REMARK                            x       y       z     vdW  Elec       q    Type
REMARK                         _______ _______ _______ _____ _____    ______ ____
ROOT
ATOM      1  C   UNL     1      -1.232  -0.092  -0.613  0.00  0.00    +0.068 A 
ATOM      2  C   UNL     1      -1.926  -0.373   0.568  0.00  0.00    +0.021 A 
ATOM      3  C   UNL     1      -3.242  -0.513   0.257  0.00  0.00    +0.225 A 
ATOM      4  N   UNL     1      -3.367  -0.324  -1.085  0.00  0.00    -0.200 N 
ATOM      5  N   UNL     1      -2.092  -0.057  -1.599  0.00  0.00    -0.168 NA
ENDROOT
BRANCH   4   6
ATOM      6  C   UNL     1      -4.559  -0.381  -1.819  0.00  0.00    +0.069 A 
ATOM      7  C   UNL     1      -5.471  -1.402  -1.587  0.00  0.00    +0.028 A 
ATOM      8  C   UNL     1      -6.645  -1.456  -2.313  0.00  0.00    +0.002 A 
ATOM      9  C   UNL     1      -6.912  -0.495  -3.271  0.00  0.00    +0.000 A 
ATOM     10  C   UNL     1      -6.005   0.522  -3.505  0.00  0.00    +0.002 A 
ATOM     11  C   UNL     1      -4.833   0.586  -2.778  0.00  0.00    +0.028 A 
ENDBRANCH   4   6
BRANCH   1  13
ATOM     12  C   UNL     1       0.553   1.627  -0.544  0.00  0.00    +0.010 C 
ATOM     13  C   UNL     1       0.252   0.138  -0.729  0.00  0.00    +0.054 C 
ENDBRANCH   1  13
BRANCH   3  14
ATOM     14  O   UNL     1      -4.248  -0.791   1.125  0.00  0.00    -0.438 OA
BRANCH  14  15
ATOM     15  C   UNL     1      -4.498  -2.095   1.415  0.00  0.00    +0.131 A 
ATOM     16  C   UNL     1      -3.665  -3.088   0.921  0.00  0.00    +0.049 A 
ATOM     17  C   UNL     1      -3.921  -4.413   1.217  0.00  0.00    +0.042 A 
ATOM     18  C   UNL     1      -5.008  -4.750   2.005  0.00  0.00    +0.124 A 
ATOM     19  C   UNL     1      -5.840  -3.759   2.499  0.00  0.00    +0.042 A 
ATOM     20  C   UNL     1      -5.584  -2.433   2.209  0.00  0.00    +0.049 A 
ATOM     21  F   UNL     1      -5.258  -6.046   2.293  0.00  0.00    -0.205 F 
ENDBRANCH  14  15
ENDBRANCH   3  14
BRANCH   2  22
ATOM     22  C   UNL     1      -1.322  -0.499   1.943  0.00  0.00    -0.036 C 
BRANCH  22  23
ATOM     23  N   UNL     1      -1.318   0.815   2.599  0.00  0.00    +0.386 N 
ATOM     24  H   UNL     1      -0.814   1.475   2.026  0.00  0.00    -0.081 HD
BRANCH  23  25
ATOM     25  C   UNL     1      -2.701   1.277   2.777  0.00  0.00    -0.050 C 
BRANCH  25  26
ATOM     26  C   UNL     1      -2.696   2.695   3.352  0.00  0.00    +0.141 C 
BRANCH  26  27
ATOM     27  O   UNL     1      -2.076   3.584   2.420  0.00  0.00    -0.385 OA
ATOM     28  C   UNL     1      -2.018   4.941   2.862  0.00  0.00    +0.193 C 
ENDBRANCH  26  27
ENDBRANCH  25  26
ENDBRANCH  23  25
BRANCH  23  29
ATOM     29  C   UNL     1      -0.666   0.706   3.910  0.00  0.00    -0.046 C 
BRANCH  29  30
ATOM     30  C   UNL     1       0.821   0.401   3.717  0.00  0.00    +0.102 C 
BRANCH  30  31
ATOM     31  O   UNL     1       0.972  -0.923   3.200  0.00  0.00    -0.393 OA
ATOM     32  H   UNL     1       0.612  -1.613   3.774  0.00  0.00    +0.210 HD
ENDBRANCH  30  31
BRANCH  30  33
ATOM     33  C   UNL     1       1.543   0.509   5.061  0.00  0.00    +0.064 C 
BRANCH  33  34
ATOM     34  C   UNL     1       3.025   0.330   4.851  0.00  0.00    -0.045 A 
ATOM     35  C   UNL     1       3.583  -0.933   4.909  0.00  0.00    +0.004 A 
ATOM     36  C   UNL     1       4.942  -1.097   4.717  0.00  0.00    +0.000 A 
ATOM     37  C   UNL     1       5.743   0.001   4.466  0.00  0.00    +0.000 A 
ATOM     38  C   UNL     1       5.184   1.264   4.407  0.00  0.00    +0.000 A 
ATOM     39  C   UNL     1       3.824   1.428   4.596  0.00  0.00    +0.004 A 
ENDBRANCH  33  34
ENDBRANCH  30  33
ENDBRANCH  29  30
ENDBRANCH  23  29
ENDBRANCH  22  23
ENDBRANCH   2  22
TORSDOF 14
