REMARK  Name = ZINC43527973
REMARK  8 active torsions:
REMARK  status: ('A' for Active; 'I' for Inactive)
REMARK    1  A    between atoms: C_1  and  C_2
REMARK    2  A    between atoms: C_4  and  C_33
REMARK    3  A    between atoms: C_6  and  C_8
REMARK    4  A    between atoms: C_17  and  C_19
REMARK    5  A    between atoms: C_19  and  N_20
REMARK    6  A    between atoms: N_23  and  C_24
REMARK    7  A    between atoms: C_27  and  C_30
REMARK    8  A    between atoms: C_30  and  C_32
REMARK                            x       y       z     vdW  Elec       q    Type
REMARK                         _______ _______ _______ _____ _____    ______ ____
ROOT
ATOM      1  C   UNL     1       0.029  -2.693   2.538  0.00  0.00    +0.024 C 
ATOM      2  C   UNL     1      -0.775  -3.991   2.428  0.00  0.00    -0.068 C 
ATOM      3  N   UNL     1       0.089  -5.141   2.705  0.00  0.00    +0.383 N 
ATOM      4  C   UNL     1       1.178  -5.215   1.728  0.00  0.00    -0.078 C 
ATOM      5  C   UNL     1       2.047  -3.959   1.815  0.00  0.00    -0.015 C 
ATOM      6  C   UNL     1       1.479  -3.036   2.906  0.00  0.00    -0.007 C 
ATOM      7  C   UNL     1       1.473  -3.805   4.233  0.00  0.00    -0.010 C 
ATOM      8  C   UNL     1       0.622  -5.069   4.068  0.00  0.00    -0.051 C 
ATOM      9  H   UNL     1      -0.463  -5.982   2.623  0.00  0.00    -0.081 HD
ENDROOT
BRANCH   1  15
ATOM     10  C   UNL     1      -0.067   1.513   0.046  0.00  0.00    +0.088 C 
ATOM     11  C   UNL     1      -0.044   0.006   0.034  0.00  0.00    +0.127 A 
ATOM     12  N   UNL     1      -0.051  -0.623  -1.122  0.00  0.00    -0.232 NA
ATOM     13  C   UNL     1      -0.032  -1.957  -1.170  0.00  0.00    +0.081 A 
ATOM     14  C   UNL     1      -0.005  -2.676   0.032  0.00  0.00    +0.052 A 
ATOM     15  C   UNL     1       0.001  -1.968   1.218  0.00  0.00    +0.047 A 
ATOM     16  N   UNL     1      -0.014  -0.643   1.181  0.00  0.00    -0.237 NA
BRANCH  13  17
ATOM     17  C   UNL     1      -0.039  -2.661  -2.466  0.00  0.00    +0.038 A 
ATOM     18  C   UNL     1      -0.059  -2.138  -3.734  0.00  0.00    +0.017 A 
ATOM     19  C   UNL     1      -0.063  -3.001  -4.805  0.00  0.00    +0.008 A 
ATOM     20  C   UNL     1      -0.046  -4.341  -4.577  0.00  0.00    +0.046 A 
ATOM     21  S   UNL     1      -0.018  -4.416  -2.793  0.00  0.00    -0.095 S 
ENDBRANCH  13  17
ENDBRANCH   1  15
BRANCH   8  22
ATOM     22  C   UNL     1       1.485  -6.303   4.341  0.00  0.00    +0.090 C 
BRANCH  22  23
ATOM     23  N   UNL     1       0.703  -7.513   4.082  0.00  0.00    -0.301 N 
ATOM     24  C   UNL     1       1.261  -8.727   4.256  0.00  0.00    +0.304 C 
ATOM     25  O   UNL     1       2.415  -8.818   4.629  0.00  0.00    -0.253 OA
ATOM     26  N   UNL     1       0.541  -9.841   4.018  0.00  0.00    -0.269 N 
ATOM     27  H   UNL     1      -0.218  -7.442   3.785  0.00  0.00    +0.150 HD
ATOM     28  H   UNL     1      -0.398  -9.771   3.785  0.00  0.00    +0.156 HD
BRANCH  26  29
ATOM     29  C   UNL     1       1.145 -11.094   4.106  0.00  0.00    +0.035 A 
ATOM     30  C   UNL     1       0.764 -12.111   3.236  0.00  0.00    +0.024 A 
ATOM     31  C   UNL     1       1.354 -13.340   3.318  0.00  0.00    +0.013 A 
ATOM     32  C   UNL     1       2.344 -13.576   4.280  0.00  0.00    +0.017 A 
ATOM     33  C   UNL     1       2.724 -12.550   5.154  0.00  0.00    +0.013 A 
ATOM     34  C   UNL     1       2.133 -11.322   5.061  0.00  0.00    +0.024 A 
BRANCH  32  35
ATOM     35  C   UNL     1       2.981 -14.896   4.373  0.00  0.00    +0.160 C 
ATOM     36  O   UNL     1       2.650 -15.784   3.616  0.00  0.00    -0.292 OA
ATOM     37  C   UNL     1       4.046 -15.148   5.410  0.00  0.00    +0.091 C 
ENDBRANCH  32  35
ENDBRANCH  26  29
ENDBRANCH  22  23
ENDBRANCH   8  22
TORSDOF 6
