REMARK  Name = ZINC09360839
REMARK  8 active torsions:
REMARK  status: ('A' for Active; 'I' for Inactive)
REMARK    1  A    between atoms: C_1  and  C_2
REMARK    2  A    between atoms: C_2  and  C_3
REMARK    3  A    between atoms: C_2  and  C_4
REMARK    4  A    between atoms: N_9  and  C_10
REMARK    5  A    between atoms: C_10  and  C_12
REMARK    6  A    between atoms: C_12  and  C_13
REMARK    7  A    between atoms: C_13  and  C_14
REMARK    8  A    between atoms: C_21  and  N_63
REMARK                            x       y       z     vdW  Elec       q    Type
REMARK                         _______ _______ _______ _____ _____    ______ ____
ROOT
ATOM      1  C   UNL     1      -2.786   8.611  -3.064  0.00  0.00    +0.216 C 
ATOM      2  O   UNL     1      -3.956   8.330  -3.215  0.00  0.00    -0.276 OA
ATOM      3  N   UNL     1      -1.898   7.649  -2.746  0.00  0.00    -0.305 N 
ATOM      4  C   UNL     1      -2.326   6.252  -2.579  0.00  0.00    +0.089 C 
ATOM      5  C   UNL     1      -1.797   5.738  -1.235  0.00  0.00    -0.058 C 
ATOM      6  C   UNL     1      -0.018   7.387  -1.216  0.00  0.00    -0.058 C 
ATOM      7  C   UNL     1      -0.474   7.968  -2.558  0.00  0.00    +0.089 C 
ATOM      8  N   UNL     1      -0.332   5.942  -1.193  0.00  0.00    +0.389 N 
ATOM      9  H   UNL     1       0.090   5.496  -2.016  0.00  0.00    -0.080 HD
ENDROOT
BRANCH   8  10
ATOM     10  C   UNL     1       0.227   5.323   0.027  0.00  0.00    -0.005 C 
ATOM     11  C   UNL     1      -0.596   5.671   1.243  0.00  0.00    -0.049 A 
ATOM     12  C   UNL     1      -0.900   6.875   1.842  0.00  0.00    +0.003 A 
ATOM     13  C   UNL     1      -1.699   6.905   2.971  0.00  0.00    +0.000 A 
ATOM     14  C   UNL     1      -2.187   5.727   3.507  0.00  0.00    +0.001 A 
ATOM     15  C   UNL     1      -1.889   4.518   2.914  0.00  0.00    +0.009 A 
ATOM     16  C   UNL     1      -1.087   4.480   1.772  0.00  0.00    -0.016 A 
ATOM     17  C   UNL     1      -0.616   3.342   0.945  0.00  0.00    -0.016 A 
ATOM     18  C   UNL     1       0.169   3.821  -0.101  0.00  0.00    -0.049 A 
ATOM     19  C   UNL     1       0.724   2.947  -1.011  0.00  0.00    +0.003 A 
ATOM     20  C   UNL     1       0.502   1.586  -0.889  0.00  0.00    +0.000 A 
ATOM     21  C   UNL     1      -0.276   1.101   0.146  0.00  0.00    +0.001 A 
ATOM     22  C   UNL     1      -0.835   1.968   1.062  0.00  0.00    +0.009 A 
ENDBRANCH   8  10
BRANCH   1  23
ATOM     23  C   UNL     1      -2.326  10.037  -3.230  0.00  0.00    +0.105 C 
BRANCH  23  24
ATOM     24  C   UNL     1      -3.523  10.921  -3.587  0.00  0.00    +0.107 C 
BRANCH  24  25
ATOM     25  C   UNL     1      -3.062  12.346  -3.754  0.00  0.00    +0.239 C 
ATOM     26  O   UNL     1      -1.889  12.628  -3.602  0.00  0.00    -0.274 OA
BRANCH  25  32
ATOM     27  C   UNL     1      -2.321  16.918  -4.414  0.00  0.00    +0.104 A 
ATOM     28  N   UNL     1      -3.604  16.867  -4.624  0.00  0.00    -0.169 NA
ATOM     29  N   UNL     1      -4.255  15.657  -4.527  0.00  0.00    -0.256 N 
ATOM     30  H   UNL     1      -5.211  15.594  -4.679  0.00  0.00    +0.191 HD
ATOM     31  C   UNL     1      -3.529  14.556  -4.214  0.00  0.00    +0.181 A 
ATOM     32  N   UNL     1      -3.937  13.293  -4.066  0.00  0.00    -0.155 NA
ATOM     33  S   UNL     1      -1.933  15.216  -4.047  0.00  0.00    -0.036 S 
BRANCH  27  35
ATOM     34  C   UNL     1      -2.175  19.369  -4.069  0.00  0.00    +0.014 C 
ATOM     35  C   UNL     1      -1.400  18.110  -4.462  0.00  0.00    +0.040 C 
ATOM     36  C   UNL     1      -0.241  17.899  -3.486  0.00  0.00    +0.014 C 
ENDBRANCH  27  35
ENDBRANCH  25  32
ENDBRANCH  24  25
ENDBRANCH  23  24
ENDBRANCH   1  23
TORSDOF 6
