REMARK  Name = ZINC04348672
REMARK  4 active torsions:
REMARK  status: ('A' for Active; 'I' for Inactive)
REMARK    1  A    between atoms: C_1  and  C_2
REMARK    2  A    between atoms: C_2  and  C_3
REMARK    3  A    between atoms: C_2  and  C_4
REMARK    4  A    between atoms: C_14  and  C_16
REMARK                            x       y       z     vdW  Elec       q    Type
REMARK                         _______ _______ _______ _____ _____    ______ ____
ROOT
ATOM      1  C   UNL     1      -0.017   1.383   0.010  0.00  0.00    -0.044 A 
ATOM      2  C   UNL     1       0.002  -0.004   0.002  0.00  0.00    +0.006 A 
ATOM      3  C   UNL     1       1.180  -0.704  -0.013  0.00  0.00    +0.029 A 
ATOM      4  C   UNL     1       2.422  -0.028  -0.022  0.00  0.00    +0.080 A 
ATOM      5  C   UNL     1       2.364   1.384  -0.013  0.00  0.00    +0.041 A 
ATOM      6  C   UNL     1       1.179   2.077   0.002  0.00  0.00    +0.021 A 
ATOM      7  S   UNL     1       4.083   1.833  -0.030  0.00  0.00    -0.052 S 
ATOM      8  C   UNL     1       4.748   0.174  -0.046  0.00  0.00    +0.166 A 
ATOM      9  N   UNL     1       3.662  -0.563  -0.039  0.00  0.00    -0.225 NA
ATOM     10  N   UNL     1       6.073  -0.231  -0.062  0.00  0.00    -0.262 N 
ATOM     11  C   UNL     1       6.376  -1.544  -0.073  0.00  0.00    +0.263 C 
ATOM     12  O   UNL     1       5.490  -2.371  -0.069  0.00  0.00    -0.271 OA
ATOM     13  H   UNL     1       6.782   0.431  -0.066  0.00  0.00    +0.157 HD
ENDROOT
BRANCH  11  14
ATOM     14  C   UNL     1       7.817  -1.984  -0.091  0.00  0.00    +0.296 C 
ATOM     15  C   UNL     1       8.477  -1.544  -1.405  0.00  0.00    +0.283 C 
ATOM     16  O   UNL     1       9.838  -1.989  -1.394  0.00  0.00    -0.484 OA
ATOM     17  C   UNL     1      10.059  -3.273  -1.002  0.00  0.00    +0.162 A 
ATOM     18  C   UNL     1      11.272  -3.877  -1.300  0.00  0.00    +0.049 A 
ATOM     19  C   UNL     1      11.513  -5.179  -0.906  0.00  0.00    +0.004 A 
ATOM     20  C   UNL     1      10.545  -5.885  -0.216  0.00  0.00    +0.004 A 
ATOM     21  C   UNL     1       9.334  -5.290   0.083  0.00  0.00    +0.049 A 
ATOM     22  C   UNL     1       9.086  -3.983  -0.310  0.00  0.00    +0.163 A 
ATOM     23  O   UNL     1       7.887  -3.412  -0.011  0.00  0.00    -0.473 OA
ENDBRANCH  11  14
BRANCH   1  25
ATOM     24  C   UNL     1      -2.133   1.758  -1.228  0.00  0.00    +0.012 C 
ATOM     25  C   UNL     1      -1.328   2.127   0.020  0.00  0.00    +0.013 C 
ATOM     26  C   UNL     1      -2.121   1.744   1.271  0.00  0.00    +0.012 C 
ENDBRANCH   1  25
TORSDOF 2
