REMARK  Name = ZINC13804939
REMARK  6 active torsions:
REMARK  status: ('A' for Active; 'I' for Inactive)
REMARK    1  A    between atoms: C_2  and  C_3
REMARK    2  A    between atoms: C_3  and  O_4
REMARK    3  A    between atoms: O_4  and  C_5
REMARK    4  A    between atoms: C_8  and  C_11
REMARK    5  A    between atoms: N_16  and  C_17
REMARK    6  A    between atoms: C_22  and  C_23
REMARK                            x       y       z     vdW  Elec       q    Type
REMARK                         _______ _______ _______ _____ _____    ______ ____
ROOT
ATOM      1  C   UNL     1       5.567  -5.734   0.775  0.00  0.00    +0.028 C 
ATOM      2  C   UNL     1       5.696  -6.538   1.861  0.00  0.00    +0.078 C 
ATOM      3  C   UNL     1       6.801  -7.443   2.230  0.00  0.00    +0.256 C 
ATOM      4  N   UNL     1       6.671  -8.120   3.359  0.00  0.00    -0.260 N 
ATOM      5  C   UNL     1       5.545  -7.972   4.140  0.00  0.00    +0.166 C 
ATOM      6  N   UNL     1       5.258  -8.563   5.279  0.00  0.00    -0.225 NA
ATOM      7  S   UNL     1       4.576  -6.779   3.233  0.00  0.00    -0.049 S 
ATOM      8  O   UNL     1       7.788  -7.562   1.528  0.00  0.00    -0.269 OA
ATOM      9  H   UNL     1       7.374  -8.726   3.639  0.00  0.00    +0.157 HD
ENDROOT
BRANCH   6  10
ATOM     10  C   UNL     1       6.169  -9.399   5.865  0.00  0.00    +0.078 A 
ATOM     11  C   UNL     1       7.495  -8.989   6.028  0.00  0.00    +0.030 A 
ATOM     12  C   UNL     1       8.408  -9.837   6.619  0.00  0.00    +0.022 A 
ATOM     13  C   UNL     1       8.013 -11.092   7.052  0.00  0.00    +0.042 A 
ATOM     14  C   UNL     1       6.701 -11.504   6.893  0.00  0.00    +0.034 A 
ATOM     15  C   UNL     1       5.776 -10.664   6.309  0.00  0.00    +0.082 A 
ATOM     16 CL   UNL     1       9.168 -12.152   7.795  0.00  0.00    -0.084 Cl
BRANCH  15  17
ATOM     17  C   UNL     1       4.347 -11.112   6.143  0.00  0.00    +0.419 C 
ATOM     18  F   UNL     1       4.200 -12.403   6.660  0.00  0.00    -0.166 F 
ATOM     19  F   UNL     1       3.501 -10.235   6.831  0.00  0.00    -0.166 F 
ATOM     20  F   UNL     1       4.013 -11.112   4.784  0.00  0.00    -0.166 F 
ENDBRANCH  15  17
ENDBRANCH   6  10
BRANCH   1  24
ATOM     21  C   UNL     1       2.346  -2.987   0.540  0.00  0.00    +0.121 A 
ATOM     22  C   UNL     1       2.682  -3.557   1.762  0.00  0.00    +0.046 A 
ATOM     23  C   UNL     1       3.727  -4.450   1.845  0.00  0.00    +0.011 A 
ATOM     24  C   UNL     1       4.451  -4.783   0.694  0.00  0.00    -0.024 A 
ATOM     25  C   UNL     1       4.108  -4.207  -0.535  0.00  0.00    +0.011 A 
ATOM     26  C   UNL     1       3.058  -3.319  -0.607  0.00  0.00    +0.046 A 
BRANCH  21  27
ATOM     27  O   UNL     1       1.314  -2.107   0.465  0.00  0.00    -0.488 OA
BRANCH  27  28
ATOM     28  C   UNL     1       0.625  -1.811   1.681  0.00  0.00    +0.256 C 
BRANCH  28  30
ATOM     29  C   UNL     1      -1.669  -1.010   1.920  0.00  0.00    +0.007 C 
ATOM     30  C   UNL     1      -0.480  -0.824   1.404  0.00  0.00    +0.006 C 
ENDBRANCH  28  30
ENDBRANCH  27  28
ENDBRANCH  21  27
ENDBRANCH   1  24
TORSDOF 6
