REMARK  Name = ZINC20644313
REMARK  12 active torsions:
REMARK  status: ('A' for Active; 'I' for Inactive)
REMARK    1  A    between atoms: C_1  and  C_2
REMARK    2  A    between atoms: C_2  and  C_3
REMARK    3  A    between atoms: C_2  and  C_4
REMARK    4  A    between atoms: C_2  and  C_5
REMARK    5  A    between atoms: C_8  and  C_11
REMARK    6  A    between atoms: C_11  and  S_12
REMARK    7  A    between atoms: S_12  and  C_13
REMARK    8  A    between atoms: C_17  and  C_30
REMARK    9  A    between atoms: N_23  and  C_24
REMARK   10  A    between atoms: C_24  and  C_25
REMARK   11  A    between atoms: N_32  and  C_33
REMARK   12  A    between atoms: C_33  and  C_34
REMARK                            x       y       z     vdW  Elec       q    Type
REMARK                         _______ _______ _______ _____ _____    ______ ____
ROOT
ATOM      1  C   UNL     1       1.128  -0.675  -0.012  0.00  0.00    +0.173 A 
ATOM      2  N   UNL     1       0.002  -0.004   0.002  0.00  0.00    -0.223 NA
ATOM      3  C   UNL     1      -0.016   1.350   0.009  0.00  0.00    +0.080 A 
ATOM      4  C   UNL     1      -1.218   2.063   0.031  0.00  0.00    +0.041 A 
ATOM      5  C   UNL     1      -1.188   3.451   0.033  0.00  0.00    +0.039 A 
ATOM      6  C   UNL     1       0.034   4.135   0.025  0.00  0.00    +0.014 A 
ATOM      7  C   UNL     1       1.215   3.450   0.009  0.00  0.00    +0.016 A 
ATOM      8  C   UNL     1       1.208   2.055   0.002  0.00  0.00    +0.065 A 
ATOM      9  C   UNL     1       2.457   1.276  -0.015  0.00  0.00    +0.263 A 
ATOM     10  O   UNL     1       3.542   1.826  -0.022  0.00  0.00    -0.267 OA
ATOM     11  N   UNL     1       2.353  -0.073  -0.020  0.00  0.00    -0.280 N 
ENDROOT
BRANCH   5  12
ATOM     12  C   UNL     1      -2.457   4.214   0.049  0.00  0.00    +0.244 C 
ATOM     13  O   UNL     1      -3.520   3.625   0.056  0.00  0.00    -0.270 OA
ATOM     14  N   UNL     1      -2.433   5.562   0.056  0.00  0.00    -0.309 N 
ATOM     15  H   UNL     1      -1.471   6.095   0.050  0.00  0.00    +0.149 HD
BRANCH  14  16
ATOM     16  C   UNL     1      -3.689   6.316   0.072  0.00  0.00    +0.136 C 
BRANCH  16  17
ATOM     17  C   UNL     1      -3.382   7.815   0.077  0.00  0.00    +0.135 C 
ATOM     18  C   UNL     1      -4.698   8.618   0.094  0.00  0.00    +0.035 C 
ATOM     19  C   UNL     1      -4.601   9.478   1.378  0.00  0.00    +0.031 C 
ATOM     20  C   UNL     1      -3.074   9.490   1.646  0.00  0.00    +0.160 C 
ATOM     21  O   UNL     1      -2.655   8.162   1.268  0.00  0.00    -0.375 OA
ENDBRANCH  16  17
ENDBRANCH  14  16
ENDBRANCH   5  12
BRANCH   1  22
ATOM     22  S   UNL     1       1.056  -2.435  -0.021  0.00  0.00    -0.083 S 
BRANCH  22  23
ATOM     23  C   UNL     1      -0.737  -2.677  -0.005  0.00  0.00    +0.112 C 
BRANCH  23  27
ATOM     24  C   UNL     1      -1.611  -6.859  -0.019  0.00  0.00    -0.042 A 
ATOM     25  C   UNL     1      -1.457  -6.189   1.180  0.00  0.00    +0.004 A 
ATOM     26  C   UNL     1      -1.175  -4.835   1.185  0.00  0.00    +0.005 A 
ATOM     27  C   UNL     1      -1.045  -4.152  -0.010  0.00  0.00    -0.037 A 
ATOM     28  C   UNL     1      -1.203  -4.822  -1.210  0.00  0.00    +0.005 A 
ATOM     29  C   UNL     1      -1.481  -6.176  -1.214  0.00  0.00    +0.004 A 
BRANCH  24  31
ATOM     30  C   UNL     1      -3.238  -8.582   0.709  0.00  0.00    +0.015 C 
ATOM     31  C   UNL     1      -1.919  -8.334  -0.024  0.00  0.00    -0.013 C 
ATOM     32  C   UNL     1      -2.037  -8.825  -1.468  0.00  0.00    +0.015 C 
ATOM     33  C   UNL     1      -0.792  -9.092   0.681  0.00  0.00    +0.015 C 
ENDBRANCH  24  31
ENDBRANCH  23  27
ENDBRANCH  22  23
ENDBRANCH   1  22
BRANCH  11  34
ATOM     34  C   UNL     1       3.566  -0.894  -0.036  0.00  0.00    +0.201 C 
BRANCH  34  35
ATOM     35  C   UNL     1       3.969  -1.168  -1.462  0.00  0.00    +0.125 A 
ATOM     36  C   UNL     1       4.787  -0.405  -2.209  0.00  0.00    +0.046 A 
ATOM     37  C   UNL     1       4.891  -1.031  -3.472  0.00  0.00    +0.041 A 
ATOM     38  C   UNL     1       4.124  -2.135  -3.425  0.00  0.00    +0.195 A 
ATOM     39  O   UNL     1       3.568  -2.213  -2.204  0.00  0.00    -0.466 OA
ENDBRANCH  34  35
ENDBRANCH  11  34
TORSDOF 9
