REMARK  Name = ZINC19352293
REMARK  12 active torsions:
REMARK  status: ('A' for Active; 'I' for Inactive)
REMARK    1  A    between atoms: C_1  and  C_2
REMARK    2  A    between atoms: C_2  and  C_4
REMARK    3  A    between atoms: C_2  and  N_14
REMARK    4  A    between atoms: C_15  and  C_17
REMARK    5  A    between atoms: C_17  and  O_18
REMARK    6  A    between atoms: O_18  and  C_19
REMARK    7  A    between atoms: C_19  and  C_21
REMARK    8  A    between atoms: C_21  and  N_22
REMARK    9  A    between atoms: C_28  and  C_31
REMARK   10  A    between atoms: C_31  and  C_32
REMARK   11  A    between atoms: C_31  and  C_33
REMARK   12  A    between atoms: C_31  and  C_34
REMARK                            x       y       z     vdW  Elec       q    Type
REMARK                         _______ _______ _______ _____ _____    ______ ____
ROOT
ATOM      1  C   UNL     1       8.790   4.322  -3.135  0.00  0.00    +0.326 C 
ATOM      2  O   UNL     1       8.822   5.530  -3.105  0.00  0.00    -0.249 OA
ENDROOT
BRANCH   1   3
ATOM      3  O   UNL     1       7.784   3.663  -2.540  0.00  0.00    -0.454 OA
BRANCH   3   4
ATOM      4  C   UNL     1       6.769   4.465  -1.880  0.00  0.00    +0.327 C 
BRANCH   4   6
ATOM      5  N   UNL     1       4.683   4.086  -0.606  0.00  0.00    -0.306 N 
ATOM      6  C   UNL     1       5.729   3.559  -1.274  0.00  0.00    +0.251 C 
ATOM      7  O   UNL     1       5.832   2.356  -1.387  0.00  0.00    -0.272 OA
ATOM      8  H   UNL     1       4.590   5.177  -0.503  0.00  0.00    +0.149 HD
BRANCH   5  10
ATOM      9  C   UNL     1       4.111   2.793   1.390  0.00  0.00    +0.033 C 
ATOM     10  C   UNL     1       3.671   3.205  -0.017  0.00  0.00    +0.101 C 
BRANCH  10  11
ATOM     11  C   UNL     1       2.355   3.934   0.062  0.00  0.00    -0.020 A 
ATOM     12  C   UNL     1       2.330   5.292   0.160  0.00  0.00    +0.006 A 
ATOM     13  C   UNL     1       1.122   5.983   0.234  0.00  0.00    +0.001 A 
ATOM     14  C   UNL     1      -0.067   5.322   0.209  0.00  0.00    +0.008 A 
ATOM     15  C   UNL     1      -0.081   3.920   0.108  0.00  0.00    -0.018 A 
ATOM     16  C   UNL     1       1.147   3.217   0.033  0.00  0.00    -0.013 A 
ATOM     17  C   UNL     1       1.133   1.815  -0.068  0.00  0.00    +0.009 A 
ATOM     18  C   UNL     1      -0.056   1.154  -0.093  0.00  0.00    +0.001 A 
ATOM     19  C   UNL     1      -1.264   1.846  -0.025  0.00  0.00    +0.001 A 
ATOM     20  C   UNL     1      -1.289   3.203   0.079  0.00  0.00    +0.008 A 
ENDBRANCH  10  11
ENDBRANCH   5  10
ENDBRANCH   4   6
ENDBRANCH   3   4
ENDBRANCH   1   3
BRANCH   1  21
ATOM     21  C   UNL     1       9.880   3.557  -3.840  0.00  0.00    +0.238 C 
BRANCH  21  22
ATOM     22  N   UNL     1      10.852   4.497  -4.403  0.00  0.00    -0.213 N 
ATOM     23  C   UNL     1      11.942   4.945  -3.745  0.00  0.00    +0.247 C 
ATOM     24  O   UNL     1      12.290   4.657  -2.620  0.00  0.00    -0.273 OA
ATOM     25  C   UNL     1      12.637   5.881  -4.707  0.00  0.00    +0.113 C 
ATOM     26  C   UNL     1      14.036   5.368  -5.030  0.00  0.00    +0.035 C 
ATOM     27  C   UNL     1      14.887   5.366  -3.757  0.00  0.00    +0.006 C 
ATOM     28  C   UNL     1      14.964   6.787  -3.195  0.00  0.00    -0.005 C 
ATOM     29  C   UNL     1      13.556   7.281  -2.856  0.00  0.00    +0.006 C 
ATOM     30  C   UNL     1      12.700   7.289  -4.125  0.00  0.00    +0.035 C 
ATOM     31  N   UNL     1      11.789   5.856  -5.905  0.00  0.00    -0.285 N 
ATOM     32  C   UNL     1      10.773   5.014  -5.635  0.00  0.00    +0.310 C 
ATOM     33  O   UNL     1       9.882   4.756  -6.420  0.00  0.00    -0.252 OA
ATOM     34  H   UNL     1      12.059   6.462  -6.783  0.00  0.00    +0.151 HD
BRANCH  28  35
ATOM     35  C   UNL     1      15.823   6.788  -1.929  0.00  0.00    -0.035 C 
ATOM     36  C   UNL     1      15.195   5.862  -0.886  0.00  0.00    +0.011 C 
ATOM     37  C   UNL     1      17.231   6.295  -2.268  0.00  0.00    +0.011 C 
ATOM     38  C   UNL     1      15.902   8.209  -1.368  0.00  0.00    +0.011 C 
ENDBRANCH  28  35
ENDBRANCH  21  22
ENDBRANCH   1  21
TORSDOF 8
