REMARK  Name = ZINC04854374
REMARK  5 active torsions:
REMARK  status: ('A' for Active; 'I' for Inactive)
REMARK    1  A    between atoms: C_1  and  C_2
REMARK    2  A    between atoms: C_2  and  C_3
REMARK    3  A    between atoms: C_2  and  C_4
REMARK    4  A    between atoms: C_2  and  N_5
REMARK    5  A    between atoms: C_16  and  C_18
REMARK                            x       y       z     vdW  Elec       q    Type
REMARK                         _______ _______ _______ _____ _____    ______ ____
ROOT
ATOM      1  N   UNL     1       0.173   7.284   2.569  0.00  0.00    -0.294 N 
ATOM      2  C   UNL     1      -1.068   7.134   2.063  0.00  0.00    +0.303 C 
ATOM      3  O   UNL     1      -2.037   7.443   2.729  0.00  0.00    -0.253 OA
ATOM      4  N   UNL     1      -1.233   6.642   0.819  0.00  0.00    -0.271 N 
ATOM      5  C   UNL     1      -2.567   6.571   0.200  0.00  0.00    +0.132 C 
ATOM      6  C   UNL     1      -2.606   7.489  -1.026  0.00  0.00    +0.140 C 
ATOM      7  N   UNL     1      -1.401   7.269  -1.833  0.00  0.00    -0.347 N 
ATOM      8  C   UNL     1      -1.217   7.609  -3.138  0.00  0.00    +0.086 A 
ATOM      9  C   UNL     1       0.033   7.247  -3.497  0.00  0.00    +0.019 A 
ATOM     10  C   UNL     1       0.643   6.657  -2.371  0.00  0.00    +0.025 A 
ATOM     11  C   UNL     1      -0.254   6.680  -1.373  0.00  0.00    +0.044 A 
ATOM     12  C   UNL     1      -0.082   6.158   0.035  0.00  0.00    +0.155 C 
ATOM     13  H   UNL     1       0.948   7.106   2.014  0.00  0.00    +0.151 HD
ENDROOT
BRANCH  12  14
ATOM     14  C   UNL     1      -0.061   4.652   0.026  0.00  0.00    -0.021 A 
ATOM     15  C   UNL     1       0.996   3.971   0.601  0.00  0.00    +0.007 A 
ATOM     16  C   UNL     1       1.014   2.589   0.594  0.00  0.00    +0.015 A 
ATOM     17  C   UNL     1      -0.025   1.887   0.011  0.00  0.00    +0.018 A 
ATOM     18  C   UNL     1      -1.080   2.568  -0.568  0.00  0.00    +0.015 A 
ATOM     19  C   UNL     1      -1.100   3.950  -0.556  0.00  0.00    +0.007 A 
ATOM     20 BR   UNL     1       0.000  -0.004   0.001  0.00  0.00    -0.050 Br
ENDBRANCH  12  14
BRANCH   1  22
ATOM     21  C   UNL     1      -0.312   6.702   4.895  0.00  0.00    +0.031 C 
ATOM     22  C   UNL     1       0.350   7.715   3.958  0.00  0.00    +0.028 C 
ATOM     23  C   UNL     1       1.843   7.805   4.277  0.00  0.00    +0.031 C 
ATOM     24  C   UNL     1      -0.297   9.088   4.153  0.00  0.00    +0.031 C 
ENDBRANCH   1  22
TORSDOF 2
