REMARK  Name = ZINC63425999
REMARK  10 active torsions:
REMARK  status: ('A' for Active; 'I' for Inactive)
REMARK    1  A    between atoms: C_1  and  C_2
REMARK    2  A    between atoms: C_2  and  C_3
REMARK    3  A    between atoms: C_3  and  N_19
REMARK    4  A    between atoms: N_10  and  C_13
REMARK    5  A    between atoms: N_19  and  C_20
REMARK    6  A    between atoms: C_20  and  C_22
REMARK    7  A    between atoms: C_20  and  C_32
REMARK    8  A    between atoms: C_22  and  C_23
REMARK    9  A    between atoms: C_32  and  O_34
REMARK   10  A    between atoms: O_34  and  C_35
REMARK                            x       y       z     vdW  Elec       q    Type
REMARK                         _______ _______ _______ _____ _____    ______ ____
ROOT
ATOM      1  C   UNL     1      -1.960  -0.061  -0.220  0.00  0.00    +0.022 C 
ATOM      2  C   UNL     1      -2.384  -0.800  -1.309  0.00  0.00    +0.116 C 
ATOM      3  C   UNL     1      -3.493  -1.765  -1.198  0.00  0.00    +0.258 C 
ATOM      4  O   UNL     1      -4.067  -1.939  -0.140  0.00  0.00    -0.270 OA
ATOM      5  N   UNL     1      -3.853  -2.451  -2.303  0.00  0.00    -0.235 N 
ATOM      6  C   UNL     1      -3.229  -2.269  -3.475  0.00  0.00    +0.320 C 
ATOM      7  O   UNL     1      -3.603  -2.918  -4.433  0.00  0.00    -0.251 OA
ATOM      8  N   UNL     1      -2.216  -1.409  -3.648  0.00  0.00    -0.190 N 
ATOM      9  C   UNL     1      -1.753  -0.652  -2.632  0.00  0.00    +0.265 C 
ATOM     10  O   UNL     1      -0.835   0.129  -2.803  0.00  0.00    -0.269 OA
ATOM     11  H   UNL     1      -4.580  -3.091  -2.247  0.00  0.00    +0.159 HD
ENDROOT
BRANCH   8  12
ATOM     12  C   UNL     1      -1.627  -1.291  -4.914  0.00  0.00    +0.046 A 
ATOM     13  C   UNL     1      -0.364  -1.817  -5.146  0.00  0.00    +0.024 A 
ATOM     14  C   UNL     1       0.214  -1.699  -6.395  0.00  0.00    +0.002 A 
ATOM     15  C   UNL     1      -0.465  -1.057  -7.414  0.00  0.00    +0.000 A 
ATOM     16  C   UNL     1      -1.724  -0.531  -7.186  0.00  0.00    +0.002 A 
ATOM     17  C   UNL     1      -2.308  -0.651  -5.941  0.00  0.00    +0.024 A 
ENDBRANCH   8  12
BRANCH   1  19
ATOM     18  C   UNL     1      -1.112   2.182  -0.853  0.00  0.00    +0.010 C 
ATOM     19  C   UNL     1      -0.726   0.798  -0.327  0.00  0.00    +0.048 C 
ENDBRANCH   1  19
BRANCH   1  20
ATOM     20  N   UNL     1      -2.650  -0.109   0.937  0.00  0.00    -0.334 N 
ATOM     21  H   UNL     1      -3.490  -0.592   0.981  0.00  0.00    +0.147 HD
BRANCH  20  22
ATOM     22  C   UNL     1      -2.131   0.570   2.127  0.00  0.00    +0.184 C 
BRANCH  22  23
ATOM     23  C   UNL     1      -1.158  -0.336   2.837  0.00  0.00    +0.328 C 
ATOM     24  O   UNL     1      -0.922  -1.435   2.395  0.00  0.00    -0.249 OA
BRANCH  23  25
ATOM     25  O   UNL     1      -0.553   0.078   3.962  0.00  0.00    -0.467 OA
ATOM     26  C   UNL     1       0.357  -0.832   4.582  0.00  0.00    +0.280 C 
ENDBRANCH  23  25
ENDBRANCH  22  23
BRANCH  22  27
ATOM     27  C   UNL     1      -3.290   0.909   3.066  0.00  0.00    +0.066 C 
BRANCH  27  28
ATOM     28  C   UNL     1      -4.198   1.911   2.401  0.00  0.00    -0.039 C 
ATOM     29  C   UNL     1      -5.325   1.647   1.701  0.00  0.00    -0.001 A 
ATOM     30  C   UNL     1      -6.015   0.397   1.361  0.00  0.00    +0.010 A 
ATOM     31  C   UNL     1      -7.150   0.453   0.628  0.00  0.00    +0.001 A 
ATOM     32  C   UNL     1      -7.683   1.672   0.185  0.00  0.00    +0.002 A 
ATOM     33  C   UNL     1      -7.106   2.861   0.458  0.00  0.00    +0.026 A 
ATOM     34  C   UNL     1      -5.908   2.921   1.222  0.00  0.00    +0.043 A 
ATOM     35  N   UNL     1      -5.171   3.933   1.611  0.00  0.00    -0.380 N 
ATOM     36  C   UNL     1      -4.038   3.415   2.387  0.00  0.00    +0.144 C 
ATOM     37  H   UNL     1      -5.347   4.868   1.421  0.00  0.00    +0.160 HD
ENDBRANCH  27  28
ENDBRANCH  22  27
ENDBRANCH  20  22
ENDBRANCH   1  20
TORSDOF 8
