REMARK  Name = ZINC08658635
REMARK  7 active torsions:
REMARK  status: ('A' for Active; 'I' for Inactive)
REMARK    1  A    between atoms: C_1  and  C_2
REMARK    2  A    between atoms: C_5  and  C_32
REMARK    3  A    between atoms: C_6  and  S_8
REMARK    4  A    between atoms: S_8  and  C_9
REMARK    5  A    between atoms: C_12  and  N_15
REMARK    6  A    between atoms: C_16  and  C_18
REMARK    7  A    between atoms: C_18  and  N_19
REMARK                            x       y       z     vdW  Elec       q    Type
REMARK                         _______ _______ _______ _____ _____    ______ ____
ROOT
ATOM      1  N   UNL     1      -0.060   0.936   0.054  0.00  0.00    -0.284 N 
ATOM      2  C   UNL     1       1.060   1.464   0.588  0.00  0.00    +0.235 C 
ATOM      3  O   UNL     1       1.054   2.604   1.003  0.00  0.00    -0.274 OA
ATOM      4  H   UNL     1      -0.036   0.052  -0.345  0.00  0.00    +0.155 HD
ENDROOT
BRANCH   1   8
ATOM      5  C   UNL     1      -3.621   3.106   0.108  0.00  0.00    +0.013 A 
ATOM      6  C   UNL     1      -2.409   3.763  -0.066  0.00  0.00    +0.017 A 
ATOM      7  C   UNL     1      -1.231   3.045  -0.083  0.00  0.00    +0.024 A 
ATOM      8  C   UNL     1      -1.256   1.665   0.072  0.00  0.00    +0.033 A 
ATOM      9  C   UNL     1      -2.467   1.007   0.240  0.00  0.00    +0.024 A 
ATOM     10  C   UNL     1      -3.646   1.725   0.263  0.00  0.00    +0.017 A 
BRANCH   5  11
ATOM     11  S   UNL     1      -5.125   4.023   0.131  0.00  0.00    -0.089 S 
BRANCH  11  17
ATOM     12  C   UNL     1      -4.391   2.850  -4.915  0.00  0.00    +0.044 C 
ATOM     13  C   UNL     1      -5.270   3.447  -3.847  0.00  0.00    -0.049 A 
ATOM     14  C   UNL     1      -6.499   3.984  -4.184  0.00  0.00    +0.004 A 
ATOM     15  C   UNL     1      -7.310   4.533  -3.207  0.00  0.00    +0.005 A 
ATOM     16  C   UNL     1      -6.894   4.546  -1.891  0.00  0.00    -0.037 A 
ATOM     17  C   UNL     1      -5.660   4.007  -1.548  0.00  0.00    +0.016 A 
ATOM     18  C   UNL     1      -4.846   3.461  -2.533  0.00  0.00    +0.018 A 
ATOM     19  C   UNL     1      -7.777   5.145  -0.827  0.00  0.00    +0.045 C 
ENDBRANCH  11  17
ENDBRANCH   5  11
ENDBRANCH   1   8
BRANCH   2  20
ATOM     20  C   UNL     1       2.318   0.639   0.669  0.00  0.00    +0.214 C 
BRANCH  20  21
ATOM     21  N   UNL     1       3.384   1.434   1.284  0.00  0.00    -0.215 N 
ATOM     22  C   UNL     1       3.628   1.476   2.608  0.00  0.00    +0.247 C 
ATOM     23  O   UNL     1       3.027   0.888   3.481  0.00  0.00    -0.273 OA
ATOM     24  C   UNL     1       4.811   2.413   2.782  0.00  0.00    +0.113 C 
ATOM     25  C   UNL     1       6.005   1.579   3.299  0.00  0.00    +0.035 C 
ATOM     26  C   UNL     1       7.282   2.283   2.934  0.00  0.00    +0.003 C 
ATOM     27  C   UNL     1       7.801   3.197   4.062  0.00  0.00    +0.000 C 
ATOM     28  C   UNL     1       6.677   3.998   4.746  0.00  0.00    +0.000 C 
ATOM     29  C   UNL     1       5.678   4.540   3.759  0.00  0.00    +0.003 C 
ATOM     30  C   UNL     1       4.509   3.542   3.652  0.00  0.00    +0.035 C 
ATOM     31  N   UNL     1       5.118   2.830   1.399  0.00  0.00    -0.285 N 
ATOM     32  C   UNL     1       4.238   2.202   0.600  0.00  0.00    +0.310 C 
ATOM     33  O   UNL     1       4.219   2.322  -0.609  0.00  0.00    -0.252 OA
ATOM     34  H   UNL     1       5.822   3.437   1.120  0.00  0.00    +0.151 HD
ENDBRANCH  20  21
ENDBRANCH   2  20
TORSDOF 5
