REMARK  Name = ZINC20899197
REMARK  2 active torsions:
REMARK  status: ('A' for Active; 'I' for Inactive)
REMARK    1  A    between atoms: C_10  and  C_13
REMARK    2  A    between atoms: N_25  and  C_28
REMARK                            x       y       z     vdW  Elec       q    Type
REMARK                         _______ _______ _______ _____ _____    ______ ____
ROOT
ATOM      1  C   UNL     1       1.555   0.495   3.550  0.00  0.00    +0.002 A 
ATOM      2  C   UNL     1       2.867   0.935   3.592  0.00  0.00    +0.001 A 
ATOM      3  C   UNL     1       3.838   0.221   2.933  0.00  0.00    +0.016 A 
ATOM      4  C   UNL     1       3.536  -0.945   2.215  0.00  0.00    +0.030 A 
ATOM      5  C   UNL     1       2.223  -1.387   2.170  0.00  0.00    +0.045 A 
ATOM      6  C   UNL     1       1.243  -0.645   2.852  0.00  0.00    +0.024 A 
ATOM      7  N   UNL     1       1.748  -2.493   1.518  0.00  0.00    -0.316 N 
ATOM      8  C   UNL     1       2.149  -3.571   0.943  0.00  0.00    +0.027 C 
ATOM      9  C   UNL     1       3.516  -3.957   0.499  0.00  0.00    +0.071 C 
ATOM     10  C   UNL     1       4.577  -3.505   1.459  0.00  0.00    +0.087 C 
ATOM     11  S   UNL     1       4.877  -1.744   1.430  0.00  0.00    -0.115 S 
ATOM     12  C   UNL     1       1.163  -4.512   0.702  0.00  0.00    +0.117 C 
ATOM     13  C   UNL     1       1.355  -5.591  -0.283  0.00  0.00    +0.258 C 
ATOM     14  N   UNL     1       0.351  -6.473  -0.466  0.00  0.00    -0.235 N 
ATOM     15  C   UNL     1      -0.795  -6.382   0.222  0.00  0.00    +0.320 C 
ATOM     16  O   UNL     1      -1.661  -7.208   0.010  0.00  0.00    -0.251 OA
ATOM     17  N   UNL     1      -1.038  -5.428   1.132  0.00  0.00    -0.190 N 
ATOM     18  C   UNL     1      -0.121  -4.482   1.423  0.00  0.00    +0.265 C 
ATOM     19  O   UNL     1      -0.351  -3.624   2.255  0.00  0.00    -0.269 OA
ATOM     20  O   UNL     1       2.391  -5.684  -0.914  0.00  0.00    -0.270 OA
ATOM     21  H   UNL     1       0.461  -7.190  -1.111  0.00  0.00    +0.159 HD
ATOM     22  H   UNL     1       0.780  -2.448   1.476  0.00  0.00    +0.152 HD
ENDROOT
BRANCH  10  23
ATOM     23  C   UNL     1       5.864  -4.214   1.123  0.00  0.00    -0.034 A 
ATOM     24  C   UNL     1       6.438  -4.050  -0.124  0.00  0.00    +0.007 A 
ATOM     25  C   UNL     1       7.617  -4.699  -0.433  0.00  0.00    +0.038 A 
ATOM     26  C   UNL     1       8.225  -5.516   0.506  0.00  0.00    +0.123 A 
ATOM     27  C   UNL     1       7.649  -5.680   1.754  0.00  0.00    +0.038 A 
ATOM     28  C   UNL     1       6.472  -5.025   2.063  0.00  0.00    +0.007 A 
ATOM     29  F   UNL     1       9.378  -6.152   0.204  0.00  0.00    -0.205 F 
ENDBRANCH  10  23
BRANCH  17  30
ATOM     30  C   UNL     1      -2.269  -5.417   1.801  0.00  0.00    +0.047 A 
ATOM     31  C   UNL     1      -3.341  -4.708   1.273  0.00  0.00    +0.024 A 
ATOM     32  C   UNL     1      -4.553  -4.698   1.934  0.00  0.00    +0.003 A 
ATOM     33  C   UNL     1      -4.702  -5.393   3.120  0.00  0.00    +0.020 A 
ATOM     34  C   UNL     1      -3.636  -6.100   3.649  0.00  0.00    +0.043 A 
ATOM     35  C   UNL     1      -2.422  -6.118   2.989  0.00  0.00    +0.044 A 
ATOM     36 CL   UNL     1      -3.827  -6.970   5.139  0.00  0.00    -0.083 Cl
ENDBRANCH  17  30
TORSDOF 2
