REMARK  Name = ZINC59252024
REMARK  8 active torsions:
REMARK  status: ('A' for Active; 'I' for Inactive)
REMARK    1  A    between atoms: C_1  and  C_2
REMARK    2  A    between atoms: C_6  and  C_30
REMARK    3  A    between atoms: C_8  and  N_11
REMARK    4  A    between atoms: C_12  and  C_14
REMARK    5  A    between atoms: C_17  and  S_20
REMARK    6  A    between atoms: S_20  and  N_23
REMARK    7  A    between atoms: C_30  and  C_31
REMARK    8  A    between atoms: C_30  and  C_32
REMARK                            x       y       z     vdW  Elec       q    Type
REMARK                         _______ _______ _______ _____ _____    ______ ____
ROOT
ATOM      1  C   UNL     1       3.123  -0.427   4.919  0.00  0.00    +0.037 A 
ATOM      2  C   UNL     1       3.970  -1.536   4.876  0.00  0.00    +0.015 A 
ATOM      3  C   UNL     1       4.540  -2.010   6.039  0.00  0.00    +0.029 A 
ATOM      4  C   UNL     1       4.273  -1.390   7.247  0.00  0.00    +0.106 A 
ATOM      5  C   UNL     1       3.434  -0.291   7.297  0.00  0.00    +0.029 A 
ATOM      6  C   UNL     1       2.862   0.197   6.140  0.00  0.00    +0.015 A 
ENDROOT
BRANCH   1   8
ATOM      7  N   UNL     1       2.763  -0.519   2.499  0.00  0.00    -0.308 N 
ATOM      8  C   UNL     1       2.509   0.086   3.676  0.00  0.00    +0.244 C 
ATOM      9  O   UNL     1       1.776   1.055   3.716  0.00  0.00    -0.270 OA
ATOM     10  H   UNL     1       3.348  -1.292   2.467  0.00  0.00    +0.149 HD
BRANCH   7  16
ATOM     11  C   UNL     1       0.055   1.507  -0.102  0.00  0.00    +0.007 C 
ATOM     12  C   UNL     1       0.095  -0.022  -0.147  0.00  0.00    -0.012 C 
ATOM     13  C   UNL     1       0.924  -0.474  -1.351  0.00  0.00    +0.004 C 
ATOM     14  C   UNL     1       2.348   0.070  -1.222  0.00  0.00    +0.006 C 
ATOM     15  C   UNL     1       2.984  -0.462   0.064  0.00  0.00    +0.012 C 
ATOM     16  C   UNL     1       2.155  -0.009   1.267  0.00  0.00    +0.077 C 
ATOM     17  C   UNL     1       0.730  -0.554   1.139  0.00  0.00    +0.026 C 
BRANCH  15  18
ATOM     18  C   UNL     1       4.408   0.082   0.192  0.00  0.00    -0.012 C 
ATOM     19  C   UNL     1       5.276  -0.490  -0.931  0.00  0.00    +0.007 C 
ATOM     20  C   UNL     1       4.382   1.608   0.089  0.00  0.00    +0.007 C 
ENDBRANCH  15  18
ENDBRANCH   7  16
ENDBRANCH   1   8
BRANCH   4  21
ATOM     21  S   UNL     1       5.005  -2.002   8.728  0.00  0.00    +0.061 S 
ATOM     22  O   UNL     1       4.168  -1.585   9.798  0.00  0.00    -0.153 OA
ATOM     23  O   UNL     1       5.316  -3.369   8.493  0.00  0.00    -0.153 OA
BRANCH  21  24
ATOM     24  N   UNL     1       6.449  -1.216   8.923  0.00  0.00    -0.166 NA
ATOM     25  C   UNL     1       7.696  -1.749   8.349  0.00  0.00    +0.128 C 
ATOM     26  C   UNL     1       8.237  -0.726   7.348  0.00  0.00    +0.121 C 
ATOM     27  N   UNL     1       8.216   0.614   7.918  0.00  0.00    -0.313 N 
ATOM     28  C   UNL     1       7.436   0.995   8.930  0.00  0.00    +0.229 C 
ATOM     29  O   UNL     1       7.450   2.160   9.265  0.00  0.00    -0.274 OA
ATOM     30  C   UNL     1       6.538   0.048   9.670  0.00  0.00    +0.205 C 
ATOM     31  H   UNL     1       8.812   1.277   7.533  0.00  0.00    +0.149 HD
ENDBRANCH  21  24
ENDBRANCH   4  21
TORSDOF 5
