REMARK  Name = ZINC05255403
REMARK  7 active torsions:
REMARK  status: ('A' for Active; 'I' for Inactive)
REMARK    1  A    between atoms: C_1  and  O_2
REMARK    2  A    between atoms: O_2  and  C_3
REMARK    3  A    between atoms: C_6  and  C_12
REMARK    4  A    between atoms: C_8  and  N_9
REMARK    5  A    between atoms: C_12  and  C_14
REMARK    6  A    between atoms: C_14  and  C_15
REMARK    7  A    between atoms: C_15  and  O_27
REMARK                            x       y       z     vdW  Elec       q    Type
REMARK                         _______ _______ _______ _____ _____    ______ ____
ROOT
ATOM      1  C   UNL     1       0.977   3.736   0.013  0.00  0.00    +0.177 C 
ATOM      2  C   UNL     1       2.242   4.530  -0.214  0.00  0.00    +0.033 A 
ATOM      3  C   UNL     1       2.047   5.250  -1.386  0.00  0.00    +0.043 A 
ATOM      4  C   UNL     1       3.066   6.082  -1.845  0.00  0.00    +0.043 A 
ATOM      5  C   UNL     1       4.248   6.186  -1.138  0.00  0.00    +0.044 A 
ATOM      6  C   UNL     1       4.431   5.464   0.028  0.00  0.00    +0.040 A 
ATOM      7  C   UNL     1       3.422   4.634   0.489  0.00  0.00    +0.051 A 
ATOM      8 CL   UNL     1       3.645   3.725   1.952  0.00  0.00    -0.083 Cl
ATOM      9 CL   UNL     1       5.512   7.226  -1.717  0.00  0.00    -0.083 Cl
ATOM     10  N   UNL     1       0.783   4.981  -1.912  0.00  0.00    -0.282 N 
ATOM     11  C   UNL     1       0.093   4.109  -1.159  0.00  0.00    +0.254 C 
ATOM     12  O   UNL     1      -1.027   3.697  -1.376  0.00  0.00    -0.272 OA
ATOM     13  H   UNL     1       0.442   5.378  -2.729  0.00  0.00    +0.155 HD
ENDROOT
BRANCH   1  14
ATOM     14  O   UNL     1       0.360   4.113   1.245  0.00  0.00    -0.374 OA
ATOM     15  H   UNL     1      -0.472   3.654   1.425  0.00  0.00    +0.211 HD
ENDBRANCH   1  14
BRANCH   1  16
ATOM     16  C   UNL     1       1.277   2.236   0.002  0.00  0.00    +0.129 C 
BRANCH  16  17
ATOM     17  C   UNL     1      -0.018   1.464   0.010  0.00  0.00    +0.167 C 
ATOM     18  O   UNL     1      -1.076   2.057   0.018  0.00  0.00    -0.292 OA
BRANCH  17  22
ATOM     19  C   UNL     1       0.046  -2.770  -0.013  0.00  0.00    +0.150 A 
ATOM     20  C   UNL     1       1.239  -2.056  -0.021  0.00  0.00    +0.048 A 
ATOM     21  C   UNL     1       1.223  -0.690  -0.019  0.00  0.00    +0.015 A 
ATOM     22  C   UNL     1       0.002  -0.004   0.002  0.00  0.00    +0.020 A 
ATOM     23  C   UNL     1      -1.200  -0.723   0.010  0.00  0.00    +0.047 A 
ATOM     24  C   UNL     1      -1.172  -2.099   0.002  0.00  0.00    +0.168 A 
BRANCH  24  25
ATOM     25  N   UNL     1      -2.439  -2.865   0.011  0.00  0.00    +0.060 N 
ATOM     26  O   UNL     1      -3.506  -2.277   0.024  0.00  0.00    -0.126 OA
ATOM     27  O   UNL     1      -2.415  -4.082   0.004  0.00  0.00    -0.126 OA
ENDBRANCH  24  25
BRANCH  19  29
ATOM     28  C   UNL     1       1.355  -4.753  -0.037  0.00  0.00    +0.277 C 
ATOM     29  O   UNL     1       0.070  -4.127  -0.021  0.00  0.00    -0.493 OA
ENDBRANCH  19  29
ENDBRANCH  17  22
ENDBRANCH  16  17
ENDBRANCH   1  16
TORSDOF 6
