REMARK  Name = ZINC39710678
REMARK  14 active torsions:
REMARK  status: ('A' for Active; 'I' for Inactive)
REMARK    1  A    between atoms: C_1  and  C_2
REMARK    2  A    between atoms: C_7  and  C_14
REMARK    3  A    between atoms: C_14  and  C_16
REMARK    4  A    between atoms: C_14  and  N_26
REMARK    5  A    between atoms: N_21  and  C_22
REMARK    6  A    between atoms: C_22  and  C_23
REMARK    7  A    between atoms: C_22  and  C_24
REMARK    8  A    between atoms: C_22  and  C_25
REMARK    9  A    between atoms: N_26  and  C_27
REMARK   10  A    between atoms: N_26  and  C_36
REMARK   11  A    between atoms: C_27  and  C_28
REMARK   12  A    between atoms: C_31  and  O_34
REMARK   13  A    between atoms: O_34  and  C_35
REMARK   14  A    between atoms: C_36  and  C_37
REMARK                            x       y       z     vdW  Elec       q    Type
REMARK                         _______ _______ _______ _____ _____    ______ ____
ROOT
ATOM      1  C   UNL     1       1.270  -5.629   1.107  0.00  0.00    -0.009 C 
ENDROOT
BRANCH   1   8
ATOM      2  C   UNL     1      -3.780  -5.677  -4.434  0.00  0.00    +0.044 C 
ATOM      3  C   UNL     1      -3.066  -5.675  -3.107  0.00  0.00    -0.049 A 
ATOM      4  C   UNL     1      -3.523  -6.525  -2.099  0.00  0.00    +0.004 A 
ATOM      5  C   UNL     1      -2.921  -6.568  -0.883  0.00  0.00    +0.010 A 
ATOM      6  C   UNL     1      -1.768  -5.700  -0.635  0.00  0.00    -0.007 A 
ATOM      7  C   UNL     1      -1.132  -5.710   0.571  0.00  0.00    -0.006 C 
ATOM      8  C   UNL     1       0.052  -4.779   0.738  0.00  0.00    +0.088 C 
ATOM      9  C   UNL     1       0.431  -3.916  -0.444  0.00  0.00    +0.223 C 
ATOM     10  O   UNL     1       1.374  -3.151  -0.364  0.00  0.00    -0.275 OA
ATOM     11  N   UNL     1      -0.265  -3.996  -1.565  0.00  0.00    -0.285 N 
ATOM     12  C   UNL     1      -1.307  -4.814  -1.717  0.00  0.00    +0.041 A 
ATOM     13  C   UNL     1      -1.999  -4.850  -2.942  0.00  0.00    +0.027 A 
ATOM     14  H   UNL     1      -0.006  -3.434  -2.312  0.00  0.00    +0.155 HD
ENDBRANCH   1   8
BRANCH   1  15
ATOM     15  C   UNL     1       1.484  -6.704   0.039  0.00  0.00    +0.205 C 
ATOM     16  N   UNL     1       0.454  -7.746   0.146  0.00  0.00    -0.152 NA
ATOM     17  N   UNL     1       1.001  -8.824   0.388  0.00  0.00    -0.070 NA
ATOM     18  N   UNL     1       2.388  -8.719   0.480  0.00  0.00    -0.179 N 
ATOM     19  N   UNL     1       2.759  -7.414   0.270  0.00  0.00    -0.183 NA
ATOM     20  H   UNL     1       2.996  -9.453   0.664  0.00  0.00    +0.191 HD
BRANCH  19  21
ATOM     21  C   UNL     1       3.645  -7.297  -0.896  0.00  0.00    +0.035 C 
ATOM     22  C   UNL     1       3.880  -5.819  -1.212  0.00  0.00    +0.029 C 
ATOM     23  C   UNL     1       4.983  -7.972  -0.589  0.00  0.00    +0.029 C 
ATOM     24  C   UNL     1       2.995  -7.980  -2.101  0.00  0.00    +0.029 C 
ENDBRANCH  19  21
ENDBRANCH   1  15
BRANCH   1  25
ATOM     25  N   UNL     1       1.042  -6.271   2.409  0.00  0.00    +0.389 N 
ATOM     26  H   UNL     1       0.289  -6.938   2.328  0.00  0.00    -0.081 HD
BRANCH  25  27
ATOM     27  C   UNL     1       0.688  -5.250   3.403  0.00  0.00    -0.042 C 
BRANCH  27  28
ATOM     28  C   UNL     1       1.821  -4.266   3.539  0.00  0.00    -0.064 A 
ATOM     29  C   UNL     1       2.879  -4.545   4.386  0.00  0.00    +0.005 A 
ATOM     30  C   UNL     1       3.919  -3.645   4.513  0.00  0.00    +0.046 A 
ATOM     31  C   UNL     1       3.903  -2.461   3.790  0.00  0.00    +0.120 A 
ATOM     32  C   UNL     1       2.841  -2.184   2.942  0.00  0.00    +0.046 A 
ATOM     33  C   UNL     1       1.806  -3.090   2.814  0.00  0.00    +0.005 A 
BRANCH  31  34
ATOM     34  O   UNL     1       4.925  -1.574   3.914  0.00  0.00    -0.495 OA
ATOM     35  C   UNL     1       4.841  -0.376   3.140  0.00  0.00    +0.277 C 
ENDBRANCH  31  34
ENDBRANCH  27  28
ENDBRANCH  25  27
BRANCH  25  36
ATOM     36  C   UNL     1       2.266  -6.964   2.833  0.00  0.00    -0.046 C 
BRANCH  36  37
ATOM     37  C   UNL     1       2.013  -7.679   4.162  0.00  0.00    +0.102 C 
ATOM     38  C   UNL     1       3.317  -8.340   4.658  0.00  0.00    +0.032 C 
ATOM     39  C   UNL     1       2.803  -9.685   5.240  0.00  0.00    +0.030 C 
ATOM     40  C   UNL     1       1.630  -9.994   4.277  0.00  0.00    +0.160 C 
ATOM     41  O   UNL     1       1.042  -8.716   3.978  0.00  0.00    -0.378 OA
ENDBRANCH  36  37
ENDBRANCH  25  36
ENDBRANCH   1  25
TORSDOF 9
