REMARK  Name = ZINC39992570
REMARK  13 active torsions:
REMARK  status: ('A' for Active; 'I' for Inactive)
REMARK    1  A    between atoms: C_1  and  C_2
REMARK    2  A    between atoms: C_2  and  C_3
REMARK    3  A    between atoms: C_3  and  C_4
REMARK    4  A    between atoms: C_7  and  C_10
REMARK    5  A    between atoms: C_10  and  C_12
REMARK    6  A    between atoms: C_10  and  N_17
REMARK    7  A    between atoms: N_17  and  C_18
REMARK    8  A    between atoms: C_18  and  C_20
REMARK    9  A    between atoms: C_18  and  C_21
REMARK   10  A    between atoms: N_23  and  C_24
REMARK   11  A    between atoms: C_25  and  C_37
REMARK   12  A    between atoms: N_26  and  C_36
REMARK   13  A    between atoms: N_27  and  C_30
REMARK                            x       y       z     vdW  Elec       q    Type
REMARK                         _______ _______ _______ _____ _____    ______ ____
ROOT
ATOM      1  C   UNL     1       1.194  -7.801  -3.335  0.00  0.00    +0.014 C 
ATOM      2  C   UNL     1       0.046  -7.829  -2.323  0.00  0.00    -0.004 C 
ENDROOT
BRANCH   1   3
ATOM      3  C   UNL     1       0.723  -8.379  -4.644  0.00  0.00    +0.203 C 
ATOM      4  O   UNL     1       0.749  -7.701  -5.651  0.00  0.00    -0.277 OA
ATOM      5  N   UNL     1       0.273  -9.648  -4.698  0.00  0.00    -0.281 N 
ATOM      6  H   UNL     1       0.321 -10.213  -3.911  0.00  0.00    +0.155 HD
BRANCH   5   7
ATOM      7  C   UNL     1      -0.267 -10.154  -5.897  0.00  0.00    +0.121 A 
ATOM      8  C   UNL     1       0.175 -11.231  -6.585  0.00  0.00    +0.059 A 
ATOM      9  N   UNL     1      -0.613 -11.396  -7.692  0.00  0.00    -0.282 N 
ATOM     10  N   UNL     1      -1.590 -10.394  -7.715  0.00  0.00    -0.216 N 
ATOM     11  C   UNL     1      -1.416  -9.615  -6.627  0.00  0.00    +0.293 A 
ATOM     12  O   UNL     1      -2.085  -8.647  -6.314  0.00  0.00    -0.264 OA
ATOM     13  C   UNL     1      -0.458 -12.453  -8.695  0.00  0.00    +0.171 C 
ATOM     14  C   UNL     1       1.341 -12.103  -6.197  0.00  0.00    +0.067 C 
BRANCH  10  15
ATOM     15  C   UNL     1      -2.578 -10.232  -8.691  0.00  0.00    +0.067 A 
ATOM     16  C   UNL     1      -2.785  -8.987  -9.271  0.00  0.00    +0.028 A 
ATOM     17  C   UNL     1      -3.762  -8.830 -10.235  0.00  0.00    +0.002 A 
ATOM     18  C   UNL     1      -4.532  -9.911 -10.623  0.00  0.00    +0.000 A 
ATOM     19  C   UNL     1      -4.328 -11.152 -10.048  0.00  0.00    +0.002 A 
ATOM     20  C   UNL     1      -3.349 -11.317  -9.088  0.00  0.00    +0.028 A 
ENDBRANCH  10  15
ENDBRANCH   5   7
ENDBRANCH   1   3
BRANCH   1  21
ATOM     21  N   UNL     1       1.631  -6.413  -3.541  0.00  0.00    +0.394 N 
ATOM     22  H   UNL     1       1.834  -5.989  -2.648  0.00  0.00    -0.083 HD
ATOM     23  H   UNL     1       0.898  -5.895  -4.001  0.00  0.00    -0.083 HD
BRANCH  21  24
ATOM     24  C   UNL     1       2.839  -6.400  -4.376  0.00  0.00    -0.002 C 
BRANCH  24  28
ATOM     25  C   UNL     1       3.889  -2.362  -5.293  0.00  0.00    -0.047 A 
ATOM     26  C   UNL     1       4.003  -3.343  -6.260  0.00  0.00    +0.004 A 
ATOM     27  C   UNL     1       3.664  -4.649  -5.963  0.00  0.00    +0.002 A 
ATOM     28  C   UNL     1       3.210  -4.975  -4.699  0.00  0.00    -0.057 A 
ATOM     29  C   UNL     1       3.097  -3.995  -3.731  0.00  0.00    +0.002 A 
ATOM     30  C   UNL     1       3.440  -2.689  -4.027  0.00  0.00    +0.004 A 
BRANCH  25  31
ATOM     31  C   UNL     1       4.259  -0.937  -5.616  0.00  0.00    +0.035 C 
BRANCH  31  33
ATOM     32  C   UNL     1       6.117   0.733  -5.640  0.00  0.00    +0.004 C 
ATOM     33  C   UNL     1       5.742  -0.714  -5.312  0.00  0.00    +0.001 C 
ENDBRANCH  31  33
ENDBRANCH  25  31
ENDBRANCH  24  28
BRANCH  24  34
ATOM     34  C   UNL     1       3.972  -7.057  -3.631  0.00  0.00    -0.020 A 
ATOM     35  C   UNL     1       4.932  -7.892  -4.100  0.00  0.00    +0.010 A 
ATOM     36  C   UNL     1       5.883  -8.379  -3.223  0.00  0.00    +0.008 A 
ATOM     37  C   UNL     1       5.828  -8.009  -1.921  0.00  0.00    +0.045 A 
ATOM     38  S   UNL     1       4.404  -6.933  -1.903  0.00  0.00    -0.103 S 
ENDBRANCH  24  34
ENDBRANCH  21  24
ENDBRANCH   1  21
TORSDOF 9
