REMARK  Name = ZINC13958128
REMARK  14 active torsions:
REMARK  status: ('A' for Active; 'I' for Inactive)
REMARK    1  A    between atoms: C_1  and  C_2
REMARK    2  A    between atoms: C_2  and  O_3
REMARK    3  A    between atoms: O_3  and  C_4
REMARK    4  A    between atoms: C_4  and  C_6
REMARK    5  A    between atoms: C_7  and  C_35
REMARK    6  A    between atoms: C_8  and  C_34
REMARK    7  A    between atoms: C_10  and  N_11
REMARK    8  A    between atoms: C_12  and  C_14
REMARK    9  A    between atoms: C_14  and  S_15
REMARK   10  A    between atoms: S_15  and  C_16
REMARK   11  A    between atoms: C_19  and  C_28
REMARK   12  A    between atoms: N_20  and  C_21
REMARK   13  A    between atoms: C_21  and  C_22
REMARK   14  A    between atoms: N_31  and  C_33
REMARK                            x       y       z     vdW  Elec       q    Type
REMARK                         _______ _______ _______ _____ _____    ______ ____
ROOT
ATOM      1  S   UNL     1      -5.051   2.948   0.044  0.00  0.00    -0.077 S 
ENDROOT
BRANCH   1   2
ATOM      2  C   UNL     1      -3.291   2.871   0.035  0.00  0.00    +0.192 A 
ATOM      3  N   UNL     1      -2.466   3.894   0.036  0.00  0.00    -0.122 NA
ATOM      4  N   UNL     1      -1.250   3.480   0.032  0.00  0.00    -0.127 NA
ATOM      5  C   UNL     1      -1.223   2.168   0.020  0.00  0.00    +0.185 A 
ATOM      6  N   UNL     1      -2.529   1.737   0.024  0.00  0.00    -0.298 N 
BRANCH   5   7
ATOM      7  C   UNL     1      -0.016   1.314   0.009  0.00  0.00    +0.130 A 
ATOM      8  C   UNL     1       1.320   1.765  -0.001  0.00  0.00    +0.052 A 
ATOM      9  C   UNL     1       2.123   0.679  -0.015  0.00  0.00    +0.108 A 
ATOM     10  N   UNL     1       1.339  -0.421  -0.013  0.00  0.00    -0.274 N 
ATOM     11  N   UNL     1       0.002  -0.004   0.002  0.00  0.00    -0.168 NA
ATOM     12  C   UNL     1       1.807  -1.809  -0.025  0.00  0.00    +0.172 C 
ENDBRANCH   5   7
BRANCH   6  13
ATOM     13  C   UNL     1      -3.005   0.352   0.020  0.00  0.00    +0.157 C 
BRANCH  13  14
ATOM     14  C   UNL     1      -3.163  -0.138   1.461  0.00  0.00    +0.138 C 
ATOM     15  C   UNL     1      -3.717  -1.585   1.479  0.00  0.00    +0.035 C 
ATOM     16  C   UNL     1      -3.198  -2.082   2.856  0.00  0.00    +0.031 C 
ATOM     17  C   UNL     1      -1.842  -1.353   2.978  0.00  0.00    +0.160 C 
ATOM     18  O   UNL     1      -1.880  -0.219   2.103  0.00  0.00    -0.375 OA
ENDBRANCH  13  14
ENDBRANCH   6  13
ENDBRANCH   1   2
BRANCH   1  19
ATOM     19  C   UNL     1      -5.288   4.742   0.055  0.00  0.00    +0.173 C 
BRANCH  19  21
ATOM     20  N   UNL     1      -7.179   6.336   0.074  0.00  0.00    -0.279 N 
ATOM     21  C   UNL     1      -6.762   5.055   0.065  0.00  0.00    +0.228 C 
ATOM     22  O   UNL     1      -7.573   4.153   0.064  0.00  0.00    -0.275 OA
ATOM     23  H   UNL     1      -6.531   7.058   0.074  0.00  0.00    +0.155 HD
BRANCH  20  28
ATOM     24  C   UNL     1      -9.155   7.869   0.093  0.00  0.00    +0.091 A 
ATOM     25  C   UNL     1     -10.599   7.875   0.101  0.00  0.00    -0.025 A 
ATOM     26  C   UNL     1     -11.218   6.682   0.097  0.00  0.00    -0.008 A 
ATOM     27  S   UNL     1      -9.869   5.519   0.076  0.00  0.00    -0.078 S 
ATOM     28  C   UNL     1      -8.535   6.624   0.083  0.00  0.00    +0.086 A 
ATOM     29  C   UNL     1     -12.698   6.396   0.104  0.00  0.00    +0.052 C 
ATOM     30  C   UNL     1     -11.379   9.165   0.111  0.00  0.00    +0.045 C 
BRANCH  24  31
ATOM     31  C   UNL     1      -8.381   9.112   0.095  0.00  0.00    +0.342 C 
ATOM     32  O   UNL     1      -8.065   9.634  -0.958  0.00  0.00    -0.245 OA
BRANCH  31  33
ATOM     33  O   UNL     1      -8.018   9.679   1.264  0.00  0.00    -0.461 OA
BRANCH  33  35
ATOM     34  C   UNL     1      -6.936  11.399   2.605  0.00  0.00    +0.048 C 
ATOM     35  C   UNL     1      -7.252  10.910   1.190  0.00  0.00    +0.229 C 
ENDBRANCH  33  35
ENDBRANCH  31  33
ENDBRANCH  24  31
ENDBRANCH  20  28
ENDBRANCH  19  21
ENDBRANCH   1  19
TORSDOF 10
