REMARK  Name = ZINC29739680
REMARK  7 active torsions:
REMARK  status: ('A' for Active; 'I' for Inactive)
REMARK    1  A    between atoms: C_1  and  C_2
REMARK    2  A    between atoms: C_7  and  N_8
REMARK    3  A    between atoms: C_12  and  S_13
REMARK    4  A    between atoms: S_13  and  C_14
REMARK    5  A    between atoms: C_14  and  C_16
REMARK    6  A    between atoms: C_14  and  C_17
REMARK    7  A    between atoms: C_19  and  C_22
REMARK                            x       y       z     vdW  Elec       q    Type
REMARK                         _______ _______ _______ _____ _____    ______ ____
ROOT
ATOM      1  S   UNL     1      -0.888   1.685  -1.458  0.00  0.00    -0.075 S 
ENDROOT
BRANCH   1   6
ATOM      2  N   UNL     1      -3.484   0.910  -2.119  0.00  0.00    -0.294 N 
ATOM      3  C   UNL     1      -4.463   0.083  -1.610  0.00  0.00    +0.113 A 
ATOM      4  C   UNL     1      -3.969  -0.463  -0.485  0.00  0.00    +0.131 A 
ATOM      5  N   UNL     1      -2.722   0.004  -0.299  0.00  0.00    -0.230 NA
ATOM      6  C   UNL     1      -2.416   0.827  -1.275  0.00  0.00    +0.174 A 
BRANCH   2  13
ATOM      7  C   UNL     1      -1.754   0.276  -4.288  0.00  0.00    +0.046 C 
ATOM      8  C   UNL     1      -2.744   1.409  -4.365  0.00  0.00    -0.027 A 
ATOM      9  C   UNL     1      -2.831   2.175  -5.511  0.00  0.00    +0.005 A 
ATOM     10  C   UNL     1      -3.738   3.216  -5.582  0.00  0.00    +0.000 A 
ATOM     11  C   UNL     1      -4.562   3.493  -4.506  0.00  0.00    +0.002 A 
ATOM     12  C   UNL     1      -4.484   2.727  -3.360  0.00  0.00    +0.026 A 
ATOM     13  C   UNL     1      -3.570   1.685  -3.284  0.00  0.00    +0.051 A 
ENDBRANCH   2  13
ENDBRANCH   1   6
BRANCH   1  14
ATOM     14  C   UNL     1      -0.013   1.086   0.008  0.00  0.00    +0.140 C 
ATOM     15  C   UNL     1      -0.729   1.579   1.267  0.00  0.00    +0.029 C 
BRANCH  14  16
ATOM     16  C   UNL     1       1.401   1.607  -0.003  0.00  0.00    +0.241 A 
ATOM     17  N   UNL     1       2.485   0.921   0.261  0.00  0.00    -0.188 NA
ATOM     18  C   UNL     1       3.510   1.795   0.126  0.00  0.00    +0.237 A 
ATOM     19  N   UNL     1       2.990   2.952  -0.201  0.00  0.00    -0.053 NA
ATOM     20  O   UNL     1       1.783   2.859  -0.278  0.00  0.00    -0.336 OA
BRANCH  18  21
ATOM     21  C   UNL     1       4.945   1.500   0.317  0.00  0.00    +0.175 A 
ATOM     22  C   UNL     1       5.967   2.388   0.184  0.00  0.00    +0.053 A 
ATOM     23  C   UNL     1       7.155   1.682   0.456  0.00  0.00    +0.042 A 
ATOM     24  C   UNL     1       6.804   0.412   0.740  0.00  0.00    +0.196 A 
ATOM     25  O   UNL     1       5.468   0.307   0.659  0.00  0.00    -0.460 OA
ENDBRANCH  18  21
ENDBRANCH  14  16
ENDBRANCH   1  14
TORSDOF 5
