REMARK  Name = ZINC34830431
REMARK  8 active torsions:
REMARK  status: ('A' for Active; 'I' for Inactive)
REMARK    1  A    between atoms: C_1  and  C_2
REMARK    2  A    between atoms: C_2  and  C_3
REMARK    3  A    between atoms: C_6  and  C_9
REMARK    4  A    between atoms: C_18  and  C_20
REMARK    5  A    between atoms: C_20  and  C_22
REMARK    6  A    between atoms: C_20  and  N_23
REMARK    7  A    between atoms: C_31  and  C_33
REMARK    8  A    between atoms: C_38  and  C_39
REMARK                            x       y       z     vdW  Elec       q    Type
REMARK                         _______ _______ _______ _____ _____    ______ ____
ROOT
ATOM      1  C   UNL     1      -5.643  -2.179   0.108  0.00  0.00    +0.247 C 
ATOM      2  O   UNL     1      -6.193  -2.537   1.131  0.00  0.00    -0.270 OA
ATOM      3  N   UNL     1      -6.276  -2.302  -1.076  0.00  0.00    -0.296 N 
ATOM      4  C   UNL     1      -7.633  -2.715  -1.152  0.00  0.00    +0.109 C 
ATOM      5  C   UNL     1      -7.846  -4.264  -1.118  0.00  0.00    +0.038 C 
ATOM      6  C   UNL     1      -6.686  -4.911  -1.942  0.00  0.00    +0.109 C 
ATOM      7  N   UNL     1      -6.307  -4.184  -3.103  0.00  0.00    -0.301 N 
ATOM      8  C   UNL     1      -5.150  -3.261  -2.974  0.00  0.00    +0.126 C 
ATOM      9  C   UNL     1      -5.586  -2.007  -2.358  0.00  0.00    +0.127 C 
ATOM     10  C   UNL     1      -6.968  -4.326  -4.269  0.00  0.00    +0.202 C 
ATOM     11  O   UNL     1      -7.964  -5.016  -4.321  0.00  0.00    -0.277 OA
ENDROOT
BRANCH   1  15
ATOM     12  C   UNL     1      -1.729  -0.538   0.263  0.00  0.00    -0.048 A 
ATOM     13  C   UNL     1      -2.043  -1.478  -0.702  0.00  0.00    +0.004 A 
ATOM     14  C   UNL     1      -3.313  -2.015  -0.757  0.00  0.00    +0.013 A 
ATOM     15  C   UNL     1      -4.281  -1.608   0.162  0.00  0.00    +0.037 A 
ATOM     16  C   UNL     1      -3.957  -0.658   1.133  0.00  0.00    +0.013 A 
ATOM     17  C   UNL     1      -2.682  -0.134   1.181  0.00  0.00    +0.004 A 
BRANCH  12  19
ATOM     18  C   UNL     1       0.539  -0.817   1.227  0.00  0.00    +0.009 C 
ATOM     19  C   UNL     1      -0.340   0.045   0.318  0.00  0.00    +0.032 C 
ENDBRANCH  12  19
ENDBRANCH   1  15
BRANCH  10  20
ATOM     20  C   UNL     1      -6.469  -3.627  -5.507  0.00  0.00    +0.018 C 
ATOM     21  C   UNL     1      -6.985  -2.187  -5.523  0.00  0.00    -0.004 C 
BRANCH  20  22
ATOM     22  N   UNL     1      -6.958  -4.335  -6.699  0.00  0.00    +0.395 N 
ATOM     23  C   UNL     1      -8.415  -4.171  -6.795  0.00  0.00    -0.071 C 
ATOM     24  C   UNL     1      -8.960  -5.169  -7.831  0.00  0.00    +0.024 C 
ATOM     25  C   UNL     1      -8.094  -5.077  -9.044  0.00  0.00    -0.010 A 
ATOM     26  C   UNL     1      -6.880  -4.463  -9.127  0.00  0.00    -0.047 A 
ATOM     27  C   UNL     1      -6.249  -4.496 -10.368  0.00  0.00    +0.010 A 
ATOM     28  C   UNL     1      -6.844  -5.120 -11.413  0.00  0.00    +0.045 A 
ATOM     29  S   UNL     1      -8.363  -5.706 -10.676  0.00  0.00    -0.101 S 
ATOM     30  C   UNL     1      -6.292  -3.793  -7.889  0.00  0.00    -0.005 C 
ATOM     31  H   UNL     1      -6.740  -5.317  -6.614  0.00  0.00    -0.079 HD
BRANCH  30  32
ATOM     32  C   UNL     1      -4.814  -4.078  -7.814  0.00  0.00    -0.054 A 
ATOM     33  C   UNL     1      -4.357  -5.188  -7.128  0.00  0.00    +0.002 A 
ATOM     34  C   UNL     1      -3.002  -5.449  -7.060  0.00  0.00    +0.000 A 
ATOM     35  C   UNL     1      -2.102  -4.600  -7.678  0.00  0.00    +0.000 A 
ATOM     36  C   UNL     1      -2.559  -3.490  -8.365  0.00  0.00    +0.003 A 
ATOM     37  C   UNL     1      -3.915  -3.232  -8.437  0.00  0.00    -0.049 A 
ATOM     38  C   UNL     1      -4.413  -2.025  -9.190  0.00  0.00    +0.044 C 
ENDBRANCH  30  32
ENDBRANCH  20  22
ENDBRANCH  10  20
TORSDOF 5
