REMARK  Name = ZINC25922492
REMARK  7 active torsions:
REMARK  status: ('A' for Active; 'I' for Inactive)
REMARK    1  A    between atoms: C_1  and  C_2
REMARK    2  A    between atoms: C_2  and  C_3
REMARK    3  A    between atoms: C_2  and  C_4
REMARK    4  A    between atoms: C_4  and  C_6
REMARK    5  A    between atoms: C_4  and  N_20
REMARK    6  A    between atoms: N_8  and  C_9
REMARK    7  A    between atoms: C_21  and  C_23
REMARK                            x       y       z     vdW  Elec       q    Type
REMARK                         _______ _______ _______ _____ _____    ______ ____
ROOT
ATOM      1  C   UNL     1      -2.348   7.317  -0.726  0.00  0.00    +0.162 C 
ENDROOT
BRANCH   1   2
ATOM      2  C   UNL     1      -3.436   8.071  -1.446  0.00  0.00    +0.238 C 
ATOM      3  O   UNL     1      -4.407   7.478  -1.868  0.00  0.00    -0.273 OA
ATOM      4  N   UNL     1      -3.331   9.403  -1.621  0.00  0.00    -0.283 N 
ATOM      5  H   UNL     1      -2.436   9.935  -1.268  0.00  0.00    +0.155 HD
BRANCH   4   6
ATOM      6  C   UNL     1      -4.362  10.110  -2.255  0.00  0.00    +0.051 A 
ATOM      7  C   UNL     1      -5.236   9.449  -3.107  0.00  0.00    +0.073 A 
ATOM      8  C   UNL     1      -6.258  10.147  -3.730  0.00  0.00    +0.164 A 
ATOM      9  C   UNL     1      -6.402  11.512  -3.507  0.00  0.00    +0.163 A 
ATOM     10  C   UNL     1      -5.524  12.171  -2.660  0.00  0.00    +0.066 A 
ATOM     11  C   UNL     1      -4.507  11.473  -2.035  0.00  0.00    +0.043 A 
ATOM     12 BR   UNL     1      -3.311  12.377  -0.881  0.00  0.00    -0.048 Br
ATOM     13  O   UNL     1      -7.400  12.215  -4.111  0.00  0.00    -0.485 OA
ATOM     14  C   UNL     1      -8.030  11.598  -5.239  0.00  0.00    +0.270 C 
ATOM     15  C   UNL     1      -8.340  10.139  -4.879  0.00  0.00    +0.270 C 
ATOM     16  O   UNL     1      -7.108   9.484  -4.562  0.00  0.00    -0.485 OA
ENDBRANCH   4   6
ENDBRANCH   1   2
BRANCH   1  17
ATOM     17  N   UNL     1      -2.895   6.074  -0.178  0.00  0.00    -0.303 N 
ATOM     18  C   UNL     1      -2.311   5.493   0.889  0.00  0.00    +0.220 C 
ATOM     19  O   UNL     1      -1.332   6.000   1.395  0.00  0.00    -0.275 OA
ATOM     20  H   UNL     1      -3.782   5.614  -0.637  0.00  0.00    +0.149 HD
BRANCH  18  21
ATOM     21  C   UNL     1      -2.874   4.214   1.453  0.00  0.00    +0.048 C 
ATOM     22  C   UNL     1      -2.844   3.126   0.378  0.00  0.00    +0.019 C 
ATOM     23  C   UNL     1      -3.416   1.828   0.950  0.00  0.00    -0.009 C 
ATOM     24  C   UNL     1      -2.573   1.384   2.148  0.00  0.00    +0.007 C 
ATOM     25  C   UNL     1      -2.603   2.472   3.223  0.00  0.00    -0.009 C 
ATOM     26  C   UNL     1      -2.031   3.771   2.651  0.00  0.00    +0.019 C 
ATOM     27  C   UNL     1      -4.047   2.705   3.673  0.00  0.00    +0.007 C 
ATOM     28  C   UNL     1      -4.889   3.149   2.475  0.00  0.00    -0.009 C 
ATOM     29  C   UNL     1      -4.859   2.061   1.400  0.00  0.00    +0.007 C 
ATOM     30  C   UNL     1      -4.317   4.447   1.903  0.00  0.00    +0.019 C 
ENDBRANCH  18  21
ENDBRANCH   1  17
BRANCH   1  32
ATOM     31  C   UNL     1      -0.738   8.277  -2.378  0.00  0.00    +0.009 C 
ATOM     32  C   UNL     1      -1.219   6.990  -1.706  0.00  0.00    +0.012 C 
ATOM     33  C   UNL     1      -0.057   6.344  -0.949  0.00  0.00    +0.009 C 
ENDBRANCH   1  32
TORSDOF 5
