REMARK  Name = ZINC04801859
REMARK  5 active torsions:
REMARK  status: ('A' for Active; 'I' for Inactive)
REMARK    1  A    between atoms: C_1  and  C_2
REMARK    2  A    between atoms: C_4  and  O_20
REMARK    3  A    between atoms: C_5  and  C_9
REMARK    4  A    between atoms: C_7  and  O_8
REMARK    5  A    between atoms: C_9  and  C_19
REMARK                            x       y       z     vdW  Elec       q    Type
REMARK                         _______ _______ _______ _____ _____    ______ ____
ROOT
ATOM      1  C   UNL     1       3.036  -4.628  -4.791  0.00  0.00    +0.047 C 
ATOM      2  C   UNL     1       2.483  -3.981  -3.547  0.00  0.00    -0.006 A 
ATOM      3  C   UNL     1       3.328  -3.316  -2.680  0.00  0.00    +0.052 A 
ATOM      4  C   UNL     1       2.818  -2.717  -1.538  0.00  0.00    +0.125 A 
ATOM      5  C   UNL     1       1.461  -2.794  -1.262  0.00  0.00    +0.045 A 
ATOM      6  C   UNL     1       0.616  -3.459  -2.128  0.00  0.00    +0.057 A 
ATOM      7  C   UNL     1       1.125  -4.054  -3.273  0.00  0.00    +0.120 A 
ENDROOT
BRANCH   5   8
ATOM      8  C   UNL     1       0.907  -2.147  -0.018  0.00  0.00    +0.165 C 
ATOM      9  C   UNL     1       0.996  -0.646  -0.131  0.00  0.00    +0.014 A 
ATOM     10  C   UNL     1       2.046   0.229  -0.282  0.00  0.00    +0.009 A 
ATOM     11  C   UNL     1       1.806   1.591  -0.357  0.00  0.00    +0.000 A 
ATOM     12  C   UNL     1       0.512   2.075  -0.282  0.00  0.00    +0.001 A 
ATOM     13  C   UNL     1      -0.549   1.206  -0.131  0.00  0.00    +0.015 A 
ATOM     14  C   UNL     1      -0.315  -0.168  -0.054  0.00  0.00    +0.066 A 
ATOM     15  C   UNL     1      -1.214  -1.325   0.104  0.00  0.00    +0.341 C 
ATOM     16  O   UNL     1      -2.423  -1.257   0.202  0.00  0.00    -0.245 OA
ATOM     17  O   UNL     1      -0.504  -2.465   0.124  0.00  0.00    -0.445 OA
ATOM     18  C   UNL     1       1.680  -2.627   1.212  0.00  0.00    +0.066 C 
ENDBRANCH   5   8
BRANCH   7  19
ATOM     19  O   UNL     1       0.293  -4.708  -4.127  0.00  0.00    -0.506 OA
ATOM     20  H   UNL     1      -0.077  -4.147  -4.822  0.00  0.00    +0.292 HD
ENDBRANCH   7  19
BRANCH   4  21
ATOM     21  O   UNL     1       3.649  -2.057  -0.688  0.00  0.00    -0.506 OA
ATOM     22  H   UNL     1       4.023  -2.615   0.008  0.00  0.00    +0.292 HD
ENDBRANCH   4  21
TORSDOF 3
