REMARK  Name = ZINC40985915
REMARK  14 active torsions:
REMARK  status: ('A' for Active; 'I' for Inactive)
REMARK    1  A    between atoms: C_1  and  C_2
REMARK    2  A    between atoms: C_2  and  C_3
REMARK    3  A    between atoms: C_2  and  C_4
REMARK    4  A    between atoms: C_2  and  C_5
REMARK    5  A    between atoms: C_8  and  C_11
REMARK    6  A    between atoms: C_11  and  C_13
REMARK    7  A    between atoms: C_11  and  N_33
REMARK    8  A    between atoms: C_13  and  N_14
REMARK    9  A    between atoms: C_15  and  C_17
REMARK   10  A    between atoms: C_20  and  S_24
REMARK   11  A    between atoms: S_24  and  C_25
REMARK   12  A    between atoms: C_25  and  C_26
REMARK   13  A    between atoms: N_33  and  C_34
REMARK   14  A    between atoms: N_33  and  C_35
REMARK                            x       y       z     vdW  Elec       q    Type
REMARK                         _______ _______ _______ _____ _____    ______ ____
ROOT
ATOM      1  N   UNL     1       0.978  -1.084  -6.041  0.00  0.00    -0.312 N 
ATOM      2  C   UNL     1       0.520  -0.268  -7.010  0.00  0.00    +0.248 C 
ATOM      3  O   UNL     1       1.276   0.511  -7.558  0.00  0.00    -0.270 OA
ATOM      4  H   UNL     1       0.374  -1.705  -5.604  0.00  0.00    +0.149 HD
ENDROOT
BRANCH   2   5
ATOM      5  C   UNL     1      -0.899  -0.319  -7.408  0.00  0.00    +0.092 A 
ATOM      6  C   UNL     1      -1.789  -1.205  -6.785  0.00  0.00    +0.129 A 
ATOM      7  N   UNL     1      -3.051  -1.220  -7.169  0.00  0.00    -0.229 NA
ATOM      8  C   UNL     1      -3.482  -0.412  -8.130  0.00  0.00    +0.190 A 
ATOM      9  N   UNL     1      -2.673   0.442  -8.744  0.00  0.00    -0.209 NA
ATOM     10  C   UNL     1      -1.396   0.522  -8.415  0.00  0.00    +0.146 A 
ATOM     11 CL   UNL     1      -0.347   1.647  -9.220  0.00  0.00    -0.061 Cl
BRANCH   8  12
ATOM     12  S   UNL     1      -5.178  -0.474  -8.603  0.00  0.00    -0.081 S 
BRANCH  12  13
ATOM     13  C   UNL     1      -5.313   0.771  -9.916  0.00  0.00    +0.112 C 
BRANCH  13  14
ATOM     14  C   UNL     1      -6.734   0.821 -10.416  0.00  0.00    -0.037 A 
ATOM     15  C   UNL     1      -7.127   0.005 -11.461  0.00  0.00    +0.007 A 
ATOM     16  C   UNL     1      -8.430   0.049 -11.920  0.00  0.00    +0.038 A 
ATOM     17  C   UNL     1      -9.341   0.912 -11.335  0.00  0.00    +0.123 A 
ATOM     18  C   UNL     1      -8.946   1.728 -10.289  0.00  0.00    +0.038 A 
ATOM     19  C   UNL     1      -7.644   1.678  -9.827  0.00  0.00    +0.007 A 
ATOM     20  F   UNL     1     -10.614   0.956 -11.783  0.00  0.00    -0.205 F 
ENDBRANCH  13  14
ENDBRANCH  12  13
ENDBRANCH   8  12
ENDBRANCH   2   5
BRANCH   1  21
ATOM     21  C   UNL     1       2.388  -1.033  -5.646  0.00  0.00    +0.094 C 
BRANCH  21  22
ATOM     22  C   UNL     1       2.665  -2.118  -4.603  0.00  0.00    -0.021 C 
BRANCH  22  26
ATOM     23  C   UNL     1       0.431  -1.289  -1.057  0.00  0.00    -0.042 A 
ATOM     24  C   UNL     1      -0.031  -2.227  -1.962  0.00  0.00    +0.004 A 
ATOM     25  C   UNL     1       0.692  -2.495  -3.109  0.00  0.00    +0.002 A 
ATOM     26  C   UNL     1       1.876  -1.825  -3.352  0.00  0.00    -0.059 A 
ATOM     27  C   UNL     1       2.338  -0.886  -2.448  0.00  0.00    +0.002 A 
ATOM     28  C   UNL     1       1.613  -0.615  -1.303  0.00  0.00    +0.004 A 
BRANCH  23  30
ATOM     29  C   UNL     1      -0.763   0.479   0.208  0.00  0.00    +0.015 C 
ATOM     30  C   UNL     1      -0.357  -0.997   0.194  0.00  0.00    -0.013 C 
ATOM     31  C   UNL     1       0.504  -1.300   1.422  0.00  0.00    +0.015 C 
ATOM     32  C   UNL     1      -1.612  -1.871   0.222  0.00  0.00    +0.015 C 
ENDBRANCH  23  30
ENDBRANCH  22  26
BRANCH  22  33
ATOM     33  N   UNL     1       4.099  -2.136  -4.284  0.00  0.00    +0.382 N 
ATOM     34  C   UNL     1       4.358  -3.146  -3.250  0.00  0.00    -0.096 C 
ATOM     35  C   UNL     1       4.864  -2.466  -5.494  0.00  0.00    -0.096 C 
ATOM     36  H   UNL     1       4.380  -1.228  -3.946  0.00  0.00    -0.082 HD
ENDBRANCH  22  33
ENDBRANCH  21  22
ENDBRANCH   1  21
TORSDOF 9
