REMARK  Name = ZINC06321318
REMARK  11 active torsions:
REMARK  status: ('A' for Active; 'I' for Inactive)
REMARK    1  A    between atoms: C_1  and  C_2
REMARK    2  A    between atoms: C_6  and  C_15
REMARK    3  A    between atoms: C_13  and  C_14
REMARK    4  A    between atoms: C_15  and  C_17
REMARK    5  A    between atoms: C_15  and  N_71
REMARK    6  A    between atoms: N_21  and  C_22
REMARK    7  A    between atoms: C_22  and  C_23
REMARK    8  A    between atoms: C_29  and  C_30
REMARK    9  A    between atoms: C_29  and  N_71
REMARK   10  A    between atoms: C_36  and  C_37
REMARK   11  A    between atoms: C_36  and  N_71
REMARK                            x       y       z     vdW  Elec       q    Type
REMARK                         _______ _______ _______ _____ _____    ______ ____
ROOT
ATOM      1  C   UNL     1       5.863   3.325   0.412  0.00  0.00    +0.040 C 
ENDROOT
BRANCH   1   7
ATOM      2  C   UNL     1      -1.093   0.731   1.125  0.00  0.00    +0.044 C 
ATOM      3  C   UNL     1       0.376   0.503   0.878  0.00  0.00    -0.047 A 
ATOM      4  C   UNL     1       1.236   1.564   0.881  0.00  0.00    +0.013 A 
ATOM      5  C   UNL     1       2.599   1.353   0.652  0.00  0.00    -0.001 A 
ATOM      6  C   UNL     1       3.549   2.467   0.650  0.00  0.00    +0.017 A 
ATOM      7  C   UNL     1       4.859   2.201   0.422  0.00  0.00    +0.011 A 
ATOM      8  C   UNL     1       5.286   0.876   0.193  0.00  0.00    +0.251 A 
ATOM      9  O   UNL     1       6.468   0.659  -0.010  0.00  0.00    -0.268 OA
ATOM     10  N   UNL     1       4.422  -0.154   0.194  0.00  0.00    -0.322 N 
ATOM     11  H   UNL     1       4.749  -1.053   0.034  0.00  0.00    +0.169 HD
ATOM     12  C   UNL     1       3.077   0.049   0.419  0.00  0.00    +0.049 A 
ATOM     13  C   UNL     1       2.183  -1.016   0.420  0.00  0.00    +0.030 A 
ATOM     14  C   UNL     1       0.842  -0.783   0.642  0.00  0.00    -0.046 A 
ATOM     15  C   UNL     1      -0.126  -1.938   0.636  0.00  0.00    +0.044 C 
ENDBRANCH   1   7
BRANCH   1  16
ATOM     16  C   UNL     1       6.523   3.398  -0.941  0.00  0.00    +0.143 A 
ATOM     17  N   UNL     1       7.437   2.584  -1.410  0.00  0.00    -0.115 NA
ATOM     18  N   UNL     1       7.747   2.977  -2.597  0.00  0.00    -0.023 NA
ATOM     19  N   UNL     1       7.055   4.019  -2.898  0.00  0.00    -0.044 NA
ATOM     20  N   UNL     1       6.284   4.307  -1.904  0.00  0.00    -0.228 N 
BRANCH  20  21
ATOM     21  C   UNL     1       5.330   5.417  -1.835  0.00  0.00    +0.178 C 
BRANCH  21  22
ATOM     22  C   UNL     1       6.058   6.688  -1.391  0.00  0.00    +0.140 C 
ATOM     23  C   UNL     1       5.055   7.857  -1.286  0.00  0.00    +0.035 C 
ATOM     24  C   UNL     1       5.878   9.049  -1.845  0.00  0.00    +0.031 C 
ATOM     25  C   UNL     1       6.734   8.336  -2.923  0.00  0.00    +0.160 C 
ATOM     26  O   UNL     1       7.044   7.049  -2.365  0.00  0.00    -0.375 OA
ENDBRANCH  21  22
ENDBRANCH  20  21
ENDBRANCH   1  16
BRANCH   1  27
ATOM     27  N   UNL     1       6.894   3.056   1.436  0.00  0.00    +0.397 N 
ATOM     28  H   UNL     1       7.339   2.154   1.231  0.00  0.00    -0.079 HD
BRANCH  27  29
ATOM     29  C   UNL     1       7.923   4.117   1.408  0.00  0.00    -0.041 C 
BRANCH  29  30
ATOM     30  C   UNL     1       8.912   3.799   0.316  0.00  0.00    -0.064 A 
ATOM     31  C   UNL     1       9.645   2.628   0.367  0.00  0.00    +0.002 A 
ATOM     32  C   UNL     1      10.548   2.334  -0.637  0.00  0.00    +0.000 A 
ATOM     33  C   UNL     1      10.727   3.216  -1.686  0.00  0.00    +0.000 A 
ATOM     34  C   UNL     1       9.998   4.390  -1.734  0.00  0.00    +0.000 A 
ATOM     35  C   UNL     1       9.091   4.681  -0.733  0.00  0.00    +0.002 A 
ENDBRANCH  29  30
ENDBRANCH  27  29
BRANCH  27  36
ATOM     36  C   UNL     1       6.271   2.991   2.775  0.00  0.00    -0.001 C 
BRANCH  36  37
ATOM     37  C   UNL     1       5.773   1.588   3.006  0.00  0.00    +0.089 A 
ATOM     38  C   UNL     1       6.513   0.552   3.442  0.00  0.00    +0.042 A 
ATOM     39  C   UNL     1       5.649  -0.565   3.516  0.00  0.00    +0.041 A 
ATOM     40  C   UNL     1       4.436  -0.147   3.114  0.00  0.00    +0.195 A 
ATOM     41  O   UNL     1       4.517   1.158   2.806  0.00  0.00    -0.470 OA
ENDBRANCH  36  37
ENDBRANCH  27  36
ENDBRANCH   1  27
TORSDOF 9
