REMARK  Name = ZINC35059884
REMARK  13 active torsions:
REMARK  status: ('A' for Active; 'I' for Inactive)
REMARK    1  A    between atoms: C_1  and  C_2
REMARK    2  A    between atoms: C_2  and  C_3
REMARK    3  A    between atoms: C_3  and  C_4
REMARK    4  A    between atoms: C_4  and  C_5
REMARK    5  A    between atoms: C_5  and  C_6
REMARK    6  A    between atoms: C_6  and  N_7
REMARK    7  A    between atoms: N_7  and  C_8
REMARK    8  A    between atoms: C_8  and  C_10
REMARK    9  A    between atoms: C_8  and  C_12
REMARK   10  A    between atoms: C_10  and  C_11
REMARK   11  A    between atoms: N_22  and  C_23
REMARK   12  A    between atoms: C_26  and  C_29
REMARK   13  A    between atoms: N_32  and  C_33
REMARK                            x       y       z     vdW  Elec       q    Type
REMARK                         _______ _______ _______ _____ _____    ______ ____
ROOT
ATOM      1  C   UNL     1       2.489  -4.608  -2.764  0.00  0.00    +0.144 C 
ENDROOT
BRANCH   1   2
ATOM      2  C   UNL     1       3.647  -3.643  -2.763  0.00  0.00    +0.138 A 
ATOM      3  N   UNL     1       4.400  -3.585  -1.708  0.00  0.00    -0.231 NA
ATOM      4  C   UNL     1       5.459  -2.741  -1.635  0.00  0.00    +0.078 A 
ATOM      5  C   UNL     1       6.270  -2.678  -0.500  0.00  0.00    +0.028 A 
ATOM      6  C   UNL     1       7.335  -1.806  -0.470  0.00  0.00    +0.002 A 
ATOM      7  C   UNL     1       7.615  -0.987  -1.556  0.00  0.00    +0.001 A 
ATOM      8  C   UNL     1       6.829  -1.030  -2.687  0.00  0.00    +0.015 A 
ATOM      9  C   UNL     1       5.747  -1.906  -2.738  0.00  0.00    +0.065 A 
ATOM     10  C   UNL     1       4.875  -1.996  -3.918  0.00  0.00    +0.266 A 
ATOM     11  O   UNL     1       5.068  -1.304  -4.901  0.00  0.00    -0.267 OA
ATOM     12  N   UNL     1       3.852  -2.881  -3.872  0.00  0.00    -0.263 N 
BRANCH  12  13
ATOM     13  C   UNL     1       2.995  -3.010  -4.972  0.00  0.00    +0.051 A 
ATOM     14  C   UNL     1       2.114  -1.985  -5.291  0.00  0.00    +0.026 A 
ATOM     15  C   UNL     1       1.271  -2.115  -6.377  0.00  0.00    +0.005 A 
ATOM     16  C   UNL     1       1.302  -3.264  -7.145  0.00  0.00    -0.050 A 
ATOM     17  C   UNL     1       2.178  -4.287  -6.830  0.00  0.00    +0.005 A 
ATOM     18  C   UNL     1       3.028  -4.161  -5.748  0.00  0.00    +0.026 A 
ATOM     19  C   UNL     1       0.379  -3.403  -8.329  0.00  0.00    +0.044 C 
ENDBRANCH  12  13
ENDBRANCH   1   2
BRANCH   1  20
ATOM     20  N   UNL     1       1.236  -3.867  -2.599  0.00  0.00    -0.275 N 
ATOM     21  C   UNL     1       0.245  -4.011  -3.501  0.00  0.00    +0.307 C 
ATOM     22  O   UNL     1       0.391  -4.755  -4.452  0.00  0.00    -0.252 OA
ATOM     23  N   UNL     1      -0.908  -3.329  -3.350  0.00  0.00    -0.267 N 
ATOM     24  H   UNL     1      -0.999  -2.684  -2.631  0.00  0.00    +0.156 HD
BRANCH  23  25
ATOM     25  C   UNL     1      -1.974  -3.553  -4.230  0.00  0.00    +0.070 A 
ATOM     26  C   UNL     1      -2.130  -4.793  -4.833  0.00  0.00    +0.026 A 
ATOM     27  C   UNL     1      -3.183  -5.011  -5.701  0.00  0.00    +0.002 A 
ATOM     28  C   UNL     1      -4.082  -3.995  -5.970  0.00  0.00    +0.003 A 
ATOM     29  C   UNL     1      -3.931  -2.757  -5.372  0.00  0.00    +0.040 A 
ATOM     30  C   UNL     1      -2.883  -2.534  -4.497  0.00  0.00    +0.145 A 
ATOM     31  F   UNL     1      -2.738  -1.327  -3.908  0.00  0.00    -0.204 F 
ENDBRANCH  23  25
BRANCH  20  32
ATOM     32  C   UNL     1       1.060  -2.971  -1.454  0.00  0.00    +0.110 C 
BRANCH  32  33
ATOM     33  C   UNL     1       1.413  -1.541  -1.867  0.00  0.00    +0.019 C 
BRANCH  33  34
ATOM     34  C   UNL     1       1.107  -0.586  -0.711  0.00  0.00    +0.002 C 
BRANCH  34  35
ATOM     35  C   UNL     1       1.459   0.844  -1.124  0.00  0.00    -0.000 C 
BRANCH  35  37
ATOM     36  C   UNL     1       1.506   3.229  -0.381  0.00  0.00    +0.004 C 
ATOM     37  C   UNL     1       1.153   1.799   0.032  0.00  0.00    -0.003 C 
ENDBRANCH  35  37
ENDBRANCH  34  35
ENDBRANCH  33  34
ENDBRANCH  32  33
ENDBRANCH  20  32
ENDBRANCH   1  20
BRANCH   1  38
ATOM     38  C   UNL     1       2.651  -5.599  -1.610  0.00  0.00    +0.027 C 
ATOM     39  C   UNL     1       1.532  -6.641  -1.671  0.00  0.00    +0.006 C 
ENDBRANCH   1  38
TORSDOF 10
