REMARK  Name = ZINC03356044
REMARK  9 active torsions:
REMARK  status: ('A' for Active; 'I' for Inactive)
REMARK    1  A    between atoms: C_1  and  C_2
REMARK    2  A    between atoms: C_7  and  N_8
REMARK    3  A    between atoms: C_17  and  S_18
REMARK    4  A    between atoms: S_18  and  C_19
REMARK    5  A    between atoms: C_19  and  C_20
REMARK    6  A    between atoms: C_20  and  C_22
REMARK    7  A    between atoms: C_23  and  N_32
REMARK    8  A    between atoms: N_24  and  C_31
REMARK    9  A    between atoms: N_27  and  C_30
REMARK                            x       y       z     vdW  Elec       q    Type
REMARK                         _______ _______ _______ _____ _____    ______ ____
ROOT
ATOM      1  N   UNL     1       0.026  -0.092   2.467  0.00  0.00    -0.255 N 
ATOM      2  C   UNL     1      -1.144   0.192   3.068  0.00  0.00    +0.268 A 
ATOM      3  O   UNL     1      -2.199  -0.137   2.553  0.00  0.00    -0.267 OA
ATOM      4  C   UNL     1      -1.134   0.885   4.320  0.00  0.00    +0.076 A 
ATOM      5  C   UNL     1      -2.276   1.293   5.140  0.00  0.00    -0.023 A 
ATOM      6  C   UNL     1      -2.002   1.940   6.291  0.00  0.00    -0.004 A 
ATOM      7  S   UNL     1      -0.234   2.045   6.352  0.00  0.00    -0.073 S 
ATOM      8  C   UNL     1       0.135   1.216   4.825  0.00  0.00    +0.117 A 
ATOM      9  N   UNL     1       1.255   0.908   4.183  0.00  0.00    -0.215 NA
ATOM     10  C   UNL     1       1.218   0.264   3.034  0.00  0.00    +0.178 A 
ATOM     11  C   UNL     1      -2.985   2.459   7.296  0.00  0.00    +0.043 C 
ATOM     12  C   UNL     1      -4.377   2.476   6.649  0.00  0.00    +0.005 C 
ATOM     13  C   UNL     1      -4.615   1.129   5.962  0.00  0.00    +0.005 C 
ATOM     14  C   UNL     1      -3.718   1.009   4.729  0.00  0.00    +0.037 C 
ENDROOT
BRANCH   1  21
ATOM     15  C   UNL     1      -0.056   1.451   0.077  0.00  0.00    +0.046 C 
ATOM     16  C   UNL     1      -0.017  -0.055   0.051  0.00  0.00    -0.026 A 
ATOM     17  C   UNL     1      -0.014  -0.727  -1.156  0.00  0.00    +0.005 A 
ATOM     18  C   UNL     1       0.023  -2.108  -1.180  0.00  0.00    +0.000 A 
ATOM     19  C   UNL     1       0.056  -2.823   0.003  0.00  0.00    +0.002 A 
ATOM     20  C   UNL     1       0.054  -2.158   1.213  0.00  0.00    +0.026 A 
ATOM     21  C   UNL     1       0.023  -0.770   1.241  0.00  0.00    +0.055 A 
ENDBRANCH   1  21
BRANCH  10  22
ATOM     22  S   UNL     1       2.725  -0.135   2.212  0.00  0.00    -0.079 S 
BRANCH  22  23
ATOM     23  C   UNL     1       4.011   0.519   3.312  0.00  0.00    +0.157 C 
BRANCH  23  24
ATOM     24  C   UNL     1       5.368   0.240   2.719  0.00  0.00    +0.182 C 
ATOM     25  O   UNL     1       5.459  -0.343   1.657  0.00  0.00    -0.291 OA
BRANCH  24  26
ATOM     26  C   UNL     1       6.534   0.657   3.397  0.00  0.00    +0.120 A 
ATOM     27  C   UNL     1       7.811   0.304   2.928  0.00  0.00    +0.116 A 
ATOM     28  N   UNL     1       8.909   0.731   3.618  0.00  0.00    -0.284 N 
ATOM     29  C   UNL     1       8.789   1.477   4.728  0.00  0.00    +0.333 A 
ATOM     30  O   UNL     1       9.797   1.832   5.306  0.00  0.00    -0.246 OA
ATOM     31  N   UNL     1       7.596   1.844   5.223  0.00  0.00    -0.263 N 
ATOM     32  C   UNL     1       6.451   1.478   4.611  0.00  0.00    +0.269 A 
ATOM     33  O   UNL     1       5.371   1.817   5.060  0.00  0.00    -0.267 OA
ATOM     34  C   UNL     1       7.538   2.659   6.439  0.00  0.00    +0.157 C 
ATOM     35  C   UNL     1      10.245   0.369   3.138  0.00  0.00    +0.155 C 
BRANCH  27  36
ATOM     36  N   UNL     1       7.951  -0.452   1.805  0.00  0.00    -0.344 N 
ATOM     37  H   UNL     1       7.171  -0.686   1.278  0.00  0.00    +0.144 HD
ATOM     38  H   UNL     1       8.831  -0.756   1.532  0.00  0.00    +0.144 HD
ENDBRANCH  27  36
ENDBRANCH  24  26
ENDBRANCH  23  24
ENDBRANCH  22  23
ENDBRANCH  10  22
TORSDOF 6
