REMARK  Name = ZINC67237628
REMARK  9 active torsions:
REMARK  status: ('A' for Active; 'I' for Inactive)
REMARK    1  A    between atoms: C_1  and  C_2
REMARK    2  A    between atoms: N_10  and  C_25
REMARK    3  A    between atoms: C_11  and  S_13
REMARK    4  A    between atoms: S_13  and  C_14
REMARK    5  A    between atoms: C_14  and  C_15
REMARK    6  A    between atoms: N_17  and  C_18
REMARK    7  A    between atoms: C_25  and  C_26
REMARK    8  A    between atoms: C_26  and  C_27
REMARK    9  A    between atoms: C_26  and  C_28
REMARK                            x       y       z     vdW  Elec       q    Type
REMARK                         _______ _______ _______ _____ _____    ______ ____
ROOT
ATOM      1  C   UNL     1      -0.094   1.499   0.014  0.00  0.00    +0.063 C 
ATOM      2  C   UNL     1      -0.065  -0.007   0.005  0.00  0.00    +0.016 A 
ATOM      3  C   UNL     1      -0.049  -0.779  -1.101  0.00  0.00    +0.051 A 
ATOM      4  C   UNL     1      -0.023  -2.129  -0.688  0.00  0.00    +0.097 A 
ATOM      5  C   UNL     1      -0.025  -2.119   0.712  0.00  0.00    +0.131 A 
ATOM      6  N   UNL     1      -0.045  -0.799   1.112  0.00  0.00    -0.353 N 
ATOM      7  H   UNL     1      -0.048  -0.487   2.030  0.00  0.00    +0.166 HD
ATOM      8  C   UNL     1      -0.002  -3.348   1.397  0.00  0.00    +0.279 A 
ATOM      9  O   UNL     1      -0.003  -3.382   2.616  0.00  0.00    -0.265 OA
ATOM     10  N   UNL     1       0.021  -4.489   0.674  0.00  0.00    -0.286 N 
ATOM     11  C   UNL     1       0.022  -4.443  -0.690  0.00  0.00    +0.173 A 
ATOM     12  N   UNL     1       0.000  -3.305  -1.344  0.00  0.00    -0.222 NA
ENDROOT
BRANCH  11  13
ATOM     13  S   UNL     1       0.054  -5.953  -1.598  0.00  0.00    -0.078 S 
BRANCH  13  14
ATOM     14  C   UNL     1       0.046  -5.422  -3.333  0.00  0.00    +0.173 C 
BRANCH  14  15
ATOM     15  C   UNL     1       0.072  -6.634  -4.229  0.00  0.00    +0.228 C 
ATOM     16  O   UNL     1       0.094  -7.746  -3.745  0.00  0.00    -0.275 OA
ATOM     17  N   UNL     1       0.071  -6.481  -5.568  0.00  0.00    -0.284 N 
ATOM     18  H   UNL     1      -0.011  -5.596  -5.955  0.00  0.00    +0.155 HD
BRANCH  17  19
ATOM     19  C   UNL     1       0.190  -7.601  -6.399  0.00  0.00    +0.052 A 
ATOM     20  C   UNL     1      -0.382  -8.810  -6.025  0.00  0.00    +0.025 A 
ATOM     21  C   UNL     1      -0.264  -9.912  -6.848  0.00  0.00    +0.002 A 
ATOM     22  C   UNL     1       0.424  -9.815  -8.044  0.00  0.00    +0.002 A 
ATOM     23  C   UNL     1       0.996  -8.613  -8.420  0.00  0.00    +0.022 A 
ATOM     24  C   UNL     1       0.876  -7.504  -7.604  0.00  0.00    +0.062 A 
ATOM     25 CL   UNL     1       1.587  -5.994  -8.080  0.00  0.00    -0.082 Cl
ENDBRANCH  17  19
ENDBRANCH  14  15
ENDBRANCH  13  14
ENDBRANCH  11  13
BRANCH  10  26
ATOM     26  C   UNL     1       0.046  -5.784   1.359  0.00  0.00    +0.130 C 
BRANCH  26  27
ATOM     27  C   UNL     1      -1.388  -6.263   1.596  0.00  0.00    +0.003 C 
ATOM     28  C   UNL     1      -2.065  -6.530   0.250  0.00  0.00    +0.009 C 
ATOM     29  C   UNL     1      -1.365  -7.552   2.420  0.00  0.00    +0.009 C 
ENDBRANCH  26  27
ENDBRANCH  10  26
TORSDOF 6
