REMARK  Name = ZINC12716793
REMARK  12 active torsions:
REMARK  status: ('A' for Active; 'I' for Inactive)
REMARK    1  A    between atoms: C_1  and  C_2
REMARK    2  A    between atoms: C_5  and  C_7
REMARK    3  A    between atoms: N_10  and  C_12
REMARK    4  A    between atoms: C_12  and  C_13
REMARK    5  A    between atoms: N_15  and  C_16
REMARK    6  A    between atoms: N_15  and  C_23
REMARK    7  A    between atoms: C_16  and  C_17
REMARK    8  A    between atoms: C_23  and  C_25
REMARK    9  A    between atoms: C_23  and  C_31
REMARK   10  A    between atoms: C_28  and  C_30
REMARK   11  A    between atoms: N_33  and  C_34
REMARK   12  A    between atoms: C_34  and  C_35
REMARK                            x       y       z     vdW  Elec       q    Type
REMARK                         _______ _______ _______ _____ _____    ______ ____
ROOT
ATOM      1  C   UNL     1      -1.349   1.936   0.219  0.00  0.00    +0.240 C 
ATOM      2  O   UNL     1      -1.572   3.104   0.454  0.00  0.00    -0.273 OA
ATOM      3  N   UNL     1      -0.083   1.518   0.020  0.00  0.00    -0.279 N 
ENDROOT
BRANCH   1   4
ATOM      4  C   UNL     1      -2.487   0.950   0.149  0.00  0.00    +0.264 C 
BRANCH   4   8
ATOM      5  C   UNL     1      -5.420   2.481   1.381  0.00  0.00    +0.239 A 
ATOM      6  N   UNL     1      -5.529   2.710   0.063  0.00  0.00    -0.105 NA
ATOM      7  N   UNL     1      -4.494   2.188  -0.503  0.00  0.00    -0.045 NA
ATOM      8  N   UNL     1      -3.752   1.647   0.399  0.00  0.00    -0.154 N 
ATOM      9  N   UNL     1      -4.298   1.808   1.555  0.00  0.00    -0.127 NA
BRANCH   5  14
ATOM     10  C   UNL     1      -7.531   3.125   5.890  0.00  0.00    +0.086 C 
ATOM     11  C   UNL     1      -7.301   3.181   4.402  0.00  0.00    +0.103 A 
ATOM     12  C   UNL     1      -8.117   3.764   3.502  0.00  0.00    +0.045 A 
ATOM     13  C   UNL     1      -7.525   3.590   2.235  0.00  0.00    +0.053 A 
ATOM     14  C   UNL     1      -6.374   2.896   2.432  0.00  0.00    +0.175 A 
ATOM     15  O   UNL     1      -6.248   2.658   3.752  0.00  0.00    -0.457 OA
ENDBRANCH   5  14
ENDBRANCH   4   8
ENDBRANCH   1   4
BRANCH   3  16
ATOM     16  C   UNL     1       0.186   0.107  -0.264  0.00  0.00    +0.140 C 
BRANCH  16  17
ATOM     17  C   UNL     1       0.386  -0.649   1.051  0.00  0.00    +0.136 C 
ATOM     18  C   UNL     1       0.666  -2.148   0.773  0.00  0.00    +0.035 C 
ATOM     19  C   UNL     1       1.442  -2.546   2.058  0.00  0.00    +0.031 C 
ATOM     20  C   UNL     1       2.226  -1.255   2.380  0.00  0.00    +0.160 C 
ATOM     21  O   UNL     1       1.556  -0.169   1.730  0.00  0.00    -0.375 OA
ENDBRANCH  16  17
ENDBRANCH   3  16
BRANCH   3  22
ATOM     22  C   UNL     1       1.023   2.477   0.082  0.00  0.00    +0.228 C 
BRANCH  22  23
ATOM     23  C   UNL     1       0.854   3.509  -1.003  0.00  0.00    +0.135 A 
ATOM     24  C   UNL     1       1.843   4.044  -1.742  0.00  0.00    +0.047 A 
ATOM     25  C   UNL     1       1.240   4.961  -2.632  0.00  0.00    +0.045 A 
ATOM     26  C   UNL     1      -0.082   4.933  -2.385  0.00  0.00    +0.102 A 
ATOM     27  O   UNL     1      -0.311   4.048  -1.401  0.00  0.00    -0.462 OA
ATOM     28  C   UNL     1      -1.129   5.752  -3.094  0.00  0.00    +0.086 C 
ENDBRANCH  22  23
BRANCH  22  29
ATOM     29  C   UNL     1       1.023   3.157   1.426  0.00  0.00    +0.241 C 
ATOM     30  O   UNL     1       0.182   2.869   2.252  0.00  0.00    -0.273 OA
ATOM     31  N   UNL     1       1.958   4.086   1.712  0.00  0.00    -0.311 N 
ATOM     32  H   UNL     1       2.630   4.316   1.052  0.00  0.00    +0.149 HD
BRANCH  31  33
ATOM     33  C   UNL     1       1.958   4.747   3.019  0.00  0.00    +0.135 C 
BRANCH  33  34
ATOM     34  C   UNL     1       3.113   5.748   3.083  0.00  0.00    +0.135 C 
ATOM     35  C   UNL     1       3.192   6.366   4.496  0.00  0.00    +0.035 C 
ATOM     36  C   UNL     1       3.539   7.849   4.189  0.00  0.00    +0.031 C 
ATOM     37  C   UNL     1       2.768   8.062   2.862  0.00  0.00    +0.160 C 
ATOM     38  O   UNL     1       2.883   6.816   2.156  0.00  0.00    -0.375 OA
ENDBRANCH  33  34
ENDBRANCH  31  33
ENDBRANCH  22  29
ENDBRANCH   3  22
TORSDOF 10
