REMARK  Name = ZINC17449229
REMARK  8 active torsions:
REMARK  status: ('A' for Active; 'I' for Inactive)
REMARK    1  A    between atoms: C_1  and  C_2
REMARK    2  A    between atoms: C_5  and  S_24
REMARK    3  A    between atoms: C_7  and  C_8
REMARK    4  A    between atoms: N_10  and  N_11
REMARK    5  A    between atoms: C_12  and  C_14
REMARK    6  A    between atoms: C_15  and  C_23
REMARK    7  A    between atoms: S_24  and  N_27
REMARK    8  A    between atoms: N_27  and  C_28
REMARK                            x       y       z     vdW  Elec       q    Type
REMARK                         _______ _______ _______ _____ _____    ______ ____
ROOT
ATOM      1  C   UNL     1       5.452   3.637  -0.372  0.00  0.00    +0.044 C 
ATOM      2  C   UNL     1       4.026   3.164  -0.264  0.00  0.00    -0.038 A 
ATOM      3  C   UNL     1       3.590   2.537   0.885  0.00  0.00    +0.006 A 
ATOM      4  C   UNL     1       2.279   2.107   0.988  0.00  0.00    +0.029 A 
ATOM      5  C   UNL     1       1.399   2.293  -0.064  0.00  0.00    +0.109 A 
ATOM      6  C   UNL     1       1.822   2.918  -1.219  0.00  0.00    +0.042 A 
ATOM      7  C   UNL     1       3.142   3.359  -1.327  0.00  0.00    +0.043 A 
ENDROOT
BRANCH   7   8
ATOM      8  C   UNL     1       3.602   4.030  -2.561  0.00  0.00    +0.260 C 
ATOM      9  O   UNL     1       4.711   4.526  -2.606  0.00  0.00    -0.269 OA
ATOM     10  N   UNL     1       2.792   4.092  -3.636  0.00  0.00    -0.230 N 
ATOM     11  H   UNL     1       1.907   3.696  -3.601  0.00  0.00    +0.173 HD
BRANCH  10  12
ATOM     12  N   UNL     1       3.228   4.728  -4.806  0.00  0.00    -0.228 N 
ATOM     13  C   UNL     1       2.418   4.790  -5.882  0.00  0.00    +0.296 C 
ATOM     14  O   UNL     1       1.308   4.293  -5.837  0.00  0.00    -0.265 OA
ATOM     15  H   UNL     1       4.113   5.124  -4.842  0.00  0.00    +0.173 HD
BRANCH  13  16
ATOM     16  C   UNL     1       2.875   5.457  -7.109  0.00  0.00    +0.195 A 
ATOM     17  C   UNL     1       2.150   5.575  -8.251  0.00  0.00    +0.008 A 
ATOM     18  C   UNL     1       2.996   6.306  -9.194  0.00  0.00    +0.024 A 
ATOM     19  C   UNL     1       2.834   6.740 -10.512  0.00  0.00    +0.012 A 
ATOM     20  C   UNL     1       3.848   7.415 -11.131  0.00  0.00    +0.001 A 
ATOM     21  C   UNL     1       5.036   7.671 -10.460  0.00  0.00    +0.004 A 
ATOM     22  C   UNL     1       5.215   7.251  -9.160  0.00  0.00    +0.047 A 
ATOM     23  C   UNL     1       4.198   6.563  -8.509  0.00  0.00    +0.136 A 
ATOM     24  O   UNL     1       4.081   6.040  -7.272  0.00  0.00    -0.450 OA
ATOM     25  C   UNL     1       0.756   5.058  -8.496  0.00  0.00    +0.048 C 
ENDBRANCH  13  16
ENDBRANCH  10  12
ENDBRANCH   7   8
BRANCH   5  26
ATOM     26  S   UNL     1      -0.267   1.736   0.074  0.00  0.00    +0.072 S 
ATOM     27  O   UNL     1      -1.015   2.447  -0.903  0.00  0.00    -0.150 OA
ATOM     28  O   UNL     1      -0.593   1.772   1.457  0.00  0.00    -0.150 OA
BRANCH  26  29
ATOM     29  N   UNL     1      -0.290   0.143  -0.377  0.00  0.00    -0.216 N 
ATOM     30  H   UNL     1      -0.765  -0.127  -1.179  0.00  0.00    +0.174 HD
BRANCH  29  31
ATOM     31  C   UNL     1       0.374  -0.812   0.397  0.00  0.00    +0.048 A 
ATOM     32  C   UNL     1       1.563  -1.369  -0.055  0.00  0.00    +0.027 A 
ATOM     33  C   UNL     1       2.221  -2.310   0.714  0.00  0.00    +0.040 A 
ATOM     34  C   UNL     1       1.690  -2.705   1.930  0.00  0.00    +0.124 A 
ATOM     35  C   UNL     1       0.502  -2.155   2.380  0.00  0.00    +0.040 A 
ATOM     36  C   UNL     1      -0.156  -1.210   1.617  0.00  0.00    +0.027 A 
ATOM     37  F   UNL     1       2.332  -3.629   2.678  0.00  0.00    -0.205 F 
ENDBRANCH  29  31
ENDBRANCH  26  29
ENDBRANCH   5  26
TORSDOF 6
