REMARK  Name = ZINC16433215
REMARK  13 active torsions:
REMARK  status: ('A' for Active; 'I' for Inactive)
REMARK    1  A    between atoms: C_1  and  C_2
REMARK    2  A    between atoms: C_2  and  C_3
REMARK    3  A    between atoms: C_2  and  C_4
REMARK    4  A    between atoms: C_4  and  N_5
REMARK    5  A    between atoms: N_5  and  C_6
REMARK    6  A    between atoms: C_6  and  C_7
REMARK    7  A    between atoms: N_9  and  C_10
REMARK    8  A    between atoms: C_12  and  C_22
REMARK    9  A    between atoms: N_14  and  C_15
REMARK   10  A    between atoms: N_30  and  C_31
REMARK   11  A    between atoms: C_31  and  C_32
REMARK   12  A    between atoms: C_31  and  C_33
REMARK   13  A    between atoms: C_31  and  C_34
REMARK                            x       y       z     vdW  Elec       q    Type
REMARK                         _______ _______ _______ _____ _____    ______ ____
ROOT
ATOM      1  C   UNL     1       0.002  -0.004   0.002  0.00  0.00    +0.236 C 
ATOM      2  O   UNL     1       1.061  -0.596  -0.011  0.00  0.00    -0.274 OA
ATOM      3  N   UNL     1      -1.156  -0.694   0.009  0.00  0.00    -0.269 N 
ATOM      4  H   UNL     1      -2.002  -0.220   0.020  0.00  0.00    +0.156 HD
ENDROOT
BRANCH   3   5
ATOM      5  C   UNL     1      -1.137  -2.088   0.002  0.00  0.00    +0.129 A 
ATOM      6  C   UNL     1      -0.029  -2.875  -0.013  0.00  0.00    +0.074 A 
ATOM      7  C   UNL     1      -0.454  -4.217  -0.016  0.00  0.00    +0.095 A 
ATOM      8  N   UNL     1      -1.771  -4.231  -0.004  0.00  0.00    -0.165 NA
ATOM      9  N   UNL     1      -2.225  -2.907   0.013  0.00  0.00    -0.218 N 
BRANCH   9  10
ATOM     10  C   UNL     1      -3.565  -2.496   0.035  0.00  0.00    +0.068 A 
ATOM     11  C   UNL     1      -3.932  -1.357   0.740  0.00  0.00    +0.030 A 
ATOM     12  C   UNL     1      -5.252  -0.952   0.757  0.00  0.00    +0.040 A 
ATOM     13  C   UNL     1      -6.211  -1.685   0.079  0.00  0.00    +0.124 A 
ATOM     14  C   UNL     1      -5.848  -2.823  -0.622  0.00  0.00    +0.040 A 
ATOM     15  C   UNL     1      -4.528  -3.229  -0.645  0.00  0.00    +0.030 A 
ATOM     16  F   UNL     1      -7.502  -1.289   0.100  0.00  0.00    -0.205 F 
ENDBRANCH   9  10
BRANCH   7  17
ATOM     17  C   UNL     1       0.429  -5.409  -0.031  0.00  0.00    +0.002 A 
ATOM     18  C   UNL     1       1.814  -5.254  -0.049  0.00  0.00    +0.010 A 
ATOM     19  C   UNL     1       2.630  -6.366  -0.058  0.00  0.00    +0.001 A 
ATOM     20  C   UNL     1       2.077  -7.634  -0.060  0.00  0.00    +0.000 A 
ATOM     21  C   UNL     1       0.703  -7.794  -0.047  0.00  0.00    +0.001 A 
ATOM     22  C   UNL     1      -0.123  -6.689  -0.033  0.00  0.00    +0.010 A 
ENDBRANCH   7  17
ENDBRANCH   3   5
BRANCH   1  23
ATOM     23  C   UNL     1      -0.018   1.503   0.010  0.00  0.00    +0.205 C 
BRANCH  23  24
ATOM     24  N   UNL     1       1.356   2.010  -0.000  0.00  0.00    -0.277 N 
ATOM     25  C   UNL     1       1.999   2.237   1.162  0.00  0.00    +0.303 C 
ATOM     26  O   UNL     1       1.439   2.021   2.220  0.00  0.00    -0.253 OA
ATOM     27  N   UNL     1       3.264   2.703   1.153  0.00  0.00    -0.294 N 
ATOM     28  H   UNL     1       3.711   2.876   0.309  0.00  0.00    +0.151 HD
BRANCH  27  29
ATOM     29  C   UNL     1       3.963   2.950   2.416  0.00  0.00    +0.028 C 
ATOM     30  C   UNL     1       4.056   1.646   3.211  0.00  0.00    +0.031 C 
ATOM     31  C   UNL     1       5.372   3.472   2.126  0.00  0.00    +0.031 C 
ATOM     32  C   UNL     1       3.192   3.990   3.231  0.00  0.00    +0.031 C 
ENDBRANCH  27  29
BRANCH  24  33
ATOM     33  C   UNL     1       2.031   2.270  -1.274  0.00  0.00    +0.113 C 
BRANCH  33  35
ATOM     34  C   UNL     1       2.572   4.024  -2.969  0.00  0.00    +0.009 C 
ATOM     35  C   UNL     1       1.767   3.714  -1.705  0.00  0.00    +0.000 C 
ATOM     36  C   UNL     1       0.275   3.896  -1.993  0.00  0.00    +0.009 C 
ENDBRANCH  33  35
ENDBRANCH  24  33
ENDBRANCH  23  24
ENDBRANCH   1  23
TORSDOF 8
