REMARK  Name = ZINC49514765
REMARK  4 active torsions:
REMARK  status: ('A' for Active; 'I' for Inactive)
REMARK    1  A    between atoms: C_1  and  C_2
REMARK    2  A    between atoms: C_2  and  C_4
REMARK    3  A    between atoms: C_2  and  N_11
REMARK    4  A    between atoms: N_11  and  C_12
REMARK                            x       y       z     vdW  Elec       q    Type
REMARK                         _______ _______ _______ _____ _____    ______ ____
ROOT
ATOM      1  N   UNL     1       0.655  -0.596   1.177  0.00  0.00    +0.394 N 
ATOM      2  H   UNL     1       0.833  -1.587   1.104  0.00  0.00    -0.083 HD
ATOM      3  H   UNL     1       1.532  -0.102   1.248  0.00  0.00    -0.083 HD
ENDROOT
BRANCH   1   4
ATOM      4  C   UNL     1      -0.154  -0.330   2.373  0.00  0.00    +0.050 C 
ATOM      5  C   UNL     1       0.558  -0.818   3.614  0.00  0.00    -0.031 A 
ATOM      6  C   UNL     1       0.981  -2.063   4.023  0.00  0.00    +0.004 A 
ATOM      7  C   UNL     1       1.622  -2.208   5.240  0.00  0.00    +0.000 A 
ATOM      8  C   UNL     1       1.836  -1.102   6.042  0.00  0.00    +0.002 A 
ATOM      9  C   UNL     1       1.414   0.146   5.635  0.00  0.00    +0.023 A 
ATOM     10  C   UNL     1       0.767   0.301   4.410  0.00  0.00    +0.035 A 
ATOM     11  N   UNL     1       0.255   1.439   3.786  0.00  0.00    -0.286 N 
ATOM     12  C   UNL     1      -0.303   1.160   2.593  0.00  0.00    +0.208 C 
ATOM     13  O   UNL     1      -0.825   1.951   1.835  0.00  0.00    -0.277 OA
ATOM     14  H   UNL     1       0.294   2.330   4.169  0.00  0.00    +0.155 HD
ENDBRANCH   1   4
BRANCH   1  16
ATOM     15  C   UNL     1       0.823  -0.303  -1.249  0.00  0.00    -0.009 C 
ATOM     16  C   UNL     1      -0.069  -0.139  -0.016  0.00  0.00    -0.043 C 
BRANCH  16  17
ATOM     17  C   UNL     1      -1.321  -0.962  -0.189  0.00  0.00    -0.062 A 
ATOM     18  C   UNL     1      -1.294  -2.321   0.059  0.00  0.00    +0.003 A 
ATOM     19  C   UNL     1      -2.441  -3.075  -0.099  0.00  0.00    +0.015 A 
ATOM     20  C   UNL     1      -3.616  -2.470  -0.506  0.00  0.00    +0.018 A 
ATOM     21  C   UNL     1      -3.643  -1.109  -0.755  0.00  0.00    +0.015 A 
ATOM     22  C   UNL     1      -2.496  -0.355  -0.591  0.00  0.00    +0.003 A 
ATOM     23 BR   UNL     1      -5.186  -3.501  -0.723  0.00  0.00    -0.050 Br
ENDBRANCH  16  17
ENDBRANCH   1  16
TORSDOF 3
