REMARK  Name = ZINC00650330
REMARK  13 active torsions:
REMARK  status: ('A' for Active; 'I' for Inactive)
REMARK    1  A    between atoms: C_1  and  C_2
REMARK    2  A    between atoms: C_3  and  C_34
REMARK    3  A    between atoms: C_4  and  C_25
REMARK    4  A    between atoms: C_10  and  C_15
REMARK    5  A    between atoms: C_18  and  O_23
REMARK    6  A    between atoms: C_19  and  O_21
REMARK    7  A    between atoms: O_21  and  C_22
REMARK    8  A    between atoms: O_23  and  C_24
REMARK    9  A    between atoms: C_28  and  O_32
REMARK   10  A    between atoms: C_29  and  O_31
REMARK   11  A    between atoms: O_32  and  C_33
REMARK   12  A    between atoms: C_34  and  O_36
REMARK   13  A    between atoms: O_36  and  C_37
REMARK                            x       y       z     vdW  Elec       q    Type
REMARK                         _______ _______ _______ _____ _____    ______ ____
ROOT
ATOM      1  C   UNL     1      -0.018   1.503   0.010  0.00  0.00    +0.061 C 
ATOM      2  C   UNL     1       0.002  -0.004   0.002  0.00  0.00    +0.016 C 
ATOM      3  C   UNL     1      -1.155  -0.688   0.004  0.00  0.00    +0.065 C 
ATOM      4  C   UNL     1      -1.174  -2.188   0.005  0.00  0.00    +0.092 C 
ATOM      5  C   UNL     1       0.160  -2.746  -0.422  0.00  0.00    +0.024 C 
ATOM      6  C   UNL     1       1.267  -1.974  -0.410  0.00  0.00    +0.016 C 
ATOM      7  N   UNL     1       1.198  -0.667  -0.013  0.00  0.00    -0.321 N 
ATOM      8  C   UNL     1       2.604  -2.524  -0.842  0.00  0.00    +0.059 C 
ATOM      9  C   UNL     1       2.670  -4.019  -0.526  0.00  0.00    +0.032 C 
ATOM     10  C   UNL     1       1.517  -4.721  -1.252  0.00  0.00    +0.088 C 
ATOM     11  C   UNL     1       0.218  -4.091  -0.830  0.00  0.00    +0.162 C 
ATOM     12  O   UNL     1      -0.799  -4.755  -0.843  0.00  0.00    -0.292 OA
ATOM     13  H   UNL     1       2.005  -0.207   0.265  0.00  0.00    +0.152 HD
ENDROOT
BRANCH   9  14
ATOM     14  C   UNL     1       3.987  -4.579  -1.000  0.00  0.00    -0.040 A 
ATOM     15  C   UNL     1       4.329  -4.501  -2.337  0.00  0.00    +0.008 A 
ATOM     16  C   UNL     1       5.535  -5.012  -2.777  0.00  0.00    +0.049 A 
ATOM     17  C   UNL     1       6.406  -5.604  -1.876  0.00  0.00    +0.161 A 
ATOM     18  C   UNL     1       6.063  -5.683  -0.530  0.00  0.00    +0.162 A 
ATOM     19  C   UNL     1       4.854  -5.163  -0.095  0.00  0.00    +0.053 A 
BRANCH  18  20
ATOM     20  O   UNL     1       6.914  -6.263   0.358  0.00  0.00    -0.491 OA
ATOM     21  C   UNL     1       6.495  -6.307   1.724  0.00  0.00    +0.277 C 
ENDBRANCH  18  20
BRANCH  17  22
ATOM     22  O   UNL     1       7.593  -6.109  -2.307  0.00  0.00    -0.491 OA
ATOM     23  C   UNL     1       7.879  -5.994  -3.702  0.00  0.00    +0.277 C 
ENDBRANCH  17  22
ENDBRANCH   9  14
BRANCH   4  24
ATOM     24  C   UNL     1      -1.492  -2.678   1.395  0.00  0.00    -0.032 A 
ATOM     25  C   UNL     1      -0.664  -2.343   2.450  0.00  0.00    +0.008 A 
ATOM     26  C   UNL     1      -0.951  -2.789   3.726  0.00  0.00    +0.050 A 
ATOM     27  C   UNL     1      -2.071  -3.574   3.950  0.00  0.00    +0.161 A 
ATOM     28  C   UNL     1      -2.904  -3.911   2.888  0.00  0.00    +0.159 A 
ATOM     29  C   UNL     1      -2.613  -3.456   1.612  0.00  0.00    +0.053 A 
BRANCH  28  30
ATOM     30  O   UNL     1      -4.005  -4.681   3.102  0.00  0.00    -0.503 OA
ATOM     31  H   UNL     1      -4.803  -4.177   3.311  0.00  0.00    +0.292 HD
ENDBRANCH  28  30
BRANCH  27  32
ATOM     32  O   UNL     1      -2.355  -4.015   5.205  0.00  0.00    -0.491 OA
ATOM     33  C   UNL     1      -1.455  -3.630   6.246  0.00  0.00    +0.277 C 
ENDBRANCH  27  32
ENDBRANCH   4  24
BRANCH   3  34
ATOM     34  C   UNL     1      -2.380   0.021   0.005  0.00  0.00    +0.338 C 
ATOM     35  O   UNL     1      -2.378   1.238   0.004  0.00  0.00    -0.245 OA
BRANCH  34  36
ATOM     36  O   UNL     1      -3.549  -0.652   0.007  0.00  0.00    -0.458 OA
BRANCH  36  37
ATOM     37  C   UNL     1      -4.747   0.128   0.008  0.00  0.00    +0.177 C 
ATOM     38  C   UNL     1      -5.226   0.357   1.456  0.00  0.00    +0.044 C 
ATOM     39  C   UNL     1      -6.771   0.286   1.360  0.00  0.00    +0.004 C 
ATOM     40  C   UNL     1      -6.997  -0.842   0.322  0.00  0.00    +0.004 C 
ATOM     41  C   UNL     1      -5.872  -0.634  -0.713  0.00  0.00    +0.044 C 
ENDBRANCH  36  37
ENDBRANCH  34  36
ENDBRANCH   3  34
TORSDOF 9
