REMARK  Name = ZINC53035600
REMARK  6 active torsions:
REMARK  status: ('A' for Active; 'I' for Inactive)
REMARK    1  A    between atoms: C_1  and  C_2
REMARK    2  A    between atoms: C_5  and  C_7
REMARK    3  A    between atoms: C_7  and  N_8
REMARK    4  A    between atoms: N_8  and  S_9
REMARK    5  A    between atoms: S_9  and  C_12
REMARK    6  A    between atoms: C_16  and  N_18
REMARK                            x       y       z     vdW  Elec       q    Type
REMARK                         _______ _______ _______ _____ _____    ______ ____
ROOT
ATOM      1  S   UNL     1       3.260  -4.621  -1.737  0.00  0.00    +0.059 S 
ATOM      2  O   UNL     1       3.271  -4.815  -3.144  0.00  0.00    -0.153 OA
ATOM      3  O   UNL     1       4.377  -4.100  -1.030  0.00  0.00    -0.153 OA
ENDROOT
BRANCH   1   4
ATOM      4  C   UNL     1       2.893  -6.187  -1.016  0.00  0.00    +0.107 A 
ATOM      5  C   UNL     1       3.277  -6.455   0.285  0.00  0.00    +0.030 A 
ATOM      6  C   UNL     1       2.992  -7.682   0.855  0.00  0.00    +0.024 A 
ATOM      7  C   UNL     1       2.323  -8.645   0.125  0.00  0.00    +0.062 A 
ATOM      8  C   UNL     1       1.935  -8.379  -1.183  0.00  0.00    +0.045 A 
ATOM      9  C   UNL     1       2.219  -7.143  -1.750  0.00  0.00    +0.052 A 
ATOM     10 CL   UNL     1       1.966 -10.187   0.840  0.00  0.00    -0.082 Cl
BRANCH   8  11
ATOM     11  N   UNL     1       1.258  -9.351  -1.925  0.00  0.00    -0.357 N 
ATOM     12  H   UNL     1       1.058 -10.212  -1.527  0.00  0.00    +0.142 HD
ATOM     13  H   UNL     1       0.989  -9.163  -2.838  0.00  0.00    +0.142 HD
ENDBRANCH   8  11
ENDBRANCH   1   4
BRANCH   1  14
ATOM     14  N   UNL     1       1.983  -3.620  -1.407  0.00  0.00    -0.183 NA
ATOM     15  H   UNL     1       1.433  -3.281  -2.131  0.00  0.00    +0.148 HD
BRANCH  14  16
ATOM     16  C   UNL     1       1.684  -3.245  -0.023  0.00  0.00    +0.180 C 
BRANCH  16  21
ATOM     17  C   UNL     1      -0.018   1.503   0.010  0.00  0.00    +0.086 C 
ATOM     18  C   UNL     1       0.002  -0.004   0.002  0.00  0.00    +0.102 A 
ATOM     19  C   UNL     1      -1.078  -0.805   0.003  0.00  0.00    +0.044 A 
ATOM     20  C   UNL     1      -0.601  -2.136  -0.007  0.00  0.00    +0.046 A 
ATOM     21  C   UNL     1       0.742  -2.069  -0.013  0.00  0.00    +0.121 A 
ATOM     22  O   UNL     1       1.102  -0.775  -0.013  0.00  0.00    -0.464 OA
ENDBRANCH  16  21
ENDBRANCH  14  16
ENDBRANCH   1  14
TORSDOF 5
