REMARK  Name = ZINC25455665
REMARK  12 active torsions:
REMARK  status: ('A' for Active; 'I' for Inactive)
REMARK    1  A    between atoms: C_1  and  C_2
REMARK    2  A    between atoms: C_2  and  C_3
REMARK    3  A    between atoms: C_3  and  C_4
REMARK    4  A    between atoms: C_4  and  N_5
REMARK    5  A    between atoms: N_5  and  C_6
REMARK    6  A    between atoms: C_7  and  N_18
REMARK    7  A    between atoms: N_8  and  C_15
REMARK    8  A    between atoms: C_15  and  C_16
REMARK    9  A    between atoms: C_16  and  C_17
REMARK   10  A    between atoms: C_19  and  C_21
REMARK   11  A    between atoms: C_21  and  N_22
REMARK   12  A    between atoms: C_30  and  C_33
REMARK                            x       y       z     vdW  Elec       q    Type
REMARK                         _______ _______ _______ _____ _____    ______ ____
ROOT
ATOM      1  N   UNL     1      -2.780  -2.572   0.016  0.00  0.00    -0.263 N 
ATOM      2  C   UNL     1      -3.279  -2.904   1.226  0.00  0.00    +0.234 C 
ATOM      3  O   UNL     1      -4.371  -3.425   1.308  0.00  0.00    -0.274 OA
ENDROOT
BRANCH   1   4
ATOM      4  C   UNL     1      -3.572  -2.728  -1.141  0.00  0.00    +0.140 A 
ATOM      5  C   UNL     1      -3.224  -3.645  -2.111  0.00  0.00    +0.127 A 
ATOM      6  N   UNL     1      -4.016  -3.773  -3.228  0.00  0.00    -0.280 N 
ATOM      7  C   UNL     1      -5.117  -3.014  -3.373  0.00  0.00    +0.331 A 
ATOM      8  O   UNL     1      -5.804  -3.142  -4.368  0.00  0.00    -0.246 OA
ATOM      9  N   UNL     1      -5.472  -2.115  -2.437  0.00  0.00    -0.273 N 
ATOM     10  H   UNL     1      -6.271  -1.580  -2.565  0.00  0.00    +0.173 HD
ATOM     11  C   UNL     1      -4.734  -1.954  -1.322  0.00  0.00    +0.277 A 
ATOM     12  O   UNL     1      -5.067  -1.140  -0.477  0.00  0.00    -0.266 OA
BRANCH   5  13
ATOM     13  N   UNL     1      -2.099  -4.420  -1.964  0.00  0.00    -0.343 N 
ATOM     14  H   UNL     1      -1.505  -4.275  -1.211  0.00  0.00    +0.144 HD
ATOM     15  H   UNL     1      -1.898  -5.112  -2.614  0.00  0.00    +0.144 HD
ENDBRANCH   5  13
BRANCH   6  16
ATOM     16  C   UNL     1      -3.659  -4.743  -4.267  0.00  0.00    +0.128 C 
BRANCH  16  17
ATOM     17  C   UNL     1      -4.317  -6.088  -3.957  0.00  0.00    +0.018 C 
ATOM     18  C   UNL     1      -3.944  -7.101  -5.042  0.00  0.00    +0.005 C 
ENDBRANCH  16  17
ENDBRANCH   6  16
ENDBRANCH   1   4
BRANCH   1  19
ATOM     19  C   UNL     1      -1.415  -2.051  -0.095  0.00  0.00    +0.114 C 
BRANCH  19  20
ATOM     20  C   UNL     1      -1.452  -0.521  -0.089  0.00  0.00    +0.019 C 
BRANCH  20  22
ATOM     21  C   UNL     1      -0.063   1.553  -0.200  0.00  0.00    +0.004 C 
ATOM     22  C   UNL     1      -0.027   0.023  -0.205  0.00  0.00    -0.002 C 
ENDBRANCH  20  22
ENDBRANCH  19  20
ENDBRANCH   1  19
BRANCH   2  23
ATOM     23  C   UNL     1      -2.479  -2.627   2.473  0.00  0.00    +0.181 C 
BRANCH  23  24
ATOM     24  N   UNL     1      -3.235  -3.077   3.649  0.00  0.00    -0.289 NA
ATOM     25  C   UNL     1      -4.440  -2.263   3.842  0.00  0.00    +0.120 C 
ATOM     26  C   UNL     1      -5.154  -2.670   5.105  0.00  0.00    -0.030 A 
ATOM     27  C   UNL     1      -6.478  -2.289   5.267  0.00  0.00    +0.005 A 
ATOM     28  C   UNL     1      -7.169  -2.637   6.409  0.00  0.00    +0.000 A 
ATOM     29  C   UNL     1      -6.540  -3.369   7.399  0.00  0.00    +0.000 A 
ATOM     30  C   UNL     1      -5.223  -3.749   7.239  0.00  0.00    +0.004 A 
ATOM     31  C   UNL     1      -4.528  -3.403   6.090  0.00  0.00    -0.034 A 
ATOM     32  C   UNL     1      -3.095  -3.850   5.954  0.00  0.00    +0.063 C 
ATOM     33  C   UNL     1      -2.398  -3.043   4.859  0.00  0.00    +0.098 C 
BRANCH  32  34
ATOM     34  C   UNL     1      -2.378  -3.637   7.263  0.00  0.00    -0.039 A 
ATOM     35  C   UNL     1      -2.288  -2.368   7.803  0.00  0.00    +0.004 A 
ATOM     36  C   UNL     1      -1.630  -2.172   9.003  0.00  0.00    +0.000 A 
ATOM     37  C   UNL     1      -1.063  -3.246   9.663  0.00  0.00    +0.000 A 
ATOM     38  C   UNL     1      -1.154  -4.516   9.123  0.00  0.00    +0.000 A 
ATOM     39  C   UNL     1      -1.815  -4.712   7.925  0.00  0.00    +0.004 A 
ENDBRANCH  32  34
ENDBRANCH  23  24
ENDBRANCH   2  23
TORSDOF 10
