REMARK  Name = ZINC15134332
REMARK  6 active torsions:
REMARK  status: ('A' for Active; 'I' for Inactive)
REMARK    1  A    between atoms: C_1  and  C_2
REMARK    2  A    between atoms: C_2  and  C_3
REMARK    3  A    between atoms: C_10  and  C_12
REMARK    4  A    between atoms: C_14  and  N_19
REMARK    5  A    between atoms: C_17  and  O_18
REMARK    6  A    between atoms: C_20  and  C_21
REMARK                            x       y       z     vdW  Elec       q    Type
REMARK                         _______ _______ _______ _____ _____    ______ ____
ROOT
ATOM      1  C   UNL     1       0.209  -4.091   8.191  0.00  0.00    +0.080 A 
ATOM      2  C   UNL     1       1.561  -3.775   8.312  0.00  0.00    +0.044 A 
ATOM      3  C   UNL     1       2.239  -4.077   9.491  0.00  0.00    +0.065 A 
ATOM      4  C   UNL     1       1.561  -4.694  10.548  0.00  0.00    +0.031 A 
ATOM      5  C   UNL     1       0.224  -5.006  10.427  0.00  0.00    +0.048 A 
ATOM      6  C   UNL     1      -0.461  -4.705   9.259  0.00  0.00    +0.129 A 
ENDROOT
BRANCH   1  14
ATOM      7  C   UNL     1      -3.295  -3.088   3.460  0.00  0.00    -0.045 A 
ATOM      8  C   UNL     1      -2.136  -2.557   2.913  0.00  0.00    +0.007 A 
ATOM      9  C   UNL     1      -0.962  -2.542   3.638  0.00  0.00    +0.049 A 
ATOM     10  C   UNL     1      -0.937  -3.061   4.923  0.00  0.00    +0.156 A 
ATOM     11  C   UNL     1      -2.108  -3.599   5.481  0.00  0.00    +0.110 A 
ATOM     12  C   UNL     1      -3.290  -3.603   4.737  0.00  0.00    +0.035 A 
ATOM     13  N   UNL     1      -1.785  -4.024   6.730  0.00  0.00    -0.209 NA
ATOM     14  C   UNL     1      -0.517  -3.775   6.945  0.00  0.00    +0.232 A 
ATOM     15  O   UNL     1       0.027  -3.188   5.862  0.00  0.00    -0.435 OA
BRANCH   7  17
ATOM     16  C   UNL     1      -5.340  -1.800   2.906  0.00  0.00    +0.009 C 
ATOM     17  C   UNL     1      -4.568  -3.097   2.654  0.00  0.00    +0.032 C 
ENDBRANCH   7  17
ENDBRANCH   1  14
BRANCH   6  18
ATOM     18  O   UNL     1      -1.779  -5.009   9.147  0.00  0.00    -0.506 OA
ATOM     19  H   UNL     1      -1.950  -5.891   8.791  0.00  0.00    +0.292 HD
ENDBRANCH   6  18
BRANCH   3  20
ATOM     20  N   UNL     1       3.566  -3.769   9.616  0.00  0.00    -0.255 NA
ATOM     21  C   UNL     1       3.973  -3.030  10.607  0.00  0.00    +0.119 C 
BRANCH  21  22
ATOM     22  C   UNL     1       3.026  -2.139  11.299  0.00  0.00    -0.006 A 
ATOM     23  C   UNL     1       1.751  -1.921  10.768  0.00  0.00    +0.009 A 
ATOM     24  C   UNL     1       0.869  -1.086  11.421  0.00  0.00    +0.002 A 
ATOM     25  C   UNL     1       1.243  -0.465  12.600  0.00  0.00    +0.014 A 
ATOM     26  C   UNL     1       2.503  -0.676  13.133  0.00  0.00    +0.014 A 
ATOM     27  C   UNL     1       3.394  -1.513  12.493  0.00  0.00    +0.023 A 
ATOM     28  I   UNL     1       3.056   0.272  14.917  0.00  0.00    -0.044 I 
ENDBRANCH  21  22
ENDBRANCH   3  20
TORSDOF 5
