REMARK  Name = ZINC60183666
REMARK  11 active torsions:
REMARK  status: ('A' for Active; 'I' for Inactive)
REMARK    1  A    between atoms: C_1  and  C_2
REMARK    2  A    between atoms: C_2  and  O_3
REMARK    3  A    between atoms: O_3  and  C_4
REMARK    4  A    between atoms: C_8  and  C_10
REMARK    5  A    between atoms: C_10  and  C_12
REMARK    6  A    between atoms: C_10  and  N_13
REMARK    7  A    between atoms: C_14  and  C_16
REMARK    8  A    between atoms: C_16  and  N_17
REMARK    9  A    between atoms: C_22  and  C_29
REMARK   10  A    between atoms: C_25  and  C_27
REMARK   11  A    between atoms: C_25  and  C_28
REMARK                            x       y       z     vdW  Elec       q    Type
REMARK                         _______ _______ _______ _____ _____    ______ ____
ROOT
ATOM      1  C   UNL     1      -5.548  -7.111  -2.359  0.00  0.00    +0.213 C 
ENDROOT
BRANCH   1   2
ATOM      2  N   UNL     1      -6.918  -7.326  -2.828  0.00  0.00    -0.215 N 
ATOM      3  C   UNL     1      -7.817  -8.126  -2.213  0.00  0.00    +0.247 C 
ATOM      4  O   UNL     1      -7.589  -8.903  -1.312  0.00  0.00    -0.273 OA
ATOM      5  C   UNL     1      -9.136  -7.842  -2.891  0.00  0.00    +0.113 C 
ATOM      6  C   UNL     1      -9.816  -9.132  -3.321  0.00  0.00    +0.038 C 
ATOM      7  C   UNL     1     -10.370  -9.864  -2.098  0.00  0.00    -0.011 C 
ATOM      8  C   UNL     1     -11.421  -8.978  -1.434  0.00  0.00    +0.009 C 
ATOM      9  C   UNL     1     -10.809  -7.667  -0.955  0.00  0.00    -0.032 C 
ATOM     10  C   UNL     1     -10.027  -6.955  -2.046  0.00  0.00    +0.041 C 
ATOM     11  C   UNL     1     -11.963  -6.742  -0.512  0.00  0.00    +0.011 C 
ATOM     12  C   UNL     1      -9.925  -7.917   0.270  0.00  0.00    +0.011 C 
ATOM     13  C   UNL     1     -11.022 -11.177  -2.545  0.00  0.00    +0.007 C 
ATOM     14  N   UNL     1      -8.731  -7.090  -4.101  0.00  0.00    -0.285 N 
ATOM     15  C   UNL     1      -7.433  -6.778  -3.935  0.00  0.00    +0.310 C 
ATOM     16  O   UNL     1      -6.800  -6.079  -4.701  0.00  0.00    -0.252 OA
ATOM     17  H   UNL     1      -9.299  -6.874  -4.854  0.00  0.00    +0.151 HD
ENDBRANCH   1   2
BRANCH   1  19
ATOM     18  N   UNL     1      -4.349  -5.527  -0.885  0.00  0.00    -0.307 N 
ATOM     19  C   UNL     1      -5.514  -5.917  -1.441  0.00  0.00    +0.231 C 
ATOM     20  O   UNL     1      -6.534  -5.306  -1.202  0.00  0.00    -0.274 OA
ATOM     21  H   UNL     1      -3.533  -6.016  -1.076  0.00  0.00    +0.149 HD
BRANCH  18  22
ATOM     22  C   UNL     1      -4.316  -4.366   0.008  0.00  0.00    +0.100 C 
ATOM     23  C   UNL     1      -4.678  -4.805   1.429  0.00  0.00    +0.033 C 
BRANCH  22  28
ATOM     24  C   UNL     1      -1.498  -1.848   0.006  0.00  0.00    +0.121 A 
ATOM     25  C   UNL     1      -0.387  -2.679  -0.003  0.00  0.00    +0.045 A 
ATOM     26  C   UNL     1      -0.552  -4.051  -0.008  0.00  0.00    +0.004 A 
ATOM     27  C   UNL     1      -1.823  -4.596  -0.004  0.00  0.00    +0.005 A 
ATOM     28  C   UNL     1      -2.932  -3.769   0.004  0.00  0.00    -0.024 A 
ATOM     29  C   UNL     1      -2.772  -2.397   0.016  0.00  0.00    +0.051 A 
BRANCH  24  30
ATOM     30  O   UNL     1      -1.339  -0.499   0.012  0.00  0.00    -0.492 OA
BRANCH  30  32
ATOM     31  C   UNL     1      -0.019   1.526   0.010  0.00  0.00    +0.048 C 
ATOM     32  C   UNL     1       0.002  -0.004   0.002  0.00  0.00    +0.225 C 
ENDBRANCH  30  32
ENDBRANCH  24  30
ENDBRANCH  22  28
ENDBRANCH  18  22
ENDBRANCH   1  19
TORSDOF 6
