REMARK  Name = ZINC10698964
REMARK  10 active torsions:
REMARK  status: ('A' for Active; 'I' for Inactive)
REMARK    1  A    between atoms: C_1  and  C_2
REMARK    2  A    between atoms: C_2  and  N_3
REMARK    3  A    between atoms: N_3  and  S_4
REMARK    4  A    between atoms: S_4  and  C_7
REMARK    5  A    between atoms: C_10  and  C_35
REMARK    6  A    between atoms: C_11  and  C_13
REMARK    7  A    between atoms: N_15  and  C_16
REMARK    8  A    between atoms: C_16  and  C_17
REMARK    9  A    between atoms: C_17  and  C_19
REMARK   10  A    between atoms: C_17  and  C_25
REMARK                            x       y       z     vdW  Elec       q    Type
REMARK                         _______ _______ _______ _____ _____    ______ ____
ROOT
ATOM      1  C   UNL     1      -5.491  -2.005  -2.092  0.00  0.00    +0.244 C 
ATOM      2  O   UNL     1      -5.018  -2.699  -2.970  0.00  0.00    -0.270 OA
ATOM      3  N   UNL     1      -4.773  -1.738  -0.983  0.00  0.00    -0.310 N 
ATOM      4  H   UNL     1      -5.151  -1.184  -0.282  0.00  0.00    +0.149 HD
ENDROOT
BRANCH   1   9
ATOM      5  C   UNL     1      -8.724  -0.254  -1.326  0.00  0.00    +0.106 A 
ATOM      6  C   UNL     1      -9.409  -0.419  -2.518  0.00  0.00    +0.029 A 
ATOM      7  C   UNL     1      -8.823  -1.099  -3.570  0.00  0.00    +0.006 A 
ATOM      8  C   UNL     1      -7.549  -1.612  -3.440  0.00  0.00    -0.038 A 
ATOM      9  C   UNL     1      -6.855  -1.453  -2.240  0.00  0.00    +0.041 A 
ATOM     10  C   UNL     1      -7.452  -0.766  -1.181  0.00  0.00    +0.041 A 
ATOM     11  C   UNL     1      -6.910  -2.348  -4.590  0.00  0.00    +0.044 C 
BRANCH   5  12
ATOM     12  S   UNL     1      -9.479   0.614   0.008  0.00  0.00    +0.058 S 
ATOM     13  O   UNL     1     -10.883   0.522  -0.190  0.00  0.00    -0.153 OA
ATOM     14  O   UNL     1      -8.847   0.161   1.197  0.00  0.00    -0.153 OA
BRANCH  12  15
ATOM     15  N   UNL     1      -9.081   2.213  -0.159  0.00  0.00    -0.190 NA
ATOM     16  H   UNL     1      -8.528   2.647   0.509  0.00  0.00    +0.148 HD
BRANCH  15  18
ATOM     17  C   UNL     1      -9.387   4.468  -1.055  0.00  0.00    +0.022 C 
ATOM     18  C   UNL     1      -9.565   2.971  -1.316  0.00  0.00    +0.102 C 
ENDBRANCH  15  18
ENDBRANCH  12  15
ENDBRANCH   5  12
ENDBRANCH   1   9
BRANCH   3  19
ATOM     19  C   UNL     1      -3.422  -2.285  -0.836  0.00  0.00    +0.117 C 
BRANCH  19  20
ATOM     20  C   UNL     1      -2.832  -1.835   0.502  0.00  0.00    +0.068 C 
BRANCH  20  21
ATOM     21  C   UNL     1      -1.400  -2.293   0.599  0.00  0.00    -0.013 A 
ATOM     22  C   UNL     1      -0.963  -3.562   0.556  0.00  0.00    +0.088 A 
ATOM     23  N   UNL     1       0.400  -3.590   0.675  0.00  0.00    -0.360 N 
ATOM     24  H   UNL     1       0.943  -4.394   0.671  0.00  0.00    +0.165 HD
ATOM     25  C   UNL     1       0.886  -2.308   0.801  0.00  0.00    +0.047 A 
ATOM     26  C   UNL     1      -0.220  -1.439   0.759  0.00  0.00    +0.003 A 
ATOM     27  C   UNL     1      -0.028  -0.061   0.865  0.00  0.00    +0.010 A 
ATOM     28  C   UNL     1       1.236   0.438   1.010  0.00  0.00    +0.001 A 
ATOM     29  C   UNL     1       2.331  -0.414   1.052  0.00  0.00    +0.002 A 
ATOM     30  C   UNL     1       2.163  -1.778   0.949  0.00  0.00    +0.026 A 
ENDBRANCH  20  21
BRANCH  20  31
ATOM     31  C   UNL     1      -3.630  -2.436   1.630  0.00  0.00    -0.038 A 
ATOM     32  C   UNL     1      -3.731  -3.809   1.749  0.00  0.00    +0.004 A 
ATOM     33  C   UNL     1      -4.459  -4.361   2.787  0.00  0.00    +0.000 A 
ATOM     34  C   UNL     1      -5.094  -3.539   3.700  0.00  0.00    +0.000 A 
ATOM     35  C   UNL     1      -4.997  -2.166   3.577  0.00  0.00    +0.000 A 
ATOM     36  C   UNL     1      -4.265  -1.614   2.542  0.00  0.00    +0.004 A 
ENDBRANCH  20  31
ENDBRANCH  19  20
ENDBRANCH   3  19
TORSDOF 8
