REMARK  Name = ZINC12412765
REMARK  6 active torsions:
REMARK  status: ('A' for Active; 'I' for Inactive)
REMARK    1  A    between atoms: C_1  and  C_2
REMARK    2  A    between atoms: C_2  and  O_3
REMARK    3  A    between atoms: O_3  and  C_4
REMARK    4  A    between atoms: C_4  and  C_6
REMARK    5  A    between atoms: C_7  and  N_34
REMARK    6  A    between atoms: C_24  and  C_27
REMARK                            x       y       z     vdW  Elec       q    Type
REMARK                         _______ _______ _______ _____ _____    ______ ____
ROOT
ATOM      1  C   UNL     1       1.704   2.633  -1.237  0.00  0.00    +0.117 C 
ATOM      2  C   UNL     1       2.457   3.762  -1.139  0.00  0.00    +0.195 C 
ATOM      3  O   UNL     1       2.990   4.145   0.030  0.00  0.00    -0.446 OA
ATOM      4  C   UNL     1       2.469   3.699   1.189  0.00  0.00    +0.116 C 
ATOM      5  C   UNL     1       1.720   2.581   1.236  0.00  0.00    +0.057 C 
ATOM      6  C   UNL     1       1.449   1.793  -0.020  0.00  0.00    +0.141 C 
ATOM      7  C   UNL     1       2.269   0.542  -0.049  0.00  0.00    -0.002 A 
ATOM      8  C   UNL     1       3.634   0.344  -0.062  0.00  0.00    +0.007 A 
ATOM      9  C   UNL     1       4.080  -0.972  -0.093  0.00  0.00    +0.000 A 
ATOM     10  C   UNL     1       3.195  -2.031  -0.109  0.00  0.00    +0.002 A 
ATOM     11  C   UNL     1       1.822  -1.840  -0.095  0.00  0.00    +0.023 A 
ATOM     12  C   UNL     1       1.361  -0.523  -0.064  0.00  0.00    +0.038 A 
ATOM     13  N   UNL     1       0.062  -0.048  -0.044  0.00  0.00    -0.284 N 
ATOM     14  C   UNL     1       0.017   1.301  -0.018  0.00  0.00    +0.237 C 
ATOM     15  O   UNL     1      -0.982   1.989  -0.001  0.00  0.00    -0.274 OA
ATOM     16  C   UNL     1       1.169   2.119   2.446  0.00  0.00    +0.165 C 
ATOM     17  O   UNL     1       0.513   1.096   2.452  0.00  0.00    -0.292 OA
ATOM     18  C   UNL     1       1.377   2.869   3.734  0.00  0.00    +0.088 C 
ATOM     19  C   UNL     1       1.578   4.354   3.415  0.00  0.00    +0.034 C 
ATOM     20  C   UNL     1       2.754   4.487   2.445  0.00  0.00    +0.083 C 
ATOM     21  H   UNL     1      -0.724  -0.616  -0.049  0.00  0.00    +0.155 HD
ENDROOT
BRANCH  19  22
ATOM     22  C   UNL     1       1.881   5.109   4.684  0.00  0.00    -0.042 A 
ATOM     23  C   UNL     1       2.977   4.760   5.450  0.00  0.00    +0.004 A 
ATOM     24  C   UNL     1       3.258   5.455   6.612  0.00  0.00    +0.002 A 
ATOM     25  C   UNL     1       2.436   6.491   7.014  0.00  0.00    +0.020 A 
ATOM     26  C   UNL     1       1.336   6.837   6.250  0.00  0.00    +0.041 A 
ATOM     27  C   UNL     1       1.058   6.145   5.084  0.00  0.00    +0.024 A 
ATOM     28 CL   UNL     1       0.303   8.138   6.754  0.00  0.00    -0.084 Cl
ENDBRANCH  19  22
BRANCH   2  29
ATOM     29  N   UNL     1       2.674   4.522  -2.257  0.00  0.00    -0.329 N 
ATOM     30  H   UNL     1       2.232   4.297  -3.091  0.00  0.00    +0.145 HD
ATOM     31  H   UNL     1       3.271   5.286  -2.215  0.00  0.00    +0.145 HD
ENDBRANCH   2  29
BRANCH   1  32
ATOM     32  C   UNL     1       1.166   2.254  -2.477  0.00  0.00    +0.342 C 
ATOM     33  O   UNL     1       1.699   1.375  -3.129  0.00  0.00    -0.245 OA
BRANCH  32  34
ATOM     34  O   UNL     1       0.056   2.865  -2.946  0.00  0.00    -0.462 OA
BRANCH  34  36
ATOM     35  C   UNL     1      -1.690   3.229  -4.577  0.00  0.00    +0.048 C 
ATOM     36  C   UNL     1      -0.437   2.429  -4.214  0.00  0.00    +0.229 C 
ENDBRANCH  34  36
ENDBRANCH  32  34
ENDBRANCH   1  32
TORSDOF 5
