REMARK  Name = ZINC25492130
REMARK  5 active torsions:
REMARK  status: ('A' for Active; 'I' for Inactive)
REMARK    1  A    between atoms: C_4  and  C_7
REMARK    2  A    between atoms: C_7  and  S_8
REMARK    3  A    between atoms: S_8  and  C_9
REMARK    4  A    between atoms: C_12  and  N_21
REMARK    5  A    between atoms: C_13  and  N_15
REMARK                            x       y       z     vdW  Elec       q    Type
REMARK                         _______ _______ _______ _____ _____    ______ ____
ROOT
ATOM      1  C   UNL     1       5.624  -2.160  -1.534  0.00  0.00    +0.192 A 
ATOM      2  N   UNL     1       6.058  -2.033  -0.287  0.00  0.00    -0.205 NA
ATOM      3  C   UNL     1       7.305  -2.327   0.050  0.00  0.00    +0.151 A 
ATOM      4  C   UNL     1       8.212  -2.805  -1.008  0.00  0.00    +0.186 A 
ATOM      5  C   UNL     1       7.649  -2.917  -2.365  0.00  0.00    +0.157 A 
ATOM      6  N   UNL     1       6.376  -2.588  -2.538  0.00  0.00    -0.205 NA
ATOM      7  N   UNL     1       7.738  -2.191   1.345  0.00  0.00    -0.341 N 
ATOM      8  H   UNL     1       8.777  -2.440   1.607  0.00  0.00    +0.144 HD
ATOM      9  H   UNL     1       7.047  -1.833   2.122  0.00  0.00    +0.144 HD
ENDROOT
BRANCH   5  10
ATOM     10  N   UNL     1       8.416  -3.353  -3.416  0.00  0.00    -0.313 N 
ATOM     11  C   UNL     1       9.624  -2.530  -3.562  0.00  0.00    +0.106 C 
ATOM     12  C   UNL     1      10.523  -3.131  -4.645  0.00  0.00    +0.019 C 
ATOM     13  C   UNL     1       9.755  -3.183  -5.969  0.00  0.00    +0.003 C 
ATOM     14  C   UNL     1       8.478  -4.005  -5.777  0.00  0.00    +0.019 C 
ATOM     15  C   UNL     1       7.637  -3.379  -4.661  0.00  0.00    +0.106 C 
ENDBRANCH   5  10
BRANCH   4  16
ATOM     16  N   UNL     1       9.470  -3.119  -0.752  0.00  0.00    -0.024 NA
ATOM     17  O   UNL     1       9.810  -3.396   0.384  0.00  0.00    -0.143 OA
ENDBRANCH   4  16
BRANCH   1  18
ATOM     18  S   UNL     1       3.947  -1.741  -1.875  0.00  0.00    -0.081 S 
BRANCH  18  19
ATOM     19  C   UNL     1       3.404  -1.248  -0.220  0.00  0.00    +0.112 C 
BRANCH  19  23
ATOM     20  C   UNL     1      -0.703  -0.082  -0.358  0.00  0.00    +0.000 A 
ATOM     21  C   UNL     1       0.289   0.858  -0.564  0.00  0.00    +0.000 A 
ATOM     22  C   UNL     1       1.618   0.480  -0.519  0.00  0.00    +0.004 A 
ATOM     23  C   UNL     1       1.955  -0.837  -0.269  0.00  0.00    -0.037 A 
ATOM     24  C   UNL     1       0.962  -1.776  -0.062  0.00  0.00    +0.004 A 
ATOM     25  C   UNL     1      -0.367  -1.399  -0.107  0.00  0.00    +0.000 A 
ENDBRANCH  19  23
ENDBRANCH  18  19
ENDBRANCH   1  18
TORSDOF 5
