REMARK  Name = ZINC39354996
REMARK  7 active torsions:
REMARK  status: ('A' for Active; 'I' for Inactive)
REMARK    1  A    between atoms: C_1  and  C_2
REMARK    2  A    between atoms: C_4  and  C_29
REMARK    3  A    between atoms: C_5  and  C_8
REMARK    4  A    between atoms: C_8  and  C_9
REMARK    5  A    between atoms: C_9  and  C_10
REMARK    6  A    between atoms: N_12  and  C_13
REMARK    7  A    between atoms: N_18  and  C_20
REMARK                            x       y       z     vdW  Elec       q    Type
REMARK                         _______ _______ _______ _____ _____    ______ ____
ROOT
ATOM      1  C   UNL     1       7.299  -1.802  -3.519  0.00  0.00    +0.056 C 
ATOM      2  C   UNL     1       7.015  -1.625  -5.013  0.00  0.00    +0.018 C 
ATOM      3  C   UNL     1       8.136  -2.289  -5.818  0.00  0.00    -0.017 C 
ATOM      4  C   UNL     1       9.480  -1.683  -5.407  0.00  0.00    -0.078 C 
ATOM      5  N   UNL     1       9.704  -1.908  -3.974  0.00  0.00    +0.383 N 
ATOM      6  C   UNL     1       8.674  -1.214  -3.192  0.00  0.00    -0.056 C 
ATOM      7  H   UNL     1       9.663  -2.897  -3.779  0.00  0.00    -0.081 HD
ENDROOT
BRANCH   5   8
ATOM      8  C   UNL     1      11.029  -1.394  -3.600  0.00  0.00    -0.060 C 
ATOM      9  C   UNL     1      12.147  -2.226  -4.263  0.00  0.00    +0.020 C 
ATOM     10  C   UNL     1      13.267  -2.267  -3.245  0.00  0.00    -0.046 A 
ATOM     11  C   UNL     1      14.606  -2.587  -3.396  0.00  0.00    +0.004 A 
ATOM     12  C   UNL     1      15.455  -2.556  -2.308  0.00  0.00    +0.000 A 
ATOM     13  C   UNL     1      14.967  -2.204  -1.062  0.00  0.00    +0.000 A 
ATOM     14  C   UNL     1      13.632  -1.885  -0.910  0.00  0.00    +0.004 A 
ATOM     15  C   UNL     1      12.779  -1.916  -2.001  0.00  0.00    -0.046 A 
ATOM     16  C   UNL     1      11.299  -1.614  -2.097  0.00  0.00    +0.020 C 
ENDBRANCH   5   8
BRANCH   1  19
ATOM     17  C   UNL     1       5.107  -1.721  -2.458  0.00  0.00    +0.214 C 
ATOM     18  O   UNL     1       4.909  -2.852  -2.849  0.00  0.00    -0.276 OA
ATOM     19  N   UNL     1       6.272  -1.105  -2.740  0.00  0.00    -0.314 N 
ATOM     20  H   UNL     1       6.430  -0.201  -2.428  0.00  0.00    +0.149 HD
BRANCH  17  21
ATOM     21  C   UNL     1       4.050  -1.004  -1.657  0.00  0.00    +0.102 C 
BRANCH  21  22
ATOM     22  C   UNL     1       2.837  -1.919  -1.480  0.00  0.00    +0.066 C 
BRANCH  22  26
ATOM     23  C   UNL     1      -0.019   1.526   0.010  0.00  0.00    +0.039 C 
ATOM     24  C   UNL     1       0.002  -0.004   0.002  0.00  0.00    +0.152 C 
ATOM     25  C   UNL     1       0.759  -0.524  -1.207  0.00  0.00    -0.024 C 
ATOM     26  C   UNL     1       1.780  -1.203  -0.679  0.00  0.00    +0.065 C 
ATOM     27  N   UNL     1       1.738  -1.160   0.671  0.00  0.00    -0.158 NA
ATOM     28  N   UNL     1       0.787  -0.521   1.136  0.00  0.00    -0.180 NA
ATOM     29  C   UNL     1       0.433  -0.322  -2.664  0.00  0.00    +0.043 C 
ENDBRANCH  22  26
ENDBRANCH  21  22
ENDBRANCH  17  21
ENDBRANCH   1  19
TORSDOF 5
