REMARK  Name = ZINC59024463
REMARK  10 active torsions:
REMARK  status: ('A' for Active; 'I' for Inactive)
REMARK    1  A    between atoms: C_1  and  C_2
REMARK    2  A    between atoms: C_2  and  C_3
REMARK    3  A    between atoms: C_2  and  C_4
REMARK    4  A    between atoms: C_2  and  C_5
REMARK    5  A    between atoms: C_12  and  C_14
REMARK    6  A    between atoms: N_16  and  C_17
REMARK    7  A    between atoms: C_17  and  C_18
REMARK    8  A    between atoms: C_18  and  N_19
REMARK    9  A    between atoms: C_20  and  C_22
REMARK   10  A    between atoms: C_25  and  O_28
REMARK                            x       y       z     vdW  Elec       q    Type
REMARK                         _______ _______ _______ _____ _____    ______ ____
ROOT
ATOM      1  C   UNL     1       5.894  -0.434  -4.729  0.00  0.00    +0.251 C 
ATOM      2  O   UNL     1       6.545   0.549  -4.430  0.00  0.00    -0.270 OA
ATOM      3  N   UNL     1       6.301  -1.231  -5.737  0.00  0.00    -0.309 N 
ATOM      4  H   UNL     1       5.781  -2.015  -5.976  0.00  0.00    +0.149 HD
ENDROOT
BRANCH   1  11
ATOM      5  C   UNL     1       0.718  -0.497  -1.257  0.00  0.00    -0.001 C 
ATOM      6  C   UNL     1       0.735  -2.029  -1.266  0.00  0.00    +0.009 C 
ATOM      7  C   UNL     1       1.206  -2.509  -2.645  0.00  0.00    +0.043 C 
ATOM      8  C   UNL     1       2.444  -1.747  -3.016  0.00  0.00    -0.006 A 
ATOM      9  C   UNL     1       2.906  -0.606  -2.429  0.00  0.00    -0.036 A 
ATOM     10  C   UNL     1       4.081  -0.074  -2.940  0.00  0.00    +0.024 A 
ATOM     11  C   UNL     1       4.666  -0.752  -3.994  0.00  0.00    +0.074 A 
ATOM     12  S   UNL     1       3.538  -2.114  -4.223  0.00  0.00    -0.088 S 
ATOM     13  C   UNL     1       2.151   0.035  -1.268  0.00  0.00    +0.040 C 
BRANCH   5  15
ATOM     14  C   UNL     1      -0.019   1.526   0.010  0.00  0.00    +0.011 C 
ATOM     15  C   UNL     1       0.002  -0.004   0.002  0.00  0.00    -0.035 C 
ATOM     16  C   UNL     1       0.742  -0.511   1.242  0.00  0.00    +0.011 C 
ATOM     17  C   UNL     1      -1.433  -0.534   0.013  0.00  0.00    +0.011 C 
ENDBRANCH   5  15
ENDBRANCH   1  11
BRANCH   3  18
ATOM     18  C   UNL     1       7.527  -0.913  -6.473  0.00  0.00    +0.123 C 
BRANCH  18  19
ATOM     19  C   UNL     1       7.760  -1.968  -7.556  0.00  0.00    +0.123 C 
BRANCH  19  20
ATOM     20  N   UNL     1       8.986  -1.651  -8.291  0.00  0.00    -0.310 N 
ATOM     21  C   UNL     1       9.393  -2.447  -9.300  0.00  0.00    +0.244 C 
ATOM     22  O   UNL     1       8.742  -3.430  -9.599  0.00  0.00    -0.270 OA
ATOM     23  H   UNL     1       9.506  -0.867  -8.053  0.00  0.00    +0.149 HD
BRANCH  21  24
ATOM     24  C   UNL     1      10.629  -2.127 -10.040  0.00  0.00    +0.037 A 
ATOM     25  C   UNL     1      11.382  -1.002  -9.694  0.00  0.00    +0.016 A 
ATOM     26  C   UNL     1      12.535  -0.707 -10.388  0.00  0.00    +0.046 A 
ATOM     27  C   UNL     1      12.950  -1.527 -11.431  0.00  0.00    +0.117 A 
ATOM     28  C   UNL     1      12.204  -2.647 -11.778  0.00  0.00    +0.046 A 
ATOM     29  C   UNL     1      11.053  -2.952 -11.086  0.00  0.00    +0.016 A 
BRANCH  27  30
ATOM     30  O   UNL     1      14.086  -1.233 -12.112  0.00  0.00    -0.507 OA
ATOM     31  H   UNL     1      14.883  -1.635 -11.740  0.00  0.00    +0.292 HD
ENDBRANCH  27  30
ENDBRANCH  21  24
ENDBRANCH  19  20
ENDBRANCH  18  19
ENDBRANCH   3  18
TORSDOF 7
