REMARK  Name = ZINC40755915
REMARK  8 active torsions:
REMARK  status: ('A' for Active; 'I' for Inactive)
REMARK    1  A    between atoms: C_4  and  N_16
REMARK    2  A    between atoms: C_5  and  N_7
REMARK    3  A    between atoms: N_7  and  C_8
REMARK    4  A    between atoms: C_8  and  C_9
REMARK    5  A    between atoms: C_9  and  C_10
REMARK    6  A    between atoms: N_17  and  C_18
REMARK    7  A    between atoms: C_18  and  C_19
REMARK    8  A    between atoms: C_19  and  C_20
REMARK                            x       y       z     vdW  Elec       q    Type
REMARK                         _______ _______ _______ _____ _____    ______ ____
ROOT
ATOM      1  C   UNL     1      -0.016   1.313   0.009  0.00  0.00    +0.225 A 
ATOM      2  N   UNL     1       1.092   2.027   0.003  0.00  0.00    -0.219 NA
ATOM      3  C   UNL     1       2.285   1.438  -0.012  0.00  0.00    +0.145 A 
ATOM      4  C   UNL     1       2.351   0.044  -0.020  0.00  0.00    +0.105 A 
ATOM      5  C   UNL     1       1.153  -0.672  -0.013  0.00  0.00    +0.145 A 
ATOM      6  N   UNL     1       0.002  -0.004   0.002  0.00  0.00    -0.219 NA
ATOM      7  N   UNL     1       3.448   2.200  -0.019  0.00  0.00    -0.327 N 
ATOM      8  H   UNL     1       4.314   1.763  -0.030  0.00  0.00    +0.148 HD
ENDROOT
BRANCH   4   9
ATOM      9  N   UNL     1       3.589  -0.620  -0.036  0.00  0.00    -0.353 N 
ATOM     10  H   UNL     1       4.413  -0.109  -0.042  0.00  0.00    +0.143 HD
ATOM     11  H   UNL     1       3.619  -1.589  -0.042  0.00  0.00    +0.143 HD
ENDBRANCH   4   9
BRANCH   5  12
ATOM     12  N   UNL     1       1.162  -2.062  -0.021  0.00  0.00    -0.327 N 
ATOM     13  H   UNL     1       2.005  -2.542  -0.032  0.00  0.00    +0.148 HD
BRANCH  12  14
ATOM     14  C   UNL     1      -0.102  -2.803  -0.013  0.00  0.00    +0.107 C 
BRANCH  14  15
ATOM     15  C   UNL     1       0.187  -4.305  -0.024  0.00  0.00    +0.049 C 
BRANCH  15  16
ATOM     16  C   UNL     1      -1.113  -5.067  -0.016  0.00  0.00    -0.072 C 
ATOM     17  C   UNL     1      -1.595  -5.458  -1.152  0.00  0.00    -0.028 C 
ATOM     18  C   UNL     1      -2.882  -6.215  -1.304  0.00  0.00    +0.027 C 
ATOM     19  C   UNL     1      -3.303  -6.814   0.040  0.00  0.00    +0.004 C 
ATOM     20  C   UNL     1      -3.235  -5.713   1.105  0.00  0.00    +0.005 C 
ATOM     21  C   UNL     1      -1.766  -5.331   1.310  0.00  0.00    +0.030 C 
ENDBRANCH  15  16
ENDBRANCH  14  15
ENDBRANCH  12  14
ENDBRANCH   5  12
BRANCH   7  22
ATOM     22  C   UNL     1       3.366   3.662  -0.011  0.00  0.00    +0.107 C 
BRANCH  22  23
ATOM     23  C   UNL     1       4.777   4.253  -0.022  0.00  0.00    +0.049 C 
BRANCH  23  24
ATOM     24  C   UNL     1       4.693   5.757  -0.014  0.00  0.00    -0.072 C 
ATOM     25  C   UNL     1       4.774   6.363   1.127  0.00  0.00    -0.028 C 
ATOM     26  C   UNL     1       4.696   7.852   1.296  0.00  0.00    +0.027 C 
ATOM     27  C   UNL     1       4.936   8.548  -0.046  0.00  0.00    +0.004 C 
ATOM     28  C   UNL     1       4.035   7.893  -1.100  0.00  0.00    +0.005 C 
ATOM     29  C   UNL     1       4.525   6.460  -1.329  0.00  0.00    +0.030 C 
ENDBRANCH  23  24
ENDBRANCH  22  23
ENDBRANCH   7  22
TORSDOF 8
