REMARK  Name = ZINC19798455
REMARK  8 active torsions:
REMARK  status: ('A' for Active; 'I' for Inactive)
REMARK    1  A    between atoms: C_1  and  C_2
REMARK    2  A    between atoms: C_2  and  C_3
REMARK    3  A    between atoms: C_3  and  C_4
REMARK    4  A    between atoms: C_4  and  N_5
REMARK    5  A    between atoms: N_5  and  C_6
REMARK    6  A    between atoms: N_16  and  C_17
REMARK    7  A    between atoms: C_22  and  C_27
REMARK    8  A    between atoms: C_24  and  C_26
REMARK                            x       y       z     vdW  Elec       q    Type
REMARK                         _______ _______ _______ _____ _____    ______ ____
ROOT
ATOM      1  C   UNL     1      -5.469   1.859   2.569  0.00  0.00    +0.051 C 
ATOM      2  C   UNL     1      -6.631   0.897   2.568  0.00  0.00    -0.032 A 
ATOM      3  C   UNL     1      -7.996   1.068   2.582  0.00  0.00    +0.004 A 
ATOM      4  C   UNL     1      -8.831  -0.036   2.585  0.00  0.00    +0.000 A 
ATOM      5  C   UNL     1      -8.297  -1.313   2.573  0.00  0.00    +0.001 A 
ATOM      6  C   UNL     1      -6.930  -1.495   2.560  0.00  0.00    +0.013 A 
ATOM      7  C   UNL     1      -6.081  -0.387   2.557  0.00  0.00    +0.040 A 
ATOM      8  C   UNL     1      -4.611  -0.260   2.544  0.00  0.00    +0.246 C 
ATOM      9  O   UNL     1      -3.834  -1.194   2.531  0.00  0.00    -0.270 OA
ATOM     10  N   UNL     1      -4.255   1.036   2.547  0.00  0.00    -0.304 N 
ENDROOT
BRANCH  10  11
ATOM     11  C   UNL     1      -2.880   1.543   2.537  0.00  0.00    +0.078 C 
ATOM     12  C   UNL     1      -2.140   1.036   3.776  0.00  0.00    +0.023 C 
ATOM     13  C   UNL     1      -0.705   1.566   3.765  0.00  0.00    +0.002 C 
ATOM     14  C   UNL     1       0.011   1.072   2.506  0.00  0.00    +0.003 C 
ATOM     15  C   UNL     1      -0.729   1.579   1.267  0.00  0.00    -0.009 C 
ATOM     16  C   UNL     1      -2.164   1.050   1.278  0.00  0.00    +0.009 C 
ATOM     17  C   UNL     1      -2.904   1.556   0.038  0.00  0.00    +0.009 C 
ATOM     18  C   UNL     1      -0.013   1.086   0.008  0.00  0.00    +0.008 C 
ENDBRANCH  10  11
BRANCH   1  19
ATOM     19  N   UNL     1      -5.496   2.687   3.782  0.00  0.00    +0.394 N 
ATOM     20  H   UNL     1      -4.758   2.292   4.495  0.00  0.00    -0.083 HD
ATOM     21  H   UNL     1      -6.501   2.632   4.225  0.00  0.00    -0.083 HD
BRANCH  19  22
ATOM     22  C   UNL     1      -5.175   4.087   3.471  0.00  0.00    -0.079 C 
BRANCH  22  23
ATOM     23  C   UNL     1      -5.212   4.916   4.756  0.00  0.00    -0.019 C 
BRANCH  23  25
ATOM     24  C   UNL     1      -4.915   7.203   5.717  0.00  0.00    +0.004 C 
ATOM     25  C   UNL     1      -4.877   6.373   4.432  0.00  0.00    -0.005 C 
ENDBRANCH  23  25
ENDBRANCH  22  23
ENDBRANCH  19  22
ENDBRANCH   1  19
TORSDOF 5
