REMARK  Name = ZINC12636169
REMARK  9 active torsions:
REMARK  status: ('A' for Active; 'I' for Inactive)
REMARK    1  A    between atoms: C_1  and  C_2
REMARK    2  A    between atoms: C_2  and  O_3
REMARK    3  A    between atoms: O_3  and  C_4
REMARK    4  A    between atoms: C_4  and  C_6
REMARK    5  A    between atoms: C_7  and  C_32
REMARK    6  A    between atoms: C_12  and  C_14
REMARK    7  A    between atoms: C_14  and  S_15
REMARK    8  A    between atoms: S_15  and  C_16
REMARK    9  A    between atoms: C_23  and  C_25
REMARK                            x       y       z     vdW  Elec       q    Type
REMARK                         _______ _______ _______ _____ _____    ______ ____
ROOT
ATOM      1  S   UNL     1      -0.888   1.685  -1.458  0.00  0.00    -0.096 S 
ENDROOT
BRANCH   1   2
ATOM      2  C   UNL     1       0.122   0.990  -2.724  0.00  0.00    +0.109 A 
ATOM      3  C   UNL     1      -0.194   1.198  -4.096  0.00  0.00    +0.043 A 
ATOM      4  C   UNL     1      -1.299   1.964  -4.675  0.00  0.00    -0.025 A 
ATOM      5  C   UNL     1      -1.371   2.011  -6.020  0.00  0.00    -0.004 A 
ATOM      6  S   UNL     1       0.011   1.059  -6.591  0.00  0.00    -0.073 S 
ATOM      7  C   UNL     1       0.686   0.598  -5.017  0.00  0.00    +0.113 A 
ATOM      8  N   UNL     1       1.722  -0.114  -4.618  0.00  0.00    -0.225 NA
ATOM      9  C   UNL     1       1.963  -0.276  -3.331  0.00  0.00    +0.135 A 
ATOM     10  N   UNL     1       1.183   0.262  -2.411  0.00  0.00    -0.225 NA
ATOM     11  C   UNL     1      -2.400   2.718  -6.850  0.00  0.00    +0.043 C 
ATOM     12  C   UNL     1      -3.586   3.082  -5.945  0.00  0.00    +0.005 C 
ATOM     13  C   UNL     1      -3.047   3.730  -4.666  0.00  0.00    +0.005 C 
ATOM     14  C   UNL     1      -2.336   2.680  -3.812  0.00  0.00    +0.037 C 
BRANCH   9  15
ATOM     15  C   UNL     1       3.154  -1.093  -2.902  0.00  0.00    +0.057 C 
ATOM     16  C   UNL     1       3.283  -1.426  -1.414  0.00  0.00    +0.012 C 
ATOM     17  C   UNL     1       4.219  -0.398  -2.052  0.00  0.00    +0.012 C 
ENDBRANCH   9  15
ENDBRANCH   1   2
BRANCH   1  18
ATOM     18  C   UNL     1      -0.013   1.086   0.008  0.00  0.00    +0.172 C 
BRANCH  18  25
ATOM     19  C   UNL     1      -2.404   2.735   5.512  0.00  0.00    +0.120 A 
ATOM     20  C   UNL     1      -1.293   1.972   5.848  0.00  0.00    +0.062 A 
ATOM     21  N   UNL     1      -0.579   1.474   4.873  0.00  0.00    -0.229 NA
ATOM     22  C   UNL     1      -0.889   1.692   3.604  0.00  0.00    +0.165 A 
ATOM     23  S   UNL     1      -2.317   2.672   3.728  0.00  0.00    -0.045 S 
ATOM     24  N   UNL     1      -0.242   1.246   2.466  0.00  0.00    -0.264 N 
ATOM     25  C   UNL     1      -0.718   1.572   1.248  0.00  0.00    +0.229 C 
ATOM     26  O   UNL     1      -1.714   2.256   1.150  0.00  0.00    -0.275 OA
ATOM     27  C   UNL     1      -0.926   1.723   7.288  0.00  0.00    +0.067 C 
ATOM     28  H   UNL     1       0.555   0.699   2.544  0.00  0.00    +0.157 HD
BRANCH  19  29
ATOM     29  C   UNL     1      -3.374   3.402   6.377  0.00  0.00    +0.348 C 
ATOM     30  O   UNL     1      -3.264   3.328   7.586  0.00  0.00    -0.244 OA
BRANCH  29  31
ATOM     31  O   UNL     1      -4.393   4.101   5.834  0.00  0.00    -0.461 OA
BRANCH  31  33
ATOM     32  C   UNL     1      -6.383   5.468   5.946  0.00  0.00    +0.048 C 
ATOM     33  C   UNL     1      -5.304   4.728   6.739  0.00  0.00    +0.229 C 
ENDBRANCH  31  33
ENDBRANCH  29  31
ENDBRANCH  19  29
ENDBRANCH  18  25
ENDBRANCH   1  18
TORSDOF 7
