REMARK  Name = ZINC39674720
REMARK  8 active torsions:
REMARK  status: ('A' for Active; 'I' for Inactive)
REMARK    1  A    between atoms: C_1  and  C_2
REMARK    2  A    between atoms: C_4  and  C_14
REMARK    3  A    between atoms: C_7  and  C_12
REMARK    4  A    between atoms: C_14  and  C_15
REMARK    5  A    between atoms: C_15  and  N_16
REMARK    6  A    between atoms: C_17  and  C_19
REMARK    7  A    between atoms: C_30  and  C_32
REMARK    8  A    between atoms: C_32  and  C_38
REMARK                            x       y       z     vdW  Elec       q    Type
REMARK                         _______ _______ _______ _____ _____    ______ ____
ROOT
ATOM      1  C   UNL     1      -7.127  -1.167  -2.411  0.00  0.00    +0.100 C 
ATOM      2  C   UNL     1      -7.564   0.315  -2.397  0.00  0.00    +0.121 C 
ATOM      3  N   UNL     1      -9.030   0.275  -2.610  0.00  0.00    -0.300 N 
ATOM      4  C   UNL     1      -9.486  -0.891  -1.817  0.00  0.00    +0.115 C 
ATOM      5  C   UNL     1      -8.391  -1.955  -2.029  0.00  0.00    -0.004 C 
ATOM      6  C   UNL     1      -8.786  -2.901  -3.160  0.00  0.00    -0.010 C 
ATOM      7  C   UNL     1     -10.012  -3.713  -2.734  0.00  0.00    -0.082 C 
ATOM      8  N   UNL     1      -9.698  -4.475  -1.519  0.00  0.00    +0.379 N 
ATOM      9  C   UNL     1      -9.409  -3.556  -0.412  0.00  0.00    -0.082 C 
ATOM     10  C   UNL     1      -8.158  -2.736  -0.740  0.00  0.00    -0.010 C 
ATOM     11  C   UNL     1      -9.780   1.110  -3.357  0.00  0.00    +0.222 C 
ATOM     12  O   UNL     1     -10.987   0.997  -3.366  0.00  0.00    -0.275 OA
ATOM     13  H   UNL     1     -10.486  -5.057  -1.275  0.00  0.00    -0.086 HD
ATOM     14  H   UNL     1      -8.893  -5.059  -1.688  0.00  0.00    -0.086 HD
ENDROOT
BRANCH  11  15
ATOM     15  C   UNL     1      -9.117   2.185  -4.180  0.00  0.00    +0.044 C 
ATOM     16  C   UNL     1      -8.235   3.049  -3.276  0.00  0.00    +0.016 C 
ATOM     17  C   UNL     1      -9.097   3.696  -2.190  0.00  0.00    +0.001 C 
ATOM     18  C   UNL     1     -10.168   4.571  -2.844  0.00  0.00    +0.000 C 
ATOM     19  C   UNL     1     -11.050   3.708  -3.748  0.00  0.00    +0.001 C 
ATOM     20  C   UNL     1     -10.188   3.060  -4.833  0.00  0.00    +0.016 C 
ATOM     21  C   UNL     1      -8.255   1.538  -5.265  0.00  0.00    +0.021 C 
ENDBRANCH  11  15
BRANCH   1  23
ATOM     22  N   UNL     1      -5.229  -2.475  -1.514  0.00  0.00    -0.315 N 
ATOM     23  C   UNL     1      -6.036  -1.402  -1.399  0.00  0.00    +0.218 C 
ATOM     24  O   UNL     1      -5.884  -0.625  -0.480  0.00  0.00    -0.275 OA
ATOM     25  H   UNL     1      -5.351  -3.097  -2.248  0.00  0.00    +0.149 HD
BRANCH  22  26
ATOM     26  C   UNL     1      -4.169  -2.704  -0.529  0.00  0.00    +0.108 C 
BRANCH  26  27
ATOM     27  C   UNL     1      -3.406  -3.980  -0.889  0.00  0.00    +0.052 C 
BRANCH  27  30
ATOM     28  C   UNL     1      -0.477  -5.348  -1.125  0.00  0.00    +0.035 C 
ATOM     29  C   UNL     1      -1.327  -5.359   0.147  0.00  0.00    +0.103 C 
ATOM     30  C   UNL     1      -2.315  -4.215   0.124  0.00  0.00    -0.037 C 
ATOM     31  C   UNL     1      -2.020  -3.442   1.200  0.00  0.00    +0.000 A 
ATOM     32  C   UNL     1      -2.599  -2.243   1.693  0.00  0.00    +0.028 A 
ATOM     33  C   UNL     1      -2.099  -1.651   2.829  0.00  0.00    +0.052 A 
ATOM     34  C   UNL     1      -0.972  -2.230   3.552  0.00  0.00    +0.021 A 
ATOM     35  C   UNL     1      -0.382  -3.368   3.131  0.00  0.00    +0.027 A 
ATOM     36  C   UNL     1      -0.876  -4.040   1.924  0.00  0.00    +0.043 A 
ATOM     37  N   UNL     1      -0.479  -5.137   1.323  0.00  0.00    -0.378 N 
ATOM     38  H   UNL     1       0.253  -5.706   1.608  0.00  0.00    +0.160 HD
BRANCH  33  39
ATOM     39  C   UNL     1      -2.695  -0.442   3.311  0.00  0.00    +0.099 C 
ATOM     40  N   UNL     1      -3.169   0.517   3.694  0.00  0.00    -0.191 NA
ENDBRANCH  33  39
ENDBRANCH  27  30
ENDBRANCH  26  27
ENDBRANCH  22  26
ENDBRANCH   1  23
TORSDOF 6
