REMARK  Name = ZINC32974845
REMARK  8 active torsions:
REMARK  status: ('A' for Active; 'I' for Inactive)
REMARK    1  A    between atoms: C_1  and  C_2
REMARK    2  A    between atoms: C_2  and  C_3
REMARK    3  A    between atoms: C_2  and  C_4
REMARK    4  A    between atoms: C_4  and  N_5
REMARK    5  A    between atoms: C_18  and  S_19
REMARK    6  A    between atoms: S_19  and  C_20
REMARK    7  A    between atoms: C_20  and  C_21
REMARK    8  A    between atoms: N_23  and  C_24
REMARK                            x       y       z     vdW  Elec       q    Type
REMARK                         _______ _______ _______ _____ _____    ______ ____
ROOT
ATOM      1  N   UNL     1       1.806  -1.669  -0.050  0.00  0.00    -0.276 N 
ATOM      2  C   UNL     1       3.143  -1.848  -0.056  0.00  0.00    +0.263 A 
ATOM      3  O   UNL     1       3.616  -2.968  -0.068  0.00  0.00    -0.267 OA
ATOM      4  C   UNL     1       4.019  -0.663  -0.047  0.00  0.00    +0.064 A 
ATOM      5  C   UNL     1       5.407  -0.790  -0.053  0.00  0.00    +0.015 A 
ATOM      6  C   UNL     1       6.195   0.343  -0.046  0.00  0.00    +0.001 A 
ATOM      7  C   UNL     1       5.613   1.600  -0.031  0.00  0.00    +0.002 A 
ATOM      8  C   UNL     1       4.239   1.739  -0.025  0.00  0.00    +0.027 A 
ATOM      9  C   UNL     1       3.432   0.611  -0.033  0.00  0.00    +0.064 A 
ATOM     10  N   UNL     1       2.043   0.723  -0.027  0.00  0.00    -0.256 N 
ATOM     11  C   UNL     1       1.256  -0.396  -0.035  0.00  0.00    +0.240 A 
ATOM     12  N   UNL     1       0.001  -0.004  -0.026  0.00  0.00    -0.109 NA
ATOM     13  N   UNL     1      -0.018   1.396  -0.012  0.00  0.00    -0.120 NA
ATOM     14  C   UNL     1       1.223   1.819  -0.013  0.00  0.00    +0.198 A 
ENDROOT
BRANCH   1  15
ATOM     15  C   UNL     1       0.922  -2.837  -0.058  0.00  0.00    +0.131 C 
BRANCH  15  17
ATOM     16  C   UNL     1       1.892  -3.689  -2.196  0.00  0.00    +0.009 C 
ATOM     17  C   UNL     1       0.608  -3.229  -1.503  0.00  0.00    +0.003 C 
ATOM     18  C   UNL     1      -0.413  -4.369  -1.511  0.00  0.00    +0.009 C 
ENDBRANCH  15  17
ENDBRANCH   1  15
BRANCH  14  19
ATOM     19  S   UNL     1       1.744   3.502   0.001  0.00  0.00    -0.076 S 
BRANCH  19  20
ATOM     20  C   UNL     1       0.192   4.441   0.016  0.00  0.00    +0.173 C 
BRANCH  20  21
ATOM     21  C   UNL     1       0.498   5.917   0.029  0.00  0.00    +0.227 C 
ATOM     22  O   UNL     1       1.649   6.297   0.028  0.00  0.00    -0.275 OA
ATOM     23  N   UNL     1      -0.508   6.814   0.042  0.00  0.00    -0.285 N 
ATOM     24  H   UNL     1      -1.551   6.471  -0.034  0.00  0.00    +0.155 HD
BRANCH  23  25
ATOM     25  C   UNL     1      -0.226   8.181   0.151  0.00  0.00    +0.034 A 
ATOM     26  C   UNL     1      -1.085   9.014   0.855  0.00  0.00    +0.026 A 
ATOM     27  C   UNL     1      -0.802  10.361   0.967  0.00  0.00    +0.040 A 
ATOM     28  C   UNL     1       0.332  10.883   0.368  0.00  0.00    +0.124 A 
ATOM     29  C   UNL     1       1.187  10.055  -0.339  0.00  0.00    +0.040 A 
ATOM     30  C   UNL     1       0.910   8.706  -0.449  0.00  0.00    +0.026 A 
ATOM     31  F   UNL     1       0.604  12.202   0.474  0.00  0.00    -0.205 F 
ENDBRANCH  23  25
ENDBRANCH  20  21
ENDBRANCH  19  20
ENDBRANCH  14  19
TORSDOF 6
