REMARK  Name = ZINC13610052
REMARK  4 active torsions:
REMARK  status: ('A' for Active; 'I' for Inactive)
REMARK    1  A    between atoms: C_4  and  S_7
REMARK    2  A    between atoms: S_7  and  N_10
REMARK    3  A    between atoms: C_18  and  C_20
REMARK    4  A    between atoms: N_22  and  C_23
REMARK                            x       y       z     vdW  Elec       q    Type
REMARK                         _______ _______ _______ _____ _____    ______ ____
ROOT
ATOM      1  N   UNL     1       4.345  -1.062  -1.629  0.00  0.00    -0.203 N 
ATOM      2  C   UNL     1       4.013  -2.320  -2.310  0.00  0.00    +0.132 C 
ATOM      3  C   UNL     1       5.241  -2.768  -3.106  0.00  0.00    +0.025 C 
ATOM      4  C   UNL     1       5.548  -1.719  -4.175  0.00  0.00    +0.038 C 
ATOM      5  C   UNL     1       5.614  -0.345  -3.561  0.00  0.00    -0.024 A 
ATOM      6  C   UNL     1       5.017  -0.068  -2.337  0.00  0.00    +0.054 A 
ATOM      7  C   UNL     1       5.085   1.216  -1.798  0.00  0.00    +0.026 A 
ATOM      8  C   UNL     1       5.745   2.216  -2.472  0.00  0.00    +0.015 A 
ATOM      9  C   UNL     1       6.350   1.942  -3.702  0.00  0.00    +0.037 A 
ATOM     10  C   UNL     1       6.279   0.655  -4.240  0.00  0.00    +0.018 A 
ENDROOT
BRANCH   9  11
ATOM     11  C   UNL     1       7.063   3.009  -4.430  0.00  0.00    +0.244 C 
ATOM     12  O   UNL     1       7.589   2.769  -5.500  0.00  0.00    -0.270 OA
ATOM     13  N   UNL     1       7.131   4.250  -3.909  0.00  0.00    -0.308 N 
ATOM     14  H   UNL     1       6.712   4.442  -3.056  0.00  0.00    +0.149 HD
BRANCH  13  15
ATOM     15  C   UNL     1       7.839   5.310  -4.632  0.00  0.00    +0.073 C 
ATOM     16  C   UNL     1       9.331   5.247  -4.298  0.00  0.00    +0.022 C 
ATOM     17  C   UNL     1      10.118   6.063  -5.324  0.00  0.00    +0.002 C 
ATOM     18  C   UNL     1       9.591   5.763  -6.729  0.00  0.00    +0.000 C 
ATOM     19  C   UNL     1       8.915   7.012  -7.298  0.00  0.00    +0.000 C 
ATOM     20  C   UNL     1       7.542   7.188  -6.646  0.00  0.00    +0.000 C 
ATOM     21  C   UNL     1       7.717   7.733  -5.227  0.00  0.00    +0.002 C 
ATOM     22  C   UNL     1       7.281   6.672  -4.215  0.00  0.00    +0.022 C 
ENDBRANCH  13  15
ENDBRANCH   9  11
BRANCH   1  23
ATOM     23  S   UNL     1       3.934  -0.832  -0.042  0.00  0.00    +0.075 S 
ATOM     24  O   UNL     1       4.899   0.058   0.503  0.00  0.00    -0.150 OA
ATOM     25  O   UNL     1       3.690  -2.120   0.506  0.00  0.00    -0.150 OA
BRANCH  23  29
ATOM     26  C   UNL     1      -0.024   1.365   0.010  0.00  0.00    +0.000 A 
ATOM     27  C   UNL     1       1.161   2.076   0.001  0.00  0.00    +0.002 A 
ATOM     28  C   UNL     1       2.370   1.406  -0.015  0.00  0.00    +0.029 A 
ATOM     29  C   UNL     1       2.393   0.024  -0.022  0.00  0.00    +0.109 A 
ATOM     30  C   UNL     1       1.208  -0.688  -0.013  0.00  0.00    +0.029 A 
ATOM     31  C   UNL     1      -0.001  -0.017   0.003  0.00  0.00    +0.002 A 
ENDBRANCH  23  29
ENDBRANCH   1  23
TORSDOF 4
