REMARK  Name = ZINC35746034
REMARK  6 active torsions:
REMARK  status: ('A' for Active; 'I' for Inactive)
REMARK    1  A    between atoms: C_1  and  C_2
REMARK    2  A    between atoms: C_3  and  C_30
REMARK    3  A    between atoms: C_4  and  C_13
REMARK    4  A    between atoms: C_16  and  N_19
REMARK    5  A    between atoms: N_22  and  C_23
REMARK    6  A    between atoms: N_32  and  C_33
REMARK                            x       y       z     vdW  Elec       q    Type
REMARK                         _______ _______ _______ _____ _____    ______ ____
ROOT
ATOM      1  C   UNL     1      -0.407   0.791  -0.642  0.00  0.00    +0.064 C 
ATOM      2  C   UNL     1      -0.350  -0.709  -0.514  0.00  0.00    +0.025 C 
ATOM      3  C   UNL     1      -1.503  -1.413  -0.340  0.00  0.00    +0.058 C 
ATOM      4  C   UNL     1      -1.448  -2.919  -0.285  0.00  0.00    +0.142 C 
ATOM      5  N   UNL     1      -0.108  -3.330   0.171  0.00  0.00    -0.300 N 
ATOM      6  C   UNL     1      -0.011  -4.482   1.060  0.00  0.00    +0.109 C 
ATOM      7  C   UNL     1       1.168  -5.387   0.736  0.00  0.00    +0.030 C 
ATOM      8  C   UNL     1       2.476  -4.627   0.997  0.00  0.00    +0.078 C 
ATOM      9  S   UNL     1       2.591  -3.300  -0.242  0.00  0.00    -0.092 S 
ATOM     10  C   UNL     1       0.972  -2.599  -0.224  0.00  0.00    +0.135 C 
ATOM     11  N   UNL     1       0.826  -1.327  -0.578  0.00  0.00    -0.341 N 
ATOM     12  H   UNL     1       1.600  -0.833  -0.888  0.00  0.00    +0.167 HD
ENDROOT
BRANCH   4  13
ATOM     13  C   UNL     1      -1.713  -3.485  -1.656  0.00  0.00    -0.022 A 
ATOM     14  C   UNL     1      -0.698  -3.522  -2.595  0.00  0.00    +0.007 A 
ATOM     15  C   UNL     1      -0.938  -4.041  -3.853  0.00  0.00    +0.024 A 
ATOM     16  C   UNL     1      -2.199  -4.524  -4.174  0.00  0.00    +0.035 A 
ATOM     17  C   UNL     1      -3.216  -4.485  -3.229  0.00  0.00    +0.024 A 
ATOM     18  C   UNL     1      -2.969  -3.970  -1.971  0.00  0.00    +0.007 A 
BRANCH  16  19
ATOM     19  N   UNL     1      -2.446  -5.049  -5.447  0.00  0.00    -0.269 N 
ATOM     20  C   UNL     1      -1.471  -5.709  -6.104  0.00  0.00    +0.308 C 
ATOM     21  O   UNL     1      -0.410  -5.931  -5.553  0.00  0.00    -0.252 OA
ATOM     22  N   UNL     1      -1.673  -6.123  -7.371  0.00  0.00    -0.267 N 
ATOM     23  H   UNL     1      -3.318  -4.939  -5.857  0.00  0.00    +0.156 HD
ATOM     24  H   UNL     1      -2.486  -5.876  -7.838  0.00  0.00    +0.156 HD
BRANCH  22  25
ATOM     25  C   UNL     1      -0.708  -6.910  -8.012  0.00  0.00    +0.070 A 
ATOM     26  C   UNL     1       0.209  -7.634  -7.264  0.00  0.00    +0.026 A 
ATOM     27  C   UNL     1       1.160  -8.409  -7.899  0.00  0.00    +0.002 A 
ATOM     28  C   UNL     1       1.199  -8.465  -9.281  0.00  0.00    +0.003 A 
ATOM     29  C   UNL     1       0.288  -7.745 -10.031  0.00  0.00    +0.040 A 
ATOM     30  C   UNL     1      -0.670  -6.972  -9.401  0.00  0.00    +0.145 A 
ATOM     31  F   UNL     1      -1.565  -6.273 -10.134  0.00  0.00    -0.204 F 
ENDBRANCH  22  25
ENDBRANCH  16  19
ENDBRANCH   4  13
BRANCH   3  32
ATOM     32  C   UNL     1      -2.732  -0.741  -0.213  0.00  0.00    +0.248 C 
ATOM     33  O   UNL     1      -2.770   0.476  -0.258  0.00  0.00    -0.270 OA
ATOM     34  N   UNL     1      -3.870  -1.444  -0.041  0.00  0.00    -0.282 N 
ATOM     35  H   UNL     1      -3.832  -2.407   0.069  0.00  0.00    +0.155 HD
BRANCH  34  36
ATOM     36  C   UNL     1      -5.103  -0.785  -0.023  0.00  0.00    +0.034 A 
ATOM     37  C   UNL     1      -5.299   0.347  -0.803  0.00  0.00    +0.023 A 
ATOM     38  C   UNL     1      -6.518   0.995  -0.783  0.00  0.00    +0.002 A 
ATOM     39  C   UNL     1      -7.543   0.519   0.015  0.00  0.00    +0.000 A 
ATOM     40  C   UNL     1      -7.351  -0.607   0.794  0.00  0.00    +0.002 A 
ATOM     41  C   UNL     1      -6.136  -1.264   0.773  0.00  0.00    +0.023 A 
ENDBRANCH  34  36
ENDBRANCH   3  32
TORSDOF 5
