REMARK  Name = ZINC25058555
REMARK  8 active torsions:
REMARK  status: ('A' for Active; 'I' for Inactive)
REMARK    1  A    between atoms: C_1  and  C_2
REMARK    2  A    between atoms: C_7  and  C_8
REMARK    3  A    between atoms: C_9  and  C_19
REMARK    4  A    between atoms: N_11  and  C_13
REMARK    5  A    between atoms: C_24  and  C_27
REMARK    6  A    between atoms: C_27  and  N_28
REMARK    7  A    between atoms: C_30  and  C_37
REMARK    8  A    between atoms: C_33  and  C_36
REMARK                            x       y       z     vdW  Elec       q    Type
REMARK                         _______ _______ _______ _____ _____    ______ ____
ROOT
ATOM      1  C   UNL     1       0.245   0.013   2.522  0.00  0.00    +0.105 A 
ATOM      2  C   UNL     1      -0.051  -0.573   3.833  0.00  0.00    +0.083 A 
ATOM      3  C   UNL     1      -0.224   0.484   4.702  0.00  0.00    +0.128 A 
ATOM      4  N   UNL     1      -0.054   1.622   4.006  0.00  0.00    -0.239 N 
ATOM      5  N   UNL     1       0.238   1.318   2.674  0.00  0.00    -0.166 NA
ENDROOT
BRANCH   2   6
ATOM      6  C   UNL     1      -0.144  -2.006   4.158  0.00  0.00    +0.253 C 
ATOM      7  O   UNL     1      -0.073  -2.836   3.272  0.00  0.00    -0.270 OA
ATOM      8  N   UNL     1      -0.309  -2.398   5.437  0.00  0.00    -0.261 N 
ATOM      9  C   UNL     1      -0.397  -3.750   5.743  0.00  0.00    +0.165 A 
ATOM     10  N   UNL     1      -0.561  -4.313   6.921  0.00  0.00    -0.228 NA
ATOM     11  C   UNL     1      -0.626  -5.625   7.047  0.00  0.00    +0.064 A 
ATOM     12  C   UNL     1      -0.516  -6.359   5.913  0.00  0.00    +0.073 A 
ATOM     13  S   UNL     1      -0.326  -5.066   4.697  0.00  0.00    -0.060 S 
ATOM     14  H   UNL     1      -0.365  -1.736   6.143  0.00  0.00    +0.157 HD
BRANCH  11  15
ATOM     15  C   UNL     1      -0.814  -6.278   8.392  0.00  0.00    +0.140 C 
BRANCH  15  16
ATOM     16  N   UNL     1       0.491  -6.433   9.048  0.00  0.00    -0.292 NA
ATOM     17  C   UNL     1       1.337  -7.388   8.318  0.00  0.00    +0.116 C 
ATOM     18  C   UNL     1       2.706  -7.474   9.000  0.00  0.00    +0.130 C 
ATOM     19  O   UNL     1       2.528  -7.845  10.370  0.00  0.00    -0.371 OA
ATOM     20  C   UNL     1       1.709  -6.936  11.111  0.00  0.00    +0.130 C 
ATOM     21  C   UNL     1       0.331  -6.845  10.450  0.00  0.00    +0.116 C 
ATOM     22  C   UNL     1       1.556  -7.441  12.547  0.00  0.00    +0.039 C 
ATOM     23  C   UNL     1       3.400  -6.113   8.924  0.00  0.00    +0.039 C 
ENDBRANCH  15  16
ENDBRANCH  11  15
ENDBRANCH   2   6
BRANCH   1  30
ATOM     24  C   UNL     1      -1.229   0.689   0.126  0.00  0.00    +0.044 C 
ATOM     25  C   UNL     1      -0.197  -0.408   0.105  0.00  0.00    -0.041 A 
ATOM     26  C   UNL     1       0.057  -1.097  -1.064  0.00  0.00    +0.004 A 
ATOM     27  C   UNL     1       1.004  -2.104  -1.085  0.00  0.00    +0.000 A 
ATOM     28  C   UNL     1       1.702  -2.429   0.064  0.00  0.00    +0.001 A 
ATOM     29  C   UNL     1       1.458  -1.747   1.239  0.00  0.00    +0.010 A 
ATOM     30  C   UNL     1       0.508  -0.727   1.264  0.00  0.00    +0.006 A 
ENDBRANCH   1  30
BRANCH   4  31
ATOM     31  C   UNL     1      -0.150   2.915   4.537  0.00  0.00    +0.065 A 
ATOM     32  C   UNL     1      -0.436   3.095   5.884  0.00  0.00    +0.028 A 
ATOM     33  C   UNL     1      -0.529   4.370   6.405  0.00  0.00    +0.002 A 
ATOM     34  C   UNL     1      -0.339   5.468   5.586  0.00  0.00    +0.000 A 
ATOM     35  C   UNL     1      -0.055   5.293   4.244  0.00  0.00    +0.002 A 
ATOM     36  C   UNL     1       0.046   4.019   3.719  0.00  0.00    +0.028 A 
ENDBRANCH   4  31
TORSDOF 5
