REMARK  Name = ZINC02841308
REMARK  12 active torsions:
REMARK  status: ('A' for Active; 'I' for Inactive)
REMARK    1  A    between atoms: C_1  and  C_2
REMARK    2  A    between atoms: C_6  and  N_8
REMARK    3  A    between atoms: C_20  and  S_21
REMARK    4  A    between atoms: S_21  and  C_22
REMARK    5  A    between atoms: C_22  and  C_23
REMARK    6  A    between atoms: N_25  and  C_26
REMARK    7  A    between atoms: C_26  and  C_28
REMARK    8  A    between atoms: C_26  and  C_29
REMARK    9  A    between atoms: C_29  and  C_30
REMARK   10  A    between atoms: C_38  and  C_41
REMARK   11  A    between atoms: C_41  and  C_43
REMARK   12  A    between atoms: C_41  and  C_44
REMARK                            x       y       z     vdW  Elec       q    Type
REMARK                         _______ _______ _______ _____ _____    ______ ____
ROOT
ATOM      1  N   UNL     1      -4.082   7.100   9.219  0.00  0.00    -0.245 N 
ATOM      2  C   UNL     1      -3.333   6.588  10.210  0.00  0.00    +0.268 A 
ATOM      3  O   UNL     1      -2.990   7.290  11.143  0.00  0.00    -0.266 OA
ATOM      4  C   UNL     1      -2.927   5.164  10.162  0.00  0.00    +0.075 A 
ATOM      5  C   UNL     1      -2.123   4.422  11.132  0.00  0.00    -0.018 A 
ATOM      6  C   UNL     1      -1.898   3.122  10.844  0.00  0.00    +0.021 A 
ATOM      7  S   UNL     1      -2.729   2.851   9.307  0.00  0.00    -0.072 S 
ATOM      8  C   UNL     1      -3.362   4.437   9.058  0.00  0.00    +0.102 A 
ATOM      9  N   UNL     1      -4.134   5.004   8.069  0.00  0.00    -0.249 N 
ATOM     10  C   UNL     1      -4.487   6.326   8.143  0.00  0.00    +0.245 A 
ATOM     11  N   UNL     1      -5.208   6.613   7.085  0.00  0.00    -0.109 NA
ATOM     12  N   UNL     1      -5.317   5.454   6.306  0.00  0.00    -0.120 NA
ATOM     13  C   UNL     1      -4.661   4.494   6.912  0.00  0.00    +0.198 A 
ATOM     14  C   UNL     1      -1.111   2.157  11.674  0.00  0.00    +0.203 C 
ATOM     15  O   UNL     1      -0.913   2.750  12.968  0.00  0.00    -0.371 OA
ATOM     16  C   UNL     1      -0.439   4.099  12.913  0.00  0.00    +0.126 C 
ATOM     17  C   UNL     1      -1.547   5.028  12.407  0.00  0.00    +0.068 C 
ENDROOT
BRANCH   1  23
ATOM     18  C   UNL     1      -3.149  11.806   8.141  0.00  0.00    +0.044 C 
ATOM     19  C   UNL     1      -4.026  10.749   8.760  0.00  0.00    -0.048 A 
ATOM     20  C   UNL     1      -5.207  11.109   9.384  0.00  0.00    +0.003 A 
ATOM     21  C   UNL     1      -6.014  10.142   9.953  0.00  0.00    +0.002 A 
ATOM     22  C   UNL     1      -5.644   8.812   9.900  0.00  0.00    +0.026 A 
ATOM     23  C   UNL     1      -4.460   8.447   9.274  0.00  0.00    +0.053 A 
ATOM     24  C   UNL     1      -3.648   9.422   8.708  0.00  0.00    +0.029 A 
ENDBRANCH   1  23
BRANCH  16  25
ATOM     25  C   UNL     1      -0.009   4.542  14.312  0.00  0.00    +0.012 C 
ATOM     26  C   UNL     1       1.191   3.708  14.766  0.00  0.00    +0.010 C 
ATOM     27  C   UNL     1      -1.169   4.341  15.290  0.00  0.00    +0.010 C 
ENDBRANCH  16  25
BRANCH  13  28
ATOM     28  S   UNL     1      -4.493   2.836   6.340  0.00  0.00    -0.076 S 
BRANCH  28  29
ATOM     29  C   UNL     1      -5.418   2.814   4.779  0.00  0.00    +0.173 C 
BRANCH  29  30
ATOM     30  C   UNL     1      -5.354   1.434   4.177  0.00  0.00    +0.224 C 
ATOM     31  O   UNL     1      -4.744   0.552   4.744  0.00  0.00    -0.275 OA
ATOM     32  N   UNL     1      -5.973   1.180   3.007  0.00  0.00    -0.312 N 
ATOM     33  H   UNL     1      -6.461   1.885   2.554  0.00  0.00    +0.149 HD
BRANCH  32  34
ATOM     34  C   UNL     1      -5.911  -0.162   2.422  0.00  0.00    +0.074 C 
ATOM     35  C   UNL     1      -7.013  -1.034   3.027  0.00  0.00    +0.028 C 
BRANCH  34  36
ATOM     36  C   UNL     1      -6.109  -0.067   0.908  0.00  0.00    +0.057 C 
BRANCH  36  37
ATOM     37  C   UNL     1      -4.958   0.689   0.296  0.00  0.00    -0.046 A 
ATOM     38  C   UNL     1      -3.831   0.009  -0.127  0.00  0.00    +0.004 A 
ATOM     39  C   UNL     1      -2.777   0.701  -0.693  0.00  0.00    +0.000 A 
ATOM     40  C   UNL     1      -2.848   2.075  -0.831  0.00  0.00    +0.000 A 
ATOM     41  C   UNL     1      -3.972   2.756  -0.403  0.00  0.00    +0.000 A 
ATOM     42  C   UNL     1      -5.026   2.063   0.163  0.00  0.00    +0.004 A 
ENDBRANCH  36  37
ENDBRANCH  34  36
ENDBRANCH  32  34
ENDBRANCH  29  30
ENDBRANCH  28  29
ENDBRANCH  13  28
TORSDOF 8
