REMARK  Name = ZINC39710720
REMARK  12 active torsions:
REMARK  status: ('A' for Active; 'I' for Inactive)
REMARK    1  A    between atoms: C_1  and  C_2
REMARK    2  A    between atoms: C_7  and  C_14
REMARK    3  A    between atoms: C_14  and  C_16
REMARK    4  A    between atoms: C_14  and  N_25
REMARK    5  A    between atoms: N_20  and  C_21
REMARK    6  A    between atoms: C_21  and  C_22
REMARK    7  A    between atoms: C_22  and  O_23
REMARK    8  A    between atoms: O_23  and  C_24
REMARK    9  A    between atoms: N_25  and  C_26
REMARK   10  A    between atoms: N_25  and  C_34
REMARK   11  A    between atoms: C_26  and  C_27
REMARK   12  A    between atoms: C_34  and  C_35
REMARK                            x       y       z     vdW  Elec       q    Type
REMARK                         _______ _______ _______ _____ _____    ______ ____
ROOT
ATOM      1  C   UNL     1       1.701  -5.769   1.128  0.00  0.00    +0.019 C 
ENDROOT
BRANCH   1   8
ATOM      2  C   UNL     1      -1.903   0.652  -0.283  0.00  0.00    +0.044 C 
ATOM      3  C   UNL     1      -1.455  -0.784  -0.196  0.00  0.00    -0.049 A 
ATOM      4  C   UNL     1      -1.523  -1.578  -1.341  0.00  0.00    +0.004 A 
ATOM      5  C   UNL     1      -1.133  -2.879  -1.325  0.00  0.00    +0.010 A 
ATOM      6  C   UNL     1      -0.634  -3.450  -0.073  0.00  0.00    -0.007 A 
ATOM      7  C   UNL     1      -0.231  -4.751  -0.009  0.00  0.00    -0.006 C 
ATOM      8  C   UNL     1       0.273  -5.258   1.328  0.00  0.00    +0.092 C 
ATOM      9  C   UNL     1       0.288  -4.280   2.481  0.00  0.00    +0.223 C 
ATOM     10  O   UNL     1       0.682  -4.633   3.576  0.00  0.00    -0.275 OA
ATOM     11  N   UNL     1      -0.129  -3.039   2.294  0.00  0.00    -0.285 N 
ATOM     12  C   UNL     1      -0.573  -2.589   1.121  0.00  0.00    +0.041 A 
ATOM     13  C   UNL     1      -0.997  -1.253   0.994  0.00  0.00    +0.027 A 
ATOM     14  H   UNL     1      -0.111  -2.427   3.047  0.00  0.00    +0.155 HD
ENDBRANCH   1   8
BRANCH   1  15
ATOM     15  C   UNL     1       2.598  -4.619   0.750  0.00  0.00    +0.139 A 
ATOM     16  N   UNL     1       3.067  -3.695   1.553  0.00  0.00    -0.115 NA
ATOM     17  N   UNL     1       3.793  -2.892   0.855  0.00  0.00    -0.023 NA
ATOM     18  N   UNL     1       3.798  -3.279  -0.373  0.00  0.00    -0.044 NA
ATOM     19  N   UNL     1       3.077  -4.343  -0.477  0.00  0.00    -0.229 N 
BRANCH  19  20
ATOM     20  C   UNL     1       2.825  -5.107  -1.702  0.00  0.00    +0.175 C 
BRANCH  20  21
ATOM     21  C   UNL     1       1.696  -4.444  -2.493  0.00  0.00    +0.183 C 
BRANCH  21  22
ATOM     22  O   UNL     1       1.436  -5.200  -3.677  0.00  0.00    -0.381 OA
ATOM     23  C   UNL     1       0.392  -4.663  -4.492  0.00  0.00    +0.194 C 
ENDBRANCH  21  22
ENDBRANCH  20  21
ENDBRANCH  19  20
ENDBRANCH   1  15
BRANCH   1  24
ATOM     24  N   UNL     1       2.182  -6.376   2.376  0.00  0.00    +0.394 N 
ATOM     25  H   UNL     1       2.259  -5.665   3.088  0.00  0.00    -0.080 HD
BRANCH  24  26
ATOM     26  C   UNL     1       3.500  -6.984   2.148  0.00  0.00    -0.041 C 
BRANCH  26  27
ATOM     27  C   UNL     1       3.395  -8.012   1.051  0.00  0.00    -0.064 A 
ATOM     28  C   UNL     1       2.992  -9.301   1.347  0.00  0.00    +0.004 A 
ATOM     29  C   UNL     1       2.895 -10.244   0.342  0.00  0.00    +0.038 A 
ATOM     30  C   UNL     1       3.202  -9.897  -0.963  0.00  0.00    +0.123 A 
ATOM     31  C   UNL     1       3.606  -8.606  -1.259  0.00  0.00    +0.038 A 
ATOM     32  C   UNL     1       3.697  -7.664  -0.253  0.00  0.00    +0.004 A 
ATOM     33  F   UNL     1       3.108 -10.819  -1.947  0.00  0.00    -0.205 F 
ENDBRANCH  26  27
ENDBRANCH  24  26
BRANCH  24  34
ATOM     34  C   UNL     1       1.235  -7.409   2.816  0.00  0.00    -0.002 C 
BRANCH  34  35
ATOM     35  C   UNL     1       1.650  -7.927   4.169  0.00  0.00    +0.089 A 
ATOM     36  C   UNL     1       1.185  -7.492   5.354  0.00  0.00    +0.042 A 
ATOM     37  C   UNL     1       1.839  -8.249   6.353  0.00  0.00    +0.041 A 
ATOM     38  C   UNL     1       2.665  -9.101   5.719  0.00  0.00    +0.195 A 
ATOM     39  O   UNL     1       2.541  -8.905   4.396  0.00  0.00    -0.470 OA
ENDBRANCH  34  35
ENDBRANCH  24  34
ENDBRANCH   1  24
TORSDOF 10
