REMARK  Name = ZINC06197019
REMARK  11 active torsions:
REMARK  status: ('A' for Active; 'I' for Inactive)
REMARK    1  A    between atoms: C_1  and  C_2
REMARK    2  A    between atoms: C_2  and  O_3
REMARK    3  A    between atoms: O_3  and  C_4
REMARK    4  A    between atoms: C_11  and  C_16
REMARK    5  A    between atoms: C_16  and  C_18
REMARK    6  A    between atoms: C_16  and  N_68
REMARK    7  A    between atoms: N_22  and  C_23
REMARK    8  A    between atoms: C_23  and  C_24
REMARK    9  A    between atoms: C_27  and  O_30
REMARK   10  A    between atoms: O_30  and  C_31
REMARK   11  A    between atoms: C_34  and  C_37
REMARK                            x       y       z     vdW  Elec       q    Type
REMARK                         _______ _______ _______ _____ _____    ______ ____
ROOT
ATOM      1  C   UNL     1       2.462   1.480   2.196  0.00  0.00    +0.039 C 
ENDROOT
BRANCH   1   9
ATOM      2  C   UNL     1       5.775  -3.502   0.574  0.00  0.00    +0.121 A 
ATOM      3  C   UNL     1       6.004  -3.958   1.871  0.00  0.00    +0.047 A 
ATOM      4  C   UNL     1       5.502  -3.272   2.955  0.00  0.00    +0.030 A 
ATOM      5  C   UNL     1       4.761  -2.112   2.760  0.00  0.00    +0.049 A 
ATOM      6  C   UNL     1       4.528  -1.647   1.452  0.00  0.00    +0.002 A 
ATOM      7  C   UNL     1       5.042  -2.353   0.359  0.00  0.00    +0.055 A 
ATOM      8  C   UNL     1       3.741  -0.427   1.262  0.00  0.00    +0.017 A 
ATOM      9  C   UNL     1       3.271   0.219   2.357  0.00  0.00    +0.011 A 
ATOM     10  C   UNL     1       3.533  -0.288   3.648  0.00  0.00    +0.251 A 
ATOM     11  O   UNL     1       3.097   0.306   4.619  0.00  0.00    -0.268 OA
ATOM     12  N   UNL     1       4.250  -1.410   3.833  0.00  0.00    -0.322 N 
ATOM     13  H   UNL     1       4.416  -1.741   4.762  0.00  0.00    +0.169 HD
BRANCH   2  14
ATOM     14  O   UNL     1       6.277  -4.192  -0.484  0.00  0.00    -0.492 OA
BRANCH  14  16
ATOM     15  C   UNL     1       7.507  -6.009  -1.498  0.00  0.00    +0.048 C 
ATOM     16  C   UNL     1       7.027  -5.373  -0.192  0.00  0.00    +0.225 C 
ENDBRANCH  14  16
ENDBRANCH   2  14
ENDBRANCH   1   9
BRANCH   1  23
ATOM     17  C   UNL     1       4.507   2.733   2.523  0.00  0.00    -0.077 C 
ATOM     18  C   UNL     1       5.185   3.779   3.411  0.00  0.00    -0.015 C 
ATOM     19  C   UNL     1       4.441   5.111   3.283  0.00  0.00    -0.018 C 
ATOM     20  C   UNL     1       2.974   4.906   3.672  0.00  0.00    -0.015 C 
ATOM     21  C   UNL     1       2.360   3.828   2.776  0.00  0.00    -0.077 C 
ATOM     22  C   UNL     1       5.078   6.144   4.215  0.00  0.00    +0.007 C 
ATOM     23  N   UNL     1       3.106   2.566   2.964  0.00  0.00    +0.389 N 
ATOM     24  H   UNL     1       3.097   2.319   3.961  0.00  0.00    -0.080 HD
ENDBRANCH   1  23
BRANCH   1  25
ATOM     25  C   UNL     1       2.380   1.841   0.735  0.00  0.00    +0.143 A 
ATOM     26  N   UNL     1       3.351   2.305  -0.012  0.00  0.00    -0.115 NA
ATOM     27  N   UNL     1       2.885   2.494  -1.198  0.00  0.00    -0.023 NA
ATOM     28  N   UNL     1       1.643   2.156  -1.229  0.00  0.00    -0.044 NA
ATOM     29  N   UNL     1       1.295   1.745  -0.057  0.00  0.00    -0.226 N 
BRANCH  29  30
ATOM     30  C   UNL     1      -0.033   1.270   0.340  0.00  0.00    +0.182 C 
BRANCH  30  31
ATOM     31  C   UNL     1      -0.157  -0.198   0.020  0.00  0.00    -0.026 A 
ATOM     32  C   UNL     1      -0.534  -0.598  -1.248  0.00  0.00    +0.009 A 
ATOM     33  C   UNL     1      -0.643  -1.943  -1.545  0.00  0.00    +0.046 A 
ATOM     34  C   UNL     1      -0.385  -2.892  -0.566  0.00  0.00    +0.120 A 
ATOM     35  C   UNL     1      -0.012  -2.487   0.707  0.00  0.00    +0.046 A 
ATOM     36  C   UNL     1       0.101  -1.141   0.998  0.00  0.00    +0.009 A 
BRANCH  34  37
ATOM     37  O   UNL     1      -0.496  -4.215  -0.855  0.00  0.00    -0.495 OA
ATOM     38  C   UNL     1      -0.884  -4.558  -2.187  0.00  0.00    +0.277 C 
ENDBRANCH  34  37
ENDBRANCH  30  31
ENDBRANCH  29  30
ENDBRANCH   1  25
TORSDOF 8
