REMARK  Name = ZINC04283064
REMARK  13 active torsions:
REMARK  status: ('A' for Active; 'I' for Inactive)
REMARK    1  A    between atoms: C_1  and  C_2
REMARK    2  A    between atoms: C_2  and  C_3
REMARK    3  A    between atoms: C_3  and  C_4
REMARK    4  A    between atoms: C_4  and  O_5
REMARK    5  A    between atoms: O_5  and  C_6
REMARK    6  A    between atoms: C_9  and  C_12
REMARK    7  A    between atoms: N_14  and  C_15
REMARK    8  A    between atoms: C_15  and  C_16
REMARK    9  A    between atoms: N_18  and  N_19
REMARK   10  A    between atoms: C_20  and  C_21
REMARK   11  A    between atoms: N_23  and  C_33
REMARK   12  A    between atoms: C_25  and  C_26
REMARK   13  A    between atoms: C_29  and  C_32
REMARK                            x       y       z     vdW  Elec       q    Type
REMARK                         _______ _______ _______ _____ _____    ______ ____
ROOT
ATOM      1  C   UNL     1       3.861  -4.790  -0.436  0.00  0.00    +0.249 C 
ATOM      2  O   UNL     1       4.761  -4.003  -0.647  0.00  0.00    -0.272 OA
ATOM      3  N   UNL     1       4.139  -6.092  -0.231  0.00  0.00    -0.206 N 
ATOM      4  H   UNL     1       3.420  -6.721  -0.062  0.00  0.00    +0.177 HD
ENDROOT
BRANCH   3   5
ATOM      5  N   UNL     1       5.467  -6.538  -0.261  0.00  0.00    -0.188 NA
ATOM      6  C   UNL     1       5.735  -7.793  -0.064  0.00  0.00    +0.142 C 
BRANCH   6   7
ATOM      7  C   UNL     1       7.132  -8.262  -0.096  0.00  0.00    +0.040 A 
ATOM      8  C   UNL     1       7.560  -9.558  -0.010  0.00  0.00    +0.124 A 
ATOM      9  N   UNL     1       8.908  -9.558  -0.081  0.00  0.00    -0.239 N 
ATOM     10  N   UNL     1       9.367  -8.243  -0.206  0.00  0.00    -0.166 NA
ATOM     11  C   UNL     1       8.332  -7.431  -0.219  0.00  0.00    +0.102 A 
BRANCH  11  12
ATOM     12  C   UNL     1       8.372  -5.954  -0.337  0.00  0.00    +0.003 A 
ATOM     13  C   UNL     1       9.216  -5.349  -1.267  0.00  0.00    +0.010 A 
ATOM     14  C   UNL     1       9.245  -3.973  -1.376  0.00  0.00    +0.004 A 
ATOM     15  C   UNL     1       8.448  -3.195  -0.557  0.00  0.00    -0.050 A 
ATOM     16  C   UNL     1       7.613  -3.789   0.372  0.00  0.00    +0.004 A 
ATOM     17  C   UNL     1       7.571  -5.164   0.487  0.00  0.00    +0.010 A 
ATOM     18  C   UNL     1       8.489  -1.693  -0.676  0.00  0.00    +0.044 C 
ENDBRANCH  11  12
BRANCH   9  19
ATOM     19  C   UNL     1       9.721 -10.697  -0.031  0.00  0.00    +0.065 A 
ATOM     20  C   UNL     1       9.148 -11.955   0.101  0.00  0.00    +0.028 A 
ATOM     21  C   UNL     1       9.952 -13.077   0.144  0.00  0.00    +0.002 A 
ATOM     22  C   UNL     1      11.327 -12.948   0.067  0.00  0.00    +0.000 A 
ATOM     23  C   UNL     1      11.900 -11.696  -0.059  0.00  0.00    +0.002 A 
ATOM     24  C   UNL     1      11.101 -10.571  -0.108  0.00  0.00    +0.028 A 
ENDBRANCH   9  19
ENDBRANCH   6   7
ENDBRANCH   3   5
BRANCH   1  25
ATOM     25  C   UNL     1       2.433  -4.310  -0.404  0.00  0.00    +0.202 C 
BRANCH  25  28
ATOM     26  C   UNL     1       1.217  -2.215  -0.671  0.00  0.00    +0.244 C 
ATOM     27  O   UNL     1       0.183  -2.825  -0.480  0.00  0.00    -0.270 OA
ATOM     28  N   UNL     1       2.397  -2.867  -0.653  0.00  0.00    -0.303 N 
ATOM     29  H   UNL     1       3.222  -2.380  -0.806  0.00  0.00    +0.150 HD
BRANCH  26  33
ATOM     30  C   UNL     1       1.113   1.968  -1.394  0.00  0.00    +0.121 A 
ATOM     31  C   UNL     1      -0.071   1.272  -1.176  0.00  0.00    +0.046 A 
ATOM     32  C   UNL     1      -0.041  -0.084  -0.942  0.00  0.00    +0.016 A 
ATOM     33  C   UNL     1       1.181  -0.761  -0.923  0.00  0.00    +0.037 A 
ATOM     34  C   UNL     1       2.368  -0.058  -1.142  0.00  0.00    +0.016 A 
ATOM     35  C   UNL     1       2.330   1.298  -1.376  0.00  0.00    +0.046 A 
BRANCH  30  36
ATOM     36  O   UNL     1       1.079   3.305  -1.625  0.00  0.00    -0.492 OA
BRANCH  36  37
ATOM     37  C   UNL     1       2.332   3.958  -1.841  0.00  0.00    +0.229 C 
BRANCH  37  38
ATOM     38  C   UNL     1       2.095   5.450  -2.083  0.00  0.00    +0.041 C 
BRANCH  38  40
ATOM     39  C   UNL     1       3.199   7.640  -2.556  0.00  0.00    +0.004 C 
ATOM     40  C   UNL     1       3.436   6.148  -2.314  0.00  0.00    -0.000 C 
ENDBRANCH  38  40
ENDBRANCH  37  38
ENDBRANCH  36  37
ENDBRANCH  30  36
ENDBRANCH  26  33
ENDBRANCH  25  28
ENDBRANCH   1  25
TORSDOF 11
