REMARK  Name = ZINC18098323
REMARK  10 active torsions:
REMARK  status: ('A' for Active; 'I' for Inactive)
REMARK    1  A    between atoms: C_1  and  N_2
REMARK    2  A    between atoms: C_6  and  S_27
REMARK    3  A    between atoms: C_10  and  C_11
REMARK    4  A    between atoms: C_11  and  C_12
REMARK    5  A    between atoms: C_12  and  C_13
REMARK    6  A    between atoms: N_15  and  N_16
REMARK    7  A    between atoms: C_17  and  C_19
REMARK    8  A    between atoms: S_27  and  N_30
REMARK    9  A    between atoms: N_30  and  C_31
REMARK   10  A    between atoms: N_30  and  C_32
REMARK                            x       y       z     vdW  Elec       q    Type
REMARK                         _______ _______ _______ _____ _____    ______ ____
ROOT
ATOM      1  C   UNL     1      -1.433  -0.534   0.013  0.00  0.00    +0.083 C 
ENDROOT
BRANCH   1  11
ATOM      2  C   UNL     1      -1.445  -2.337  -2.499  0.00  0.00    +0.150 C 
ATOM      3  N   UNL     1      -1.418  -2.814  -1.115  0.00  0.00    -0.331 N 
ATOM      4  C   UNL     1      -1.391  -4.131  -0.703  0.00  0.00    +0.069 A 
ATOM      5  C   UNL     1      -1.380  -5.351  -1.366  0.00  0.00    +0.030 A 
ATOM      6  C   UNL     1      -1.358  -6.523  -0.640  0.00  0.00    +0.030 A 
ATOM      7  C   UNL     1      -1.346  -6.490   0.747  0.00  0.00    +0.108 A 
ATOM      8  C   UNL     1      -1.356  -5.300   1.416  0.00  0.00    +0.058 A 
ATOM      9  C   UNL     1      -1.379  -4.099   0.701  0.00  0.00    +0.091 A 
ATOM     10  N   UNL     1      -1.393  -2.792   1.067  0.00  0.00    -0.232 NA
ATOM     11  C   UNL     1      -1.413  -2.041   0.005  0.00  0.00    +0.111 A 
BRANCH   7  12
ATOM     12  S   UNL     1      -1.318  -8.001   1.654  0.00  0.00    +0.060 S 
ATOM     13  O   UNL     1      -1.861  -7.715   2.936  0.00  0.00    -0.153 OA
ATOM     14  O   UNL     1      -1.863  -8.997   0.801  0.00  0.00    -0.153 OA
BRANCH  12  15
ATOM     15  N   UNL     1       0.272  -8.399   1.893  0.00  0.00    -0.183 NA
ATOM     16  C   UNL     1       0.976  -7.922   3.086  0.00  0.00    +0.131 C 
ATOM     17  C   UNL     1       0.974  -9.229   0.911  0.00  0.00    +0.131 C 
ENDBRANCH  12  15
ENDBRANCH   7  12
ENDBRANCH   1  11
BRANCH   1  18
ATOM     18  C   UNL     1       0.002  -0.004   0.002  0.00  0.00    +0.105 C 
BRANCH  18  19
ATOM     19  C   UNL     1      -0.018   1.503   0.010  0.00  0.00    +0.229 C 
ATOM     20  O   UNL     1      -1.077   2.095   0.018  0.00  0.00    -0.274 OA
ATOM     21  N   UNL     1       1.139   2.192   0.003  0.00  0.00    -0.234 N 
ATOM     22  H   UNL     1       1.986   1.719  -0.008  0.00  0.00    +0.173 HD
BRANCH  21  23
ATOM     23  N   UNL     1       1.121   3.593   0.011  0.00  0.00    -0.230 N 
ATOM     24  C   UNL     1       2.278   4.283   0.003  0.00  0.00    +0.262 C 
ATOM     25  O   UNL     1       3.339   3.690  -0.010  0.00  0.00    -0.269 OA
ATOM     26  H   UNL     1       0.274   4.067   0.021  0.00  0.00    +0.173 HD
BRANCH  24  27
ATOM     27  C   UNL     1       2.258   5.761   0.011  0.00  0.00    +0.058 A 
ATOM     28  C   UNL     1       1.042   6.445   0.021  0.00  0.00    +0.034 A 
ATOM     29  C   UNL     1       1.030   7.825   0.034  0.00  0.00    +0.042 A 
ATOM     30  C   UNL     1       2.222   8.531   0.026  0.00  0.00    +0.021 A 
ATOM     31  C   UNL     1       3.430   7.860   0.012  0.00  0.00    +0.022 A 
ATOM     32  C   UNL     1       3.457   6.479   0.004  0.00  0.00    +0.053 A 
ATOM     33 CL   UNL     1       4.975   5.637  -0.015  0.00  0.00    -0.083 Cl
ATOM     34 CL   UNL     1      -0.481   8.679   0.052  0.00  0.00    -0.084 Cl
ENDBRANCH  24  27
ENDBRANCH  21  23
ENDBRANCH  18  19
ENDBRANCH   1  18
TORSDOF 7
