REMARK  Name = ZINC09187729
REMARK  11 active torsions:
REMARK  status: ('A' for Active; 'I' for Inactive)
REMARK    1  A    between atoms: C_1  and  C_2
REMARK    2  A    between atoms: C_2  and  C_3
REMARK    3  A    between atoms: C_3  and  C_4
REMARK    4  A    between atoms: N_10  and  C_13
REMARK    5  A    between atoms: C_13  and  C_14
REMARK    6  A    between atoms: N_20  and  C_21
REMARK    7  A    between atoms: C_21  and  C_23
REMARK    8  A    between atoms: C_21  and  C_34
REMARK    9  A    between atoms: C_23  and  C_24
REMARK   10  A    between atoms: C_34  and  O_36
REMARK   11  A    between atoms: O_36  and  C_37
REMARK                            x       y       z     vdW  Elec       q    Type
REMARK                         _______ _______ _______ _____ _____    ______ ____
ROOT
ATOM      1  C   UNL     1       6.063   0.951  -4.143  0.00  0.00    +0.035 C 
ATOM      2  N   UNL     1       6.546   1.196  -5.378  0.00  0.00    -0.276 NA
ENDROOT
BRANCH   1   3
ATOM      3  C   UNL     1       5.285   1.899  -3.505  0.00  0.00    +0.205 C 
ATOM      4  C   UNL     1       5.102   3.249  -4.067  0.00  0.00    +0.238 C 
ATOM      5  O   UNL     1       5.634   3.567  -5.113  0.00  0.00    -0.274 OA
ATOM      6  N   UNL     1       4.328   4.122  -3.389  0.00  0.00    -0.239 N 
ATOM      7  C   UNL     1       3.737   3.784  -2.235  0.00  0.00    +0.315 C 
ATOM      8  O   UNL     1       3.052   4.617  -1.673  0.00  0.00    -0.252 OA
ATOM      9  N   UNL     1       3.859   2.576  -1.667  0.00  0.00    -0.220 N 
ATOM     10  C   UNL     1       4.606   1.604  -2.230  0.00  0.00    +0.241 C 
ATOM     11  O   UNL     1       4.713   0.513  -1.702  0.00  0.00    -0.274 OA
ATOM     12  H   UNL     1       4.198   5.015  -3.745  0.00  0.00    +0.159 HD
BRANCH   9  13
ATOM     13  C   UNL     1       3.171   2.307  -0.402  0.00  0.00    +0.153 C 
BRANCH  13  14
ATOM     14  C   UNL     1       1.795   1.762  -0.684  0.00  0.00    -0.030 A 
ATOM     15  C   UNL     1       0.723   2.625  -0.814  0.00  0.00    +0.005 A 
ATOM     16  C   UNL     1      -0.539   2.125  -1.074  0.00  0.00    +0.000 A 
ATOM     17  C   UNL     1      -0.730   0.762  -1.202  0.00  0.00    +0.000 A 
ATOM     18  C   UNL     1       0.342  -0.101  -1.071  0.00  0.00    +0.000 A 
ATOM     19  C   UNL     1       1.604   0.399  -0.811  0.00  0.00    +0.005 A 
ENDBRANCH  13  14
ENDBRANCH   9  13
ENDBRANCH   1   3
BRANCH   1  21
ATOM     20  C   UNL     1       5.278  -1.375  -3.791  0.00  0.00    +0.010 C 
ATOM     21  C   UNL     1       6.371  -0.356  -3.460  0.00  0.00    +0.048 C 
ENDBRANCH   1  21
BRANCH   2  22
ATOM     22  C   UNL     1       7.371   0.192  -6.054  0.00  0.00    +0.218 C 
BRANCH  22  23
ATOM     23  C   UNL     1       8.806   0.344  -5.619  0.00  0.00    +0.332 C 
ATOM     24  O   UNL     1       9.108   1.203  -4.825  0.00  0.00    -0.248 OA
BRANCH  23  25
ATOM     25  O   UNL     1       9.747  -0.475  -6.114  0.00  0.00    -0.466 OA
ATOM     26  C   UNL     1      11.108  -0.271  -5.650  0.00  0.00    +0.280 C 
ENDBRANCH  23  25
ENDBRANCH  22  23
BRANCH  22  27
ATOM     27  C   UNL     1       7.274   0.388  -7.569  0.00  0.00    +0.075 C 
BRANCH  27  28
ATOM     28  C   UNL     1       5.862   0.115  -8.021  0.00  0.00    -0.020 A 
ATOM     29  C   UNL     1       5.387  -1.046  -8.499  0.00  0.00    +0.087 A 
ATOM     30  N   UNL     1       4.060  -0.916  -8.805  0.00  0.00    -0.360 N 
ATOM     31  H   UNL     1       3.500  -1.621  -9.166  0.00  0.00    +0.165 HD
ATOM     32  C   UNL     1       3.638   0.365  -8.525  0.00  0.00    +0.047 A 
ATOM     33  C   UNL     1       4.747   1.065  -8.016  0.00  0.00    +0.003 A 
ATOM     34  C   UNL     1       4.615   2.405  -7.647  0.00  0.00    +0.010 A 
ATOM     35  C   UNL     1       3.404   3.027  -7.773  0.00  0.00    +0.001 A 
ATOM     36  C   UNL     1       2.306   2.339  -8.269  0.00  0.00    +0.002 A 
ATOM     37  C   UNL     1       2.416   1.018  -8.645  0.00  0.00    +0.026 A 
ENDBRANCH  27  28
ENDBRANCH  22  27
ENDBRANCH   2  22
TORSDOF 9
