REMARK  Name = ZINC12496713
REMARK  9 active torsions:
REMARK  status: ('A' for Active; 'I' for Inactive)
REMARK    1  A    between atoms: C_1  and  C_2
REMARK    2  A    between atoms: C_2  and  C_3
REMARK    3  A    between atoms: C_3  and  C_4
REMARK    4  A    between atoms: C_4  and  C_30
REMARK    5  A    between atoms: C_9  and  C_11
REMARK    6  A    between atoms: N_20  and  C_23
REMARK    7  A    between atoms: C_30  and  O_32
REMARK    8  A    between atoms: O_32  and  C_33
REMARK    9  A    between atoms: C_33  and  C_34
REMARK                            x       y       z     vdW  Elec       q    Type
REMARK                         _______ _______ _______ _____ _____    ______ ____
ROOT
ATOM      1  C   UNL     1       0.718  -0.497  -1.257  0.00  0.00    +0.044 C 
ATOM      2  C   UNL     1       0.873  -1.962  -1.231  0.00  0.00    +0.086 C 
ATOM      3  C   UNL     1       2.006  -2.189  -2.304  0.00  0.00    +0.077 C 
ATOM      4  C   UNL     1       2.986  -1.132  -1.824  0.00  0.00    -0.024 C 
ATOM      5  C   UNL     1       2.224  -3.643  -2.027  0.00  0.00    +0.229 C 
ATOM      6  O   UNL     1       3.271  -4.251  -2.094  0.00  0.00    -0.275 OA
ATOM      7  N   UNL     1       1.000  -4.147  -1.682  0.00  0.00    -0.210 N 
ATOM      8  C   UNL     1       0.092  -3.166  -1.371  0.00  0.00    +0.229 C 
ATOM      9  O   UNL     1      -1.108  -3.285  -1.243  0.00  0.00    -0.275 OA
ATOM     10  N   UNL     1       2.141  -0.034  -1.284  0.00  0.00    +0.395 N 
ATOM     11  H   UNL     1       2.446   0.203  -0.333  0.00  0.00    -0.083 HD
ATOM     12  H   UNL     1       2.223   0.794  -1.886  0.00  0.00    -0.083 HD
ENDROOT
BRANCH   4  13
ATOM     13  C   UNL     1       3.870  -1.694  -0.742  0.00  0.00    -0.025 A 
ATOM     14  C   UNL     1       3.517  -1.545   0.587  0.00  0.00    +0.005 A 
ATOM     15  C   UNL     1       4.326  -2.065   1.580  0.00  0.00    +0.000 A 
ATOM     16  C   UNL     1       5.494  -2.725   1.247  0.00  0.00    +0.003 A 
ATOM     17  C   UNL     1       5.851  -2.871  -0.080  0.00  0.00    +0.038 A 
ATOM     18  C   UNL     1       5.040  -2.355  -1.076  0.00  0.00    +0.125 A 
ATOM     19  F   UNL     1       5.388  -2.497  -2.374  0.00  0.00    -0.205 F 
ENDBRANCH   4  13
BRANCH   7  20
ATOM     20  C   UNL     1       0.705  -5.518  -1.649  0.00  0.00    +0.044 A 
ATOM     21  C   UNL     1      -0.562  -5.947  -1.281  0.00  0.00    +0.027 A 
ATOM     22  C   UNL     1      -0.853  -7.297  -1.255  0.00  0.00    +0.040 A 
ATOM     23  C   UNL     1       0.123  -8.223  -1.585  0.00  0.00    +0.124 A 
ATOM     24  C   UNL     1       1.390  -7.797  -1.946  0.00  0.00    +0.040 A 
ATOM     25  C   UNL     1       1.683  -6.447  -1.978  0.00  0.00    +0.027 A 
ATOM     26  F   UNL     1      -0.161  -9.543  -1.553  0.00  0.00    -0.205 F 
ENDBRANCH   7  20
BRANCH   1  27
ATOM     27  C   UNL     1      -0.015  -0.054  -2.496  0.00  0.00    +0.297 C 
ATOM     28  O   UNL     1      -0.803  -0.797  -3.031  0.00  0.00    -0.252 OA
BRANCH  27  29
ATOM     29  O   UNL     1       0.207   1.168  -3.006  0.00  0.00    -0.466 OA
BRANCH  29  30
ATOM     30  C   UNL     1      -0.534   1.528  -4.202  0.00  0.00    +0.228 C 
ATOM     31  C   UNL     1      -0.151   2.946  -4.631  0.00  0.00    +0.048 C 
ENDBRANCH  29  30
ENDBRANCH  27  29
ENDBRANCH   1  27
BRANCH   1  32
ATOM     32  C   UNL     1       0.002  -0.004   0.002  0.00  0.00    -0.001 C 
BRANCH  32  34
ATOM     33  C   UNL     1      -0.735   2.019   1.269  0.00  0.00    +0.004 C 
ATOM     34  C   UNL     1      -0.019   1.526   0.010  0.00  0.00    -0.004 C 
ENDBRANCH  32  34
ENDBRANCH   1  32
TORSDOF 7
