REMARK  Name = ZINC01805286
REMARK  14 active torsions:
REMARK  status: ('A' for Active; 'I' for Inactive)
REMARK    1  A    between atoms: C_1  and  C_2
REMARK    2  A    between atoms: C_2  and  O_3
REMARK    3  A    between atoms: O_3  and  C_4
REMARK    4  A    between atoms: C_4  and  C_6
REMARK    5  A    between atoms: C_7  and  C_32
REMARK    6  A    between atoms: C_8  and  C_31
REMARK    7  A    between atoms: C_10  and  N_11
REMARK    8  A    between atoms: C_12  and  C_14
REMARK    9  A    between atoms: C_14  and  S_15
REMARK   10  A    between atoms: S_15  and  C_16
REMARK   11  A    between atoms: C_19  and  C_24
REMARK   12  A    between atoms: N_20  and  C_21
REMARK   13  A    between atoms: C_21  and  C_22
REMARK   14  A    between atoms: C_25  and  C_30
REMARK                            x       y       z     vdW  Elec       q    Type
REMARK                         _______ _______ _______ _____ _____    ______ ____
ROOT
ATOM      1  S   UNL     1      -2.946  -3.139  -7.108  0.00  0.00    -0.077 S 
ENDROOT
BRANCH   1   2
ATOM      2  C   UNL     1      -4.680  -2.870  -7.269  0.00  0.00    +0.193 A 
ATOM      3  N   UNL     1      -5.482  -2.388  -6.348  0.00  0.00    -0.122 NA
ATOM      4  N   UNL     1      -6.684  -2.322  -6.797  0.00  0.00    -0.128 NA
ATOM      5  C   UNL     1      -6.725  -2.759  -8.037  0.00  0.00    +0.174 A 
ATOM      6  N   UNL     1      -5.440  -3.119  -8.379  0.00  0.00    -0.298 N 
BRANCH   5   7
ATOM      7  C   UNL     1      -7.916  -2.844  -8.896  0.00  0.00    +0.081 A 
ATOM      8  C   UNL     1      -9.216  -2.496  -8.628  0.00  0.00    +0.058 A 
ATOM      9  N   UNL     1     -10.088  -2.681  -9.596  0.00  0.00    -0.230 NA
ATOM     10  C   UNL     1      -9.723  -3.176 -10.762  0.00  0.00    +0.156 A 
ATOM     11  S   UNL     1      -8.068  -3.419 -10.580  0.00  0.00    -0.049 S 
ATOM     12  N   UNL     1     -10.511  -3.429 -11.871  0.00  0.00    -0.337 N 
ATOM     13  C   UNL     1      -9.624  -1.931  -7.292  0.00  0.00    +0.067 C 
ATOM     14  H   UNL     1     -11.461  -3.237 -11.845  0.00  0.00    +0.144 HD
ATOM     15  H   UNL     1     -10.112  -3.799 -12.674  0.00  0.00    +0.144 HD
ENDBRANCH   5   7
BRANCH   6  16
ATOM     16  C   UNL     1      -4.983  -3.657  -9.663  0.00  0.00    +0.152 C 
BRANCH  16  17
ATOM     17  C   UNL     1      -5.075  -5.161  -9.637  0.00  0.00    -0.013 C 
ATOM     18  C   UNL     1      -5.754  -5.792 -10.564  0.00  0.00    +0.005 C 
ENDBRANCH  16  17
ENDBRANCH   6  16
ENDBRANCH   1   2
BRANCH   1  19
ATOM     19  C   UNL     1      -2.576  -2.610  -5.413  0.00  0.00    +0.173 C 
BRANCH  19  21
ATOM     20  N   UNL     1      -0.597  -2.461  -3.936  0.00  0.00    -0.279 N 
ATOM     21  C   UNL     1      -1.105  -2.790  -5.140  0.00  0.00    +0.228 C 
ATOM     22  O   UNL     1      -0.378  -3.232  -6.005  0.00  0.00    -0.275 OA
ATOM     23  H   UNL     1      -1.178  -2.108  -3.245  0.00  0.00    +0.155 HD
BRANCH  20  28
ATOM     24  C   UNL     1       1.449  -2.344  -2.516  0.00  0.00    +0.091 A 
ATOM     25  C   UNL     1       2.868  -2.621  -2.523  0.00  0.00    -0.025 A 
ATOM     26  C   UNL     1       3.363  -3.119  -3.671  0.00  0.00    -0.008 A 
ATOM     27  S   UNL     1       1.934  -3.213  -4.727  0.00  0.00    -0.078 S 
ATOM     28  C   UNL     1       0.756  -2.627  -3.686  0.00  0.00    +0.086 A 
ATOM     29  C   UNL     1       4.785  -3.503  -3.986  0.00  0.00    +0.052 C 
ATOM     30  C   UNL     1       3.739  -2.366  -1.320  0.00  0.00    +0.045 C 
BRANCH  24  31
ATOM     31  C   UNL     1       0.776  -1.800  -1.335  0.00  0.00    +0.342 C 
ATOM     32  O   UNL     1       0.312  -2.552  -0.499  0.00  0.00    -0.245 OA
BRANCH  31  33
ATOM     33  O   UNL     1       0.671  -0.465  -1.174  0.00  0.00    -0.461 OA
BRANCH  33  35
ATOM     34  C   UNL     1      -0.019   1.526   0.010  0.00  0.00    +0.048 C 
ATOM     35  C   UNL     1       0.002  -0.004   0.002  0.00  0.00    +0.229 C 
ENDBRANCH  33  35
ENDBRANCH  31  33
ENDBRANCH  24  31
ENDBRANCH  20  28
ENDBRANCH  19  21
ENDBRANCH   1  19
TORSDOF 10
