REMARK  Name = ZINC07090656
REMARK  6 active torsions:
REMARK  status: ('A' for Active; 'I' for Inactive)
REMARK    1  A    between atoms: C_1  and  C_2
REMARK    2  A    between atoms: C_15  and  C_17
REMARK    3  A    between atoms: C_17  and  S_18
REMARK    4  A    between atoms: S_18  and  C_19
REMARK    5  A    between atoms: N_24  and  C_25
REMARK    6  A    between atoms: C_25  and  C_26
REMARK                            x       y       z     vdW  Elec       q    Type
REMARK                         _______ _______ _______ _____ _____    ______ ____
ROOT
ATOM      1  C   UNL     1      -0.019   1.526   0.010  0.00  0.00    +0.029 C 
ATOM      2  C   UNL     1       0.002  -0.004   0.002  0.00  0.00    +0.087 C 
ATOM      3  C   UNL     1       0.715  -0.496  -1.259  0.00  0.00    +0.118 C 
ATOM      4  C   UNL     1       1.097  -1.944  -1.106  0.00  0.00    +0.219 C 
ATOM      5  O   UNL     1       0.459  -2.800  -1.683  0.00  0.00    -0.275 OA
ATOM      6  N   UNL     1       2.146  -2.297  -0.332  0.00  0.00    -0.284 N 
ATOM      7  C   UNL     1       2.832  -1.333   0.416  0.00  0.00    +0.055 A 
ATOM      8  C   UNL     1       4.214  -1.255   0.377  0.00  0.00    +0.025 A 
ATOM      9  C   UNL     1       4.871  -0.309   1.143  0.00  0.00    +0.002 A 
ATOM     10  C   UNL     1       4.154   0.557   1.947  0.00  0.00    +0.002 A 
ATOM     11  C   UNL     1       2.773   0.492   1.984  0.00  0.00    +0.025 A 
ATOM     12  C   UNL     1       2.107  -0.445   1.211  0.00  0.00    +0.058 A 
ATOM     13  N   UNL     1       0.707  -0.488   1.190  0.00  0.00    -0.266 N 
ATOM     14  C   UNL     1       0.022  -0.966   2.248  0.00  0.00    +0.230 C 
ATOM     15  O   UNL     1      -1.190  -0.998   2.221  0.00  0.00    -0.274 OA
ATOM     16  H   UNL     1       2.425  -3.225  -0.293  0.00  0.00    +0.155 HD
ENDROOT
BRANCH  14  17
ATOM     17  C   UNL     1       0.762  -1.460   3.464  0.00  0.00    +0.172 C 
BRANCH  17  18
ATOM     18  S   UNL     1      -0.430  -2.034   4.705  0.00  0.00    -0.088 S 
BRANCH  18  19
ATOM     19  C   UNL     1       0.577  -2.573   6.047  0.00  0.00    +0.160 A 
ATOM     20  N   UNL     1       1.891  -2.567   6.160  0.00  0.00    -0.133 NA
ATOM     21  N   UNL     1       2.481  -3.039   7.310  0.00  0.00    -0.125 NA
ATOM     22  C   UNL     1       1.730  -3.495   8.293  0.00  0.00    +0.183 A 
ATOM     23  S   UNL     1       0.092  -3.264   7.621  0.00  0.00    -0.025 S 
ATOM     24  N   UNL     1       2.111  -4.011   9.526  0.00  0.00    -0.319 N 
ATOM     25  H   UNL     1       1.437  -4.312  10.156  0.00  0.00    +0.148 HD
BRANCH  24  26
ATOM     26  C   UNL     1       3.531  -4.103   9.875  0.00  0.00    +0.130 C 
BRANCH  26  27
ATOM     27  C   UNL     1       3.673  -4.693  11.254  0.00  0.00    -0.016 C 
ATOM     28  C   UNL     1       4.418  -5.754  11.439  0.00  0.00    +0.005 C 
ENDBRANCH  26  27
ENDBRANCH  24  26
ENDBRANCH  18  19
ENDBRANCH  17  18
ENDBRANCH  14  17
TORSDOF 5
