REMARK  Name = ZINC49590268
REMARK  9 active torsions:
REMARK  status: ('A' for Active; 'I' for Inactive)
REMARK    1  A    between atoms: C_1  and  C_2
REMARK    2  A    between atoms: C_2  and  C_4
REMARK    3  A    between atoms: C_2  and  N_16
REMARK    4  A    between atoms: N_16  and  C_17
REMARK    5  A    between atoms: C_17  and  C_19
REMARK    6  A    between atoms: C_17  and  C_31
REMARK    7  A    between atoms: C_22  and  C_25
REMARK    8  A    between atoms: C_31  and  C_32
REMARK    9  A    between atoms: C_31  and  C_33
REMARK                            x       y       z     vdW  Elec       q    Type
REMARK                         _______ _______ _______ _____ _____    ______ ____
ROOT
ATOM      1  N   UNL     1       0.617  -0.539  -1.292  0.00  0.00    -0.300 NA
ATOM      2  H   UNL     1       0.666   0.398  -0.920  0.00  0.00    +0.123 HD
ENDROOT
BRANCH   1   4
ATOM      3  C   UNL     1      -0.674  -0.989   0.740  0.00  0.00    +0.032 C 
ATOM      4  C   UNL     1       0.392  -1.520  -0.221  0.00  0.00    +0.118 C 
BRANCH   4   5
ATOM      5  C   UNL     1       1.678  -1.747   0.531  0.00  0.00    +0.127 A 
ATOM      6  N   UNL     1       1.651  -2.551   1.625  0.00  0.00    -0.309 N 
ATOM      7  H   UNL     1       0.815  -2.960   1.901  0.00  0.00    +0.170 HD
ATOM      8  C   UNL     1       2.779  -2.788   2.335  0.00  0.00    +0.259 A 
ATOM      9  O   UNL     1       2.769  -3.507   3.317  0.00  0.00    -0.267 OA
ATOM     10  C   UNL     1       4.017  -2.142   1.873  0.00  0.00    +0.065 A 
ATOM     11  C   UNL     1       5.231  -2.320   2.532  0.00  0.00    +0.015 A 
ATOM     12  C   UNL     1       6.361  -1.691   2.056  0.00  0.00    +0.001 A 
ATOM     13  C   UNL     1       6.297  -0.884   0.927  0.00  0.00    +0.002 A 
ATOM     14  C   UNL     1       5.107  -0.695   0.262  0.00  0.00    +0.028 A 
ATOM     15  C   UNL     1       3.948  -1.322   0.725  0.00  0.00    +0.078 A 
ATOM     16  N   UNL     1       2.756  -1.168   0.096  0.00  0.00    -0.232 NA
ENDBRANCH   4   5
ENDBRANCH   1   4
BRANCH   1  17
ATOM     17  C   UNL     1      -0.421  -0.641  -2.326  0.00  0.00    +0.087 C 
BRANCH  17  18
ATOM     18  C   UNL     1      -0.098  -1.787  -3.250  0.00  0.00    -0.030 A 
ATOM     19  C   UNL     1       1.210  -2.019  -3.633  0.00  0.00    +0.005 A 
ATOM     20  C   UNL     1       1.506  -3.071  -4.480  0.00  0.00    +0.004 A 
ATOM     21  C   UNL     1       0.494  -3.891  -4.944  0.00  0.00    -0.044 A 
ATOM     22  C   UNL     1      -0.814  -3.659  -4.560  0.00  0.00    +0.004 A 
ATOM     23  C   UNL     1      -1.109  -2.611  -3.709  0.00  0.00    +0.005 A 
BRANCH  21  24
ATOM     24  C   UNL     1       0.816  -5.037  -5.868  0.00  0.00    +0.019 C 
ATOM     25  C   UNL     1       0.070  -4.851  -7.191  0.00  0.00    +0.008 C 
ATOM     26  C   UNL     1       0.397  -6.014  -8.129  0.00  0.00    +0.001 C 
ATOM     27  C   UNL     1      -0.035  -7.330  -7.480  0.00  0.00    +0.000 C 
ATOM     28  C   UNL     1       0.711  -7.516  -6.157  0.00  0.00    +0.001 C 
ATOM     29  C   UNL     1       0.384  -6.353  -5.219  0.00  0.00    +0.008 C 
ENDBRANCH  21  24
ENDBRANCH  17  18
BRANCH  17  30
ATOM     30  C   UNL     1      -0.471   0.661  -3.128  0.00  0.00    +0.004 C 
ATOM     31  C   UNL     1      -0.944   1.800  -2.222  0.00  0.00    +0.009 C 
ATOM     32  C   UNL     1       0.924   0.983  -3.667  0.00  0.00    +0.009 C 
ENDBRANCH  17  30
ENDBRANCH   1  17
TORSDOF 6
