REMARK  Name = ZINC63150601
REMARK  10 active torsions:
REMARK  status: ('A' for Active; 'I' for Inactive)
REMARK    1  A    between atoms: C_1  and  C_2
REMARK    2  A    between atoms: C_2  and  C_4
REMARK    3  A    between atoms: C_2  and  O_16
REMARK    4  A    between atoms: N_6  and  C_7
REMARK    5  A    between atoms: O_16  and  C_17
REMARK    6  A    between atoms: C_17  and  C_19
REMARK    7  A    between atoms: C_19  and  C_21
REMARK    8  A    between atoms: C_19  and  N_31
REMARK    9  A    between atoms: C_21  and  C_22
REMARK   10  A    between atoms: C_32  and  C_34
REMARK                            x       y       z     vdW  Elec       q    Type
REMARK                         _______ _______ _______ _____ _____    ______ ____
ROOT
ATOM      1  C   UNL     1      -0.086  -0.661  -2.264  0.00  0.00    +0.329 C 
ATOM      2  O   UNL     1      -1.274  -0.450  -2.221  0.00  0.00    -0.249 OA
ENDROOT
BRANCH   1   3
ATOM      3  O   UNL     1       0.671  -0.462  -1.174  0.00  0.00    -0.451 OA
BRANCH   3   5
ATOM      4  C   UNL     1      -0.004   1.532   0.014  0.00  0.00    +0.062 C 
ATOM      5  C   UNL     1       0.005   0.002   0.002  0.00  0.00    +0.259 C 
BRANCH   5   6
ATOM      6  C   UNL     1       0.730  -0.505   1.223  0.00  0.00    +0.258 C 
ATOM      7  O   UNL     1       1.769  -1.118   1.100  0.00  0.00    -0.271 OA
ATOM      8  N   UNL     1       0.223  -0.277   2.451  0.00  0.00    -0.282 N 
ATOM      9  H   UNL     1      -0.571   0.271   2.553  0.00  0.00    +0.155 HD
BRANCH   8  10
ATOM     10  C   UNL     1       0.844  -0.829   3.578  0.00  0.00    +0.037 A 
ATOM     11  C   UNL     1       0.076  -1.256   4.654  0.00  0.00    +0.027 A 
ATOM     12  C   UNL     1       0.687  -1.802   5.767  0.00  0.00    +0.051 A 
ATOM     13  C   UNL     1       2.066  -1.925   5.813  0.00  0.00    +0.166 A 
ATOM     14  C   UNL     1       2.839  -1.498   4.735  0.00  0.00    +0.168 A 
ATOM     15  C   UNL     1       2.225  -0.956   3.618  0.00  0.00    +0.072 A 
ATOM     16  O   UNL     1       4.153  -1.725   5.024  0.00  0.00    -0.453 OA
ATOM     17  C   UNL     1       4.207  -1.916   6.450  0.00  0.00    +0.466 C 
ATOM     18  O   UNL     1       2.898  -2.419   6.777  0.00  0.00    -0.453 OA
ENDBRANCH   8  10
ENDBRANCH   5   6
ENDBRANCH   3   5
ENDBRANCH   1   3
BRANCH   1  19
ATOM     19  C   UNL     1       0.547  -1.150  -3.542  0.00  0.00    +0.186 C 
BRANCH  19  20
ATOM     20  N   UNL     1      -0.483  -1.735  -4.404  0.00  0.00    -0.302 N 
ATOM     21  C   UNL     1      -1.520  -0.983  -4.821  0.00  0.00    +0.211 C 
ATOM     22  O   UNL     1      -1.601   0.179  -4.483  0.00  0.00    -0.276 OA
ATOM     23  C   UNL     1      -2.579  -1.585  -5.708  0.00  0.00    +0.109 C 
ATOM     24  H   UNL     1      -0.418  -2.664  -4.674  0.00  0.00    +0.150 HD
ENDBRANCH  19  20
BRANCH  19  25
ATOM     25  C   UNL     1       1.210   0.025  -4.264  0.00  0.00    +0.067 C 
BRANCH  25  26
ATOM     26  C   UNL     1       1.947  -0.483  -5.477  0.00  0.00    -0.039 C 
ATOM     27  C   UNL     1       1.486  -0.529  -6.748  0.00  0.00    -0.001 A 
ATOM     28  C   UNL     1       0.210  -0.137  -7.358  0.00  0.00    +0.010 A 
ATOM     29  C   UNL     1       0.039  -0.308  -8.688  0.00  0.00    +0.001 A 
ATOM     30  C   UNL     1       1.047  -0.850  -9.497  0.00  0.00    +0.002 A 
ATOM     31  C   UNL     1       2.246  -1.234  -9.010  0.00  0.00    +0.026 A 
ATOM     32  C   UNL     1       2.535  -1.098  -7.624  0.00  0.00    +0.043 A 
ATOM     33  N   UNL     1       3.602  -1.392  -6.922  0.00  0.00    -0.380 N 
ATOM     34  C   UNL     1       3.353  -1.037  -5.520  0.00  0.00    +0.144 C 
ATOM     35  H   UNL     1       4.421  -1.777  -7.271  0.00  0.00    +0.160 HD
ENDBRANCH  25  26
ENDBRANCH  19  25
ENDBRANCH   1  19
TORSDOF 8
