REMARK  Name = ZINC09633422
REMARK  7 active torsions:
REMARK  status: ('A' for Active; 'I' for Inactive)
REMARK    1  A    between atoms: C_1  and  C_2
REMARK    2  A    between atoms: C_3  and  C_18
REMARK    3  A    between atoms: C_4  and  N_13
REMARK    4  A    between atoms: N_5  and  C_7
REMARK    5  A    between atoms: N_19  and  N_20
REMARK    6  A    between atoms: C_21  and  C_23
REMARK    7  A    between atoms: C_25  and  N_30
REMARK                            x       y       z     vdW  Elec       q    Type
REMARK                         _______ _______ _______ _____ _____    ______ ____
ROOT
ATOM      1  C   UNL     1      -2.543   1.855   0.409  0.00  0.00    +0.143 C 
ATOM      2  N   UNL     1      -2.792   0.585   0.526  0.00  0.00    -0.187 NA
ENDROOT
BRANCH   1   5
ATOM      3  C   UNL     1       0.016   0.001   0.181  0.00  0.00    +0.068 C 
ATOM      4  C   UNL     1      -0.012   1.505   0.086  0.00  0.00    +0.071 A 
ATOM      5  C   UNL     1      -1.163   2.318   0.190  0.00  0.00    +0.057 A 
ATOM      6  C   UNL     1      -0.747   3.636   0.050  0.00  0.00    +0.134 A 
ATOM      7  N   UNL     1       0.599   3.611  -0.139  0.00  0.00    -0.218 N 
ATOM      8  N   UNL     1       1.021   2.277  -0.111  0.00  0.00    -0.169 NA
BRANCH   7   9
ATOM      9  C   UNL     1       1.423   4.729  -0.330  0.00  0.00    +0.067 A 
ATOM     10  C   UNL     1       1.002   5.772  -1.144  0.00  0.00    +0.028 A 
ATOM     11  C   UNL     1       1.814   6.874  -1.327  0.00  0.00    +0.002 A 
ATOM     12  C   UNL     1       3.049   6.935  -0.707  0.00  0.00    +0.000 A 
ATOM     13  C   UNL     1       3.472   5.896   0.101  0.00  0.00    +0.002 A 
ATOM     14  C   UNL     1       2.663   4.793   0.291  0.00  0.00    +0.028 A 
ENDBRANCH   7   9
BRANCH   6  15
ATOM     15  N   UNL     1      -1.552   4.763   0.089  0.00  0.00    -0.315 N 
ATOM     16  C   UNL     1      -2.651   4.666  -0.906  0.00  0.00    +0.106 C 
ATOM     17  C   UNL     1      -3.697   5.681  -0.379  0.00  0.00    +0.020 C 
ATOM     18  C   UNL     1      -3.602   5.510   1.154  0.00  0.00    +0.020 C 
ATOM     19  C   UNL     1      -2.212   4.898   1.406  0.00  0.00    +0.106 C 
ENDBRANCH   6  15
ENDBRANCH   1   5
BRANCH   2  20
ATOM     20  N   UNL     1      -4.105   0.145   0.734  0.00  0.00    -0.202 N 
ATOM     21  C   UNL     1      -4.363  -1.172   0.856  0.00  0.00    +0.281 C 
ATOM     22  O   UNL     1      -3.456  -1.979   0.785  0.00  0.00    -0.267 OA
ATOM     23  H   UNL     1      -4.829   0.788   0.790  0.00  0.00    +0.178 HD
BRANCH  21  24
ATOM     24  C   UNL     1      -5.751  -1.637   1.075  0.00  0.00    +0.125 A 
ATOM     25  C   UNL     1      -6.010  -3.000   1.195  0.00  0.00    +0.091 A 
ATOM     26  C   UNL     1      -7.323  -3.421   1.407  0.00  0.00    +0.067 A 
ATOM     27  C   UNL     1      -8.325  -2.455   1.480  0.00  0.00    +0.098 A 
ATOM     28  C   UNL     1      -7.988  -1.118   1.346  0.00  0.00    +0.128 A 
ATOM     29 CL   UNL     1      -9.230   0.091   1.435  0.00  0.00    -0.062 Cl
ATOM     30 CL   UNL     1      -9.978  -2.922   1.735  0.00  0.00    -0.079 Cl
ATOM     31 CL   UNL     1      -4.720  -4.156   1.088  0.00  0.00    -0.079 Cl
ATOM     32  N   UNL     1      -6.721  -0.672   1.144  0.00  0.00    -0.339 N 
ATOM     33  H   UNL     1      -6.504   0.327   1.049  0.00  0.00    +0.167 HD
BRANCH  26  34
ATOM     34  N   UNL     1      -7.626  -4.775   1.537  0.00  0.00    -0.356 N 
ATOM     35  H   UNL     1      -8.544  -5.055   1.681  0.00  0.00    +0.142 HD
ATOM     36  H   UNL     1      -6.920  -5.438   1.484  0.00  0.00    +0.142 HD
ENDBRANCH  26  34
ENDBRANCH  21  24
ENDBRANCH   2  20
TORSDOF 6
