REMARK  Name = ZINC19112601
REMARK  7 active torsions:
REMARK  status: ('A' for Active; 'I' for Inactive)
REMARK    1  A    between atoms: C_1  and  C_2
REMARK    2  A    between atoms: C_2  and  O_3
REMARK    3  A    between atoms: O_3  and  C_4
REMARK    4  A    between atoms: C_13  and  C_23
REMARK    5  A    between atoms: C_17  and  C_22
REMARK    6  A    between atoms: C_23  and  N_71
REMARK    7  A    between atoms: C_24  and  N_71
REMARK                            x       y       z     vdW  Elec       q    Type
REMARK                         _______ _______ _______ _____ _____    ______ ____
ROOT
ATOM      1  C   UNL     1       4.082   6.862  -2.582  0.00  0.00    +0.403 C 
ATOM      2  O   UNL     1       4.460   7.112  -3.709  0.00  0.00    -0.226 OA
ATOM      3  N   UNL     1       2.777   6.622  -2.346  0.00  0.00    -0.264 N 
ATOM      4  C   UNL     1       1.793   6.658  -3.439  0.00  0.00    +0.130 C 
ATOM      5  C   UNL     1       0.636   7.572  -3.022  0.00  0.00    +0.125 C 
ATOM      6  N   UNL     1       0.108   7.127  -1.726  0.00  0.00    -0.312 N 
ATOM      7  C   UNL     1       1.121   7.245  -0.669  0.00  0.00    +0.125 C 
ATOM      8  C   UNL     1       2.298   6.318  -0.989  0.00  0.00    +0.130 C 
ATOM      9  C   UNL     1      -1.043   7.826  -1.391  0.00  0.00    +0.123 A 
ATOM     10  C   UNL     1      -2.251   7.129  -1.251  0.00  0.00    -0.024 A 
ATOM     11  C   UNL     1      -3.388   7.801  -0.917  0.00  0.00    +0.015 A 
ATOM     12  C   UNL     1      -3.308   9.196  -0.728  0.00  0.00    +0.001 A 
ATOM     13  C   UNL     1      -4.440   9.950  -0.383  0.00  0.00    +0.013 A 
ATOM     14  C   UNL     1      -4.325  11.296  -0.207  0.00  0.00    -0.050 A 
ATOM     15  C   UNL     1      -3.097  11.935  -0.365  0.00  0.00    +0.005 A 
ATOM     16  C   UNL     1      -1.979  11.233  -0.699  0.00  0.00    +0.028 A 
ATOM     17  C   UNL     1      -2.059   9.843  -0.890  0.00  0.00    +0.073 A 
ATOM     18  N   UNL     1      -0.975   9.130  -1.218  0.00  0.00    -0.232 NA
ATOM     19  C   UNL     1      -5.541  12.105   0.164  0.00  0.00    +0.044 C 
ENDROOT
BRANCH   1  20
ATOM     20  O   UNL     1       4.967   6.824  -1.568  0.00  0.00    -0.451 OA
BRANCH  20  22
ATOM     21  C   UNL     1       7.205   7.006  -0.626  0.00  0.00    +0.048 C 
ATOM     22  C   UNL     1       6.356   7.093  -1.896  0.00  0.00    +0.230 C 
ENDBRANCH  20  22
ENDBRANCH   1  20
BRANCH  10  23
ATOM     23  C   UNL     1      -2.291   5.637  -1.462  0.00  0.00    -0.043 C 
BRANCH  23  24
ATOM     24  N   UNL     1      -1.722   4.966  -0.279  0.00  0.00    +0.386 N 
ATOM     25  H   UNL     1      -2.273   5.215   0.550  0.00  0.00    -0.085 HD
ATOM     26  H   UNL     1      -0.751   5.273  -0.150  0.00  0.00    -0.085 HD
BRANCH  24  27
ATOM     27  C   UNL     1      -1.748   3.502  -0.459  0.00  0.00    -0.067 C 
ATOM     28  C   UNL     1      -0.923   3.120  -1.690  0.00  0.00    -0.009 C 
ATOM     29  C   UNL     1      -0.947   1.600  -1.868  0.00  0.00    -0.012 C 
ATOM     30  C   UNL     1      -0.351   0.932  -0.627  0.00  0.00    +0.007 C 
ATOM     31  C   UNL     1      -1.176   1.314   0.604  0.00  0.00    -0.012 C 
ATOM     32  C   UNL     1      -1.152   2.833   0.782  0.00  0.00    -0.009 C 
ATOM     33  C   UNL     1      -2.620   0.845   0.416  0.00  0.00    +0.007 C 
ATOM     34  C   UNL     1      -3.216   1.513  -0.825  0.00  0.00    -0.012 C 
ATOM     35  C   UNL     1      -2.391   1.131  -2.056  0.00  0.00    +0.007 C 
ATOM     36  C   UNL     1      -3.192   3.033  -0.647  0.00  0.00    -0.009 C 
ENDBRANCH  24  27
ENDBRANCH  23  24
ENDBRANCH  10  23
TORSDOF 5
