REMARK  Name = ZINC09610899
REMARK  12 active torsions:
REMARK  status: ('A' for Active; 'I' for Inactive)
REMARK    1  A    between atoms: C_1  and  C_2
REMARK    2  A    between atoms: C_7  and  S_11
REMARK    3  A    between atoms: S_11  and  N_14
REMARK    4  A    between atoms: N_14  and  C_15
REMARK    5  A    between atoms: C_15  and  C_17
REMARK    6  A    between atoms: C_15  and  C_21
REMARK    7  A    between atoms: C_17  and  C_18
REMARK    8  A    between atoms: C_18  and  C_19
REMARK    9  A    between atoms: C_18  and  C_20
REMARK   10  A    between atoms: N_23  and  C_24
REMARK   11  A    between atoms: C_29  and  C_34
REMARK   12  A    between atoms: C_31  and  C_33
REMARK                            x       y       z     vdW  Elec       q    Type
REMARK                         _______ _______ _______ _____ _____    ______ ____
ROOT
ATOM      1  C   UNL     1      -3.426   1.737   2.571  0.00  0.00    +0.162 C 
ENDROOT
BRANCH   1   2
ATOM      2  C   UNL     1      -2.836   1.497   3.937  0.00  0.00    +0.232 C 
ATOM      3  O   UNL     1      -2.169   0.505   4.143  0.00  0.00    -0.274 OA
ATOM      4  N   UNL     1      -3.047   2.385   4.928  0.00  0.00    -0.311 N 
ATOM      5  H   UNL     1      -3.580   3.178   4.763  0.00  0.00    +0.149 HD
BRANCH   4   6
ATOM      6  C   UNL     1      -2.473   2.151   6.256  0.00  0.00    +0.076 C 
ATOM      7  C   UNL     1      -3.407   1.247   7.064  0.00  0.00    +0.022 C 
ATOM      8  C   UNL     1      -2.807   1.003   8.450  0.00  0.00    +0.002 C 
ATOM      9  C   UNL     1      -2.638   2.340   9.175  0.00  0.00    +0.003 C 
ATOM     10  C   UNL     1      -1.704   3.243   8.367  0.00  0.00    -0.009 C 
ATOM     11  C   UNL     1      -2.304   3.487   6.981  0.00  0.00    +0.009 C 
ATOM     12  C   UNL     1      -3.668   4.165   7.127  0.00  0.00    +0.009 C 
ATOM     13  C   UNL     1      -1.534   4.580   9.092  0.00  0.00    +0.008 C 
ENDBRANCH   4   6
ENDBRANCH   1   2
BRANCH   1  14
ATOM     14  N   UNL     1      -3.054   0.638   1.678  0.00  0.00    -0.178 NA
ATOM     15  H   UNL     1      -3.570  -0.184   1.679  0.00  0.00    +0.149 HD
BRANCH  14  16
ATOM     16  S   UNL     1      -1.753   0.797   0.666  0.00  0.00    +0.059 S 
ATOM     17  O   UNL     1      -1.918   2.032  -0.017  0.00  0.00    -0.153 OA
ATOM     18  O   UNL     1      -1.618  -0.441  -0.020  0.00  0.00    -0.153 OA
BRANCH  16  25
ATOM     19  C   UNL     1       4.505   3.208   5.224  0.00  0.00    +0.073 C 
ATOM     20  C   UNL     1       3.349   2.730   4.383  0.00  0.00    +0.076 A 
ATOM     21  N   UNL     1       3.036   1.507   4.059  0.00  0.00    -0.244 NA
ATOM     22  C   UNL     1       1.966   1.212   3.292  0.00  0.00    +0.079 A 
ATOM     23  C   UNL     1       1.502  -0.050   2.860  0.00  0.00    +0.031 A 
ATOM     24  C   UNL     1       0.390  -0.152   2.082  0.00  0.00    +0.030 A 
ATOM     25  C   UNL     1      -0.323   0.970   1.680  0.00  0.00    +0.106 A 
ATOM     26  C   UNL     1       0.096   2.222   2.087  0.00  0.00    +0.045 A 
ATOM     27  C   UNL     1       1.217   2.335   2.873  0.00  0.00    +0.041 A 
ATOM     28  S   UNL     1       2.115   3.677   3.612  0.00  0.00    -0.072 S 
ENDBRANCH  16  25
ENDBRANCH  14  16
ENDBRANCH   1  14
BRANCH   1  29
ATOM     29  C   UNL     1      -4.950   1.812   2.681  0.00  0.00    +0.032 C 
BRANCH  29  30
ATOM     30  C   UNL     1      -5.543   2.162   1.315  0.00  0.00    -0.015 C 
ATOM     31  C   UNL     1      -7.070   2.093   1.389  0.00  0.00    +0.007 C 
ATOM     32  C   UNL     1      -5.116   3.577   0.920  0.00  0.00    +0.007 C 
ENDBRANCH  29  30
ENDBRANCH   1  29
TORSDOF 7
