REMARK  Name = ZINC00853908
REMARK  6 active torsions:
REMARK  status: ('A' for Active; 'I' for Inactive)
REMARK    1  A    between atoms: C_1  and  C_2
REMARK    2  A    between atoms: C_3  and  C_32
REMARK    3  A    between atoms: C_4  and  C_22
REMARK    4  A    between atoms: C_10  and  C_15
REMARK    5  A    between atoms: C_32  and  O_34
REMARK    6  A    between atoms: O_34  and  C_35
REMARK                            x       y       z     vdW  Elec       q    Type
REMARK                         _______ _______ _______ _____ _____    ______ ____
ROOT
ATOM      1  C   UNL     1       4.751   4.150   0.823  0.00  0.00    +0.061 C 
ATOM      2  C   UNL     1       3.564   3.324   0.400  0.00  0.00    +0.016 C 
ATOM      3  C   UNL     1       3.645   1.982   0.417  0.00  0.00    +0.065 C 
ATOM      4  C   UNL     1       2.485   1.127  -0.005  0.00  0.00    +0.093 C 
ATOM      5  C   UNL     1       1.201   1.918   0.001  0.00  0.00    +0.024 C 
ATOM      6  C   UNL     1       1.222   3.267  -0.005  0.00  0.00    +0.016 C 
ATOM      7  N   UNL     1       2.412   3.944   0.003  0.00  0.00    -0.321 N 
ATOM      8  C   UNL     1      -0.059   4.064  -0.017  0.00  0.00    +0.059 C 
ATOM      9  C   UNL     1      -1.155   3.287   0.716  0.00  0.00    +0.032 C 
ATOM     10  C   UNL     1      -1.335   1.931   0.019  0.00  0.00    +0.088 C 
ATOM     11  C   UNL     1      -0.014   1.211   0.009  0.00  0.00    +0.162 C 
ATOM     12  O   UNL     1       0.002  -0.004   0.002  0.00  0.00    -0.292 OA
ATOM     13  H   UNL     1       2.436   4.997  -0.315  0.00  0.00    +0.152 HD
ENDROOT
BRANCH   4  14
ATOM     14  C   UNL     1       2.737   0.601  -1.394  0.00  0.00    -0.018 A 
ATOM     15  C   UNL     1       2.876   1.482  -2.451  0.00  0.00    +0.055 A 
ATOM     16  C   UNL     1       3.107   1.001  -3.729  0.00  0.00    +0.167 A 
ATOM     17  C   UNL     1       3.199  -0.372  -3.947  0.00  0.00    +0.167 A 
ATOM     18  C   UNL     1       3.059  -1.249  -2.884  0.00  0.00    +0.065 A 
ATOM     19  C   UNL     1       2.833  -0.761  -1.609  0.00  0.00    +0.026 A 
ATOM     20 BR   UNL     1       2.651  -1.961  -0.159  0.00  0.00    -0.050 Br
ATOM     21  O   UNL     1       3.427  -0.588  -5.275  0.00  0.00    -0.453 OA
ATOM     22  C   UNL     1       3.881   0.674  -5.798  0.00  0.00    +0.466 C 
ATOM     23  O   UNL     1       3.278   1.644  -4.921  0.00  0.00    -0.453 OA
ENDBRANCH   4  14
BRANCH   9  24
ATOM     24  C   UNL     1      -2.447   4.060   0.661  0.00  0.00    -0.043 A 
ATOM     25  C   UNL     1      -3.015   4.370  -0.561  0.00  0.00    +0.005 A 
ATOM     26  C   UNL     1      -4.203   5.073  -0.613  0.00  0.00    +0.020 A 
ATOM     27  C   UNL     1      -4.819   5.477   0.558  0.00  0.00    +0.041 A 
ATOM     28  C   UNL     1      -4.247   5.172   1.781  0.00  0.00    +0.020 A 
ATOM     29  C   UNL     1      -3.062   4.463   1.831  0.00  0.00    +0.005 A 
ATOM     30 CL   UNL     1      -6.308   6.367   0.494  0.00  0.00    -0.084 Cl
ENDBRANCH   9  24
BRANCH   3  31
ATOM     31  C   UNL     1       4.845   1.365   0.839  0.00  0.00    +0.337 C 
ATOM     32  O   UNL     1       5.792   2.047   1.183  0.00  0.00    -0.245 OA
BRANCH  31  33
ATOM     33  O   UNL     1       4.940   0.019   0.861  0.00  0.00    -0.465 OA
ATOM     34  C   UNL     1       6.182  -0.537   1.298  0.00  0.00    +0.280 C 
ENDBRANCH  31  33
ENDBRANCH   3  31
TORSDOF 4
