REMARK  Name = ZINC39979592
REMARK  3 active torsions:
REMARK  status: ('A' for Active; 'I' for Inactive)
REMARK    1  A    between atoms: C_5  and  N_7
REMARK    2  A    between atoms: C_8  and  C_14
REMARK    3  A    between atoms: C_14  and  C_15
REMARK                            x       y       z     vdW  Elec       q    Type
REMARK                         _______ _______ _______ _____ _____    ______ ____
ROOT
ATOM      1  N   UNL     1       1.162  -2.097  -0.019  0.00  0.00    -0.262 N 
ATOM      2  C   UNL     1       1.163  -2.980   1.158  0.00  0.00    +0.170 C 
ATOM      3  N   UNL     1       1.151  -4.343   0.591  0.00  0.00    -0.220 NA
ATOM      4  N   UNL     1       1.145  -4.190  -0.766  0.00  0.00    -0.260 N 
ATOM      5  C   UNL     1       1.146  -2.894  -1.104  0.00  0.00    +0.152 C 
ATOM      6  S   UNL     1       1.133  -2.320  -2.717  0.00  0.00    -0.017 S 
ATOM      7  H   UNL     1       1.960  -4.867   0.891  0.00  0.00    +0.146 HD
ATOM      8  H   UNL     1       1.137  -4.923  -1.402  0.00  0.00    +0.168 HD
ENDROOT
BRANCH   1  13
ATOM      9  C   UNL     1      -0.017   1.392   0.010  0.00  0.00    +0.004 A 
ATOM     10  C   UNL     1       1.112   2.137   0.003  0.00  0.00    +0.033 A 
ATOM     11  C   UNL     1       2.383   1.510  -0.013  0.00  0.00    +0.136 A 
ATOM     12  C   UNL     1       2.439   0.035  -0.021  0.00  0.00    +0.155 A 
ATOM     13  C   UNL     1       1.171  -0.704  -0.013  0.00  0.00    +0.068 A 
ATOM     14  C   UNL     1       0.002  -0.004   0.002  0.00  0.00    +0.026 A 
ATOM     15  N   UNL     1       3.698  -0.327  -0.036  0.00  0.00    -0.047 NA
ATOM     16  O   UNL     1       4.490   0.848  -0.038  0.00  0.00    -0.242 OA
ATOM     17  N   UNL     1       3.616   1.963  -0.023  0.00  0.00    -0.049 NA
ENDBRANCH   1  13
BRANCH   2  18
ATOM     18  C   UNL     1      -0.087  -2.740   2.007  0.00  0.00    +0.082 C 
BRANCH  18  19
ATOM     19  C   UNL     1      -0.004  -3.564   3.267  0.00  0.00    -0.007 A 
ATOM     20  C   UNL     1       0.523  -3.233   4.471  0.00  0.00    +0.011 A 
ATOM     21  C   UNL     1       0.487  -4.159   5.496  0.00  0.00    +0.008 A 
ATOM     22  C   UNL     1      -0.074  -5.372   5.267  0.00  0.00    +0.045 A 
ATOM     23  S   UNL     1      -0.582  -5.228   3.562  0.00  0.00    -0.101 S 
ENDBRANCH  18  19
ENDBRANCH   2  18
TORSDOF 3
