REMARK  Name = ZINC00805507
REMARK  7 active torsions:
REMARK  status: ('A' for Active; 'I' for Inactive)
REMARK    1  A    between atoms: C_1  and  C_2
REMARK    2  A    between atoms: C_2  and  O_3
REMARK    3  A    between atoms: O_3  and  C_4
REMARK    4  A    between atoms: C_8  and  C_10
REMARK    5  A    between atoms: C_15  and  C_20
REMARK    6  A    between atoms: C_23  and  O_26
REMARK    7  A    between atoms: O_26  and  C_27
REMARK                            x       y       z     vdW  Elec       q    Type
REMARK                         _______ _______ _______ _____ _____    ______ ____
ROOT
ATOM      1  C   UNL     1       1.119  -2.176   0.712  0.00  0.00    +0.136 C 
ATOM      2  C   UNL     1       1.125  -0.666   0.651  0.00  0.00    +0.036 C 
ATOM      3  C   UNL     1       0.190   0.102   0.069  0.00  0.00    +0.017 C 
ATOM      4  C   UNL     1       0.310   1.617   0.103  0.00  0.00    +0.059 C 
ATOM      5  C   UNL     1       1.783   2.022   0.061  0.00  0.00    +0.032 C 
ATOM      6  C   UNL     1       2.469   1.410   1.288  0.00  0.00    +0.088 C 
ATOM      7  C   UNL     1       2.251  -0.073   1.269  0.00  0.00    +0.163 C 
ATOM      8  O   UNL     1       3.070  -0.792   1.806  0.00  0.00    -0.292 OA
ATOM      9  N   UNL     1      -0.909  -0.365  -0.576  0.00  0.00    -0.316 N 
ATOM     10  C   UNL     1      -1.756  -1.351  -0.085  0.00  0.00    +0.052 A 
ATOM     11  C   UNL     1      -3.079  -1.098   0.235  0.00  0.00    +0.025 A 
ATOM     12  C   UNL     1      -3.881  -2.137   0.677  0.00  0.00    +0.002 A 
ATOM     13  C   UNL     1      -3.366  -3.415   0.794  0.00  0.00    +0.002 A 
ATOM     14  C   UNL     1      -2.039  -3.666   0.490  0.00  0.00    +0.025 A 
ATOM     15  C   UNL     1      -1.228  -2.624   0.068  0.00  0.00    +0.049 A 
ATOM     16  N   UNL     1       0.137  -2.806  -0.145  0.00  0.00    -0.331 N 
ATOM     17  H   UNL     1      -1.118   0.018  -1.443  0.00  0.00    +0.152 HD
ATOM     18  H   UNL     1       0.435  -3.365  -0.880  0.00  0.00    +0.147 HD
ENDROOT
BRANCH   1  23
ATOM     19  C   UNL     1      -0.622  -2.690   4.027  0.00  0.00    +0.121 A 
ATOM     20  C   UNL     1       0.355  -3.359   4.749  0.00  0.00    +0.045 A 
ATOM     21  C   UNL     1       1.573  -3.642   4.163  0.00  0.00    +0.004 A 
ATOM     22  C   UNL     1       1.820  -3.258   2.857  0.00  0.00    +0.006 A 
ATOM     23  C   UNL     1       0.847  -2.592   2.135  0.00  0.00    -0.019 A 
ATOM     24  C   UNL     1      -0.371  -2.302   2.719  0.00  0.00    +0.051 A 
BRANCH  19  25
ATOM     25  O   UNL     1      -1.822  -2.411   4.601  0.00  0.00    -0.492 OA
BRANCH  25  27
ATOM     26  C   UNL     1      -3.409  -2.436   6.424  0.00  0.00    +0.048 C 
ATOM     27  C   UNL     1      -2.009  -2.836   5.952  0.00  0.00    +0.225 C 
ENDBRANCH  25  27
ENDBRANCH  19  25
ENDBRANCH   1  23
BRANCH   5  28
ATOM     28  C   UNL     1       1.901   3.523   0.105  0.00  0.00    -0.043 A 
ATOM     29  C   UNL     1       1.393   4.224   1.183  0.00  0.00    +0.007 A 
ATOM     30  C   UNL     1       1.505   5.601   1.228  0.00  0.00    +0.046 A 
ATOM     31  C   UNL     1       2.120   6.280   0.186  0.00  0.00    +0.120 A 
ATOM     32  C   UNL     1       2.624   5.575  -0.896  0.00  0.00    +0.046 A 
ATOM     33  C   UNL     1       2.514   4.198  -0.934  0.00  0.00    +0.007 A 
BRANCH  31  34
ATOM     34  O   UNL     1       2.227   7.634   0.227  0.00  0.00    -0.495 OA
ATOM     35  C   UNL     1       1.685   8.294   1.372  0.00  0.00    +0.277 C 
ENDBRANCH  31  34
ENDBRANCH   5  28
TORSDOF 5
