REMARK  Name = ZINC35293191
REMARK  9 active torsions:
REMARK  status: ('A' for Active; 'I' for Inactive)
REMARK    1  A    between atoms: C_1  and  C_2
REMARK    2  A    between atoms: C_5  and  N_8
REMARK    3  A    between atoms: C_9  and  C_18
REMARK    4  A    between atoms: C_11  and  C_13
REMARK    5  A    between atoms: N_20  and  C_21
REMARK    6  A    between atoms: C_21  and  C_22
REMARK    7  A    between atoms: C_22  and  C_23
REMARK    8  A    between atoms: C_23  and  N_24
REMARK    9  A    between atoms: C_29  and  C_31
REMARK                            x       y       z     vdW  Elec       q    Type
REMARK                         _______ _______ _______ _____ _____    ______ ____
ROOT
ATOM      1  N   UNL     1       0.451  -6.272   0.524  0.00  0.00    -0.227 N 
ATOM      2  C   UNL     1       0.623  -4.976   0.935  0.00  0.00    +0.130 A 
ATOM      3  C   UNL     1       0.022  -4.167  -0.005  0.00  0.00    +0.063 A 
ATOM      4  C   UNL     1      -0.520  -4.998  -0.999  0.00  0.00    +0.100 A 
ATOM      5  N   UNL     1      -0.257  -6.252  -0.684  0.00  0.00    -0.165 NA
ENDROOT
BRANCH   1  10
ATOM      6  C   UNL     1       2.303 -10.903   3.228  0.00  0.00    +0.044 C 
ATOM      7  C   UNL     1       1.812  -9.673   2.510  0.00  0.00    -0.050 A 
ATOM      8  C   UNL     1       1.185  -8.665   3.219  0.00  0.00    +0.005 A 
ATOM      9  C   UNL     1       0.733  -7.536   2.564  0.00  0.00    +0.028 A 
ATOM     10  C   UNL     1       0.909  -7.415   1.191  0.00  0.00    +0.066 A 
ATOM     11  C   UNL     1       1.538  -8.429   0.482  0.00  0.00    +0.028 A 
ATOM     12  C   UNL     1       1.993  -9.553   1.144  0.00  0.00    +0.005 A 
ENDBRANCH   1  10
BRANCH   4  13
ATOM     13  C   UNL     1      -1.255  -4.544  -2.199  0.00  0.00    +0.039 A 
ATOM     14  C   UNL     1      -1.813  -5.290  -3.202  0.00  0.00    +0.018 A 
ATOM     15  C   UNL     1      -2.458  -4.639  -4.232  0.00  0.00    +0.008 A 
ATOM     16  C   UNL     1      -2.519  -3.283  -4.221  0.00  0.00    +0.046 A 
ATOM     17  S   UNL     1      -1.651  -2.881  -2.713  0.00  0.00    -0.095 S 
ENDBRANCH   4  13
BRANCH   2  18
ATOM     18  C   UNL     1       1.319  -4.532   2.152  0.00  0.00    +0.263 C 
ATOM     19  O   UNL     1       1.903  -5.341   2.848  0.00  0.00    -0.269 OA
ATOM     20  N   UNL     1       1.308  -3.229   2.497  0.00  0.00    -0.310 N 
ATOM     21  H   UNL     1       0.783  -2.596   1.984  0.00  0.00    +0.149 HD
BRANCH  20  22
ATOM     22  C   UNL     1       2.091  -2.769   3.647  0.00  0.00    +0.103 C 
BRANCH  22  23
ATOM     23  C   UNL     1       1.906  -1.260   3.819  0.00  0.00    +0.000 C 
BRANCH  23  24
ATOM     24  C   UNL     1       2.724  -0.780   5.020  0.00  0.00    -0.077 C 
BRANCH  24  25
ATOM     25  N   UNL     1       2.546   0.669   5.185  0.00  0.00    +0.381 N 
ATOM     26  C   UNL     1       1.146   0.953   5.520  0.00  0.00    -0.078 C 
ATOM     27  C   UNL     1       0.937   2.466   5.613  0.00  0.00    -0.019 C 
ATOM     28  C   UNL     1       1.850   3.035   6.704  0.00  0.00    -0.003 C 
ATOM     29  C   UNL     1       3.302   2.668   6.383  0.00  0.00    -0.016 C 
ATOM     30  C   UNL     1       3.422   1.148   6.261  0.00  0.00    -0.072 C 
ATOM     31  C   UNL     1       4.872   0.776   5.941  0.00  0.00    -0.013 C 
ATOM     32  H   UNL     1       2.786   1.136   4.324  0.00  0.00    -0.081 HD
ENDBRANCH  24  25
ENDBRANCH  23  24
ENDBRANCH  22  23
ENDBRANCH  20  22
ENDBRANCH   2  18
TORSDOF 7
