REMARK  Name = ZINC10174613
REMARK  7 active torsions:
REMARK  status: ('A' for Active; 'I' for Inactive)
REMARK    1  A    between atoms: C_1  and  C_2
REMARK    2  A    between atoms: C_15  and  C_17
REMARK    3  A    between atoms: C_17  and  N_18
REMARK    4  A    between atoms: N_18  and  C_19
REMARK    5  A    between atoms: C_24  and  S_25
REMARK    6  A    between atoms: S_25  and  C_26
REMARK    7  A    between atoms: C_26  and  C_27
REMARK                            x       y       z     vdW  Elec       q    Type
REMARK                         _______ _______ _______ _____ _____    ______ ____
ROOT
ATOM      1  C   UNL     1       1.395   3.522   0.409  0.00  0.00    +0.029 C 
ATOM      2  C   UNL     1       1.411   2.047  -0.000  0.00  0.00    +0.087 C 
ATOM      3  C   UNL     1      -0.018   1.502   0.010  0.00  0.00    +0.118 C 
ATOM      4  C   UNL     1       0.002  -0.004   0.002  0.00  0.00    +0.219 C 
ATOM      5  O   UNL     1      -0.266  -0.604  -1.018  0.00  0.00    -0.275 OA
ATOM      6  N   UNL     1       0.316  -0.692   1.122  0.00  0.00    -0.284 N 
ATOM      7  C   UNL     1       0.715  -0.018   2.283  0.00  0.00    +0.055 A 
ATOM      8  C   UNL     1       0.145  -0.315   3.509  0.00  0.00    +0.025 A 
ATOM      9  C   UNL     1       0.574   0.347   4.645  0.00  0.00    +0.002 A 
ATOM     10  C   UNL     1       1.571   1.302   4.559  0.00  0.00    +0.002 A 
ATOM     11  C   UNL     1       2.138   1.611   3.337  0.00  0.00    +0.025 A 
ATOM     12  C   UNL     1       1.704   0.961   2.192  0.00  0.00    +0.058 A 
ATOM     13  N   UNL     1       2.239   1.290   0.939  0.00  0.00    -0.265 N 
ATOM     14  C   UNL     1       3.490   0.917   0.606  0.00  0.00    +0.237 C 
ATOM     15  O   UNL     1       3.941   1.208  -0.482  0.00  0.00    -0.274 OA
ATOM     16  H   UNL     1       0.265  -1.661   1.122  0.00  0.00    +0.155 HD
ENDROOT
BRANCH  14  17
ATOM     17  C   UNL     1       4.330   0.138   1.585  0.00  0.00    +0.198 C 
BRANCH  17  18
ATOM     18  N   UNL     1       5.639  -0.144   0.991  0.00  0.00    -0.335 N 
ATOM     19  H   UNL     1       5.841   0.166   0.094  0.00  0.00    +0.147 HD
BRANCH  18  20
ATOM     20  C   UNL     1       6.598  -0.861   1.716  0.00  0.00    +0.041 A 
ATOM     21  C   UNL     1       6.313  -1.300   3.000  0.00  0.00    +0.024 A 
ATOM     22  C   UNL     1       7.260  -2.013   3.712  0.00  0.00    +0.002 A 
ATOM     23  C   UNL     1       8.495  -2.281   3.153  0.00  0.00    +0.001 A 
ATOM     24  C   UNL     1       8.790  -1.841   1.876  0.00  0.00    +0.016 A 
ATOM     25  C   UNL     1       7.845  -1.130   1.151  0.00  0.00    +0.029 A 
BRANCH  25  26
ATOM     26  S   UNL     1       8.218  -0.569  -0.477  0.00  0.00    -0.114 S 
BRANCH  26  27
ATOM     27  C   UNL     1       9.913  -1.147  -0.763  0.00  0.00    +0.169 C 
BRANCH  27  28
ATOM     28  C   UNL     1      10.361  -0.727  -2.139  0.00  0.00    +0.221 C 
ATOM     29  O   UNL     1       9.611  -0.100  -2.856  0.00  0.00    -0.275 OA
ATOM     30  N   UNL     1      11.596  -1.049  -2.573  0.00  0.00    -0.329 N 
ATOM     31  H   UNL     1      12.196  -1.551  -1.999  0.00  0.00    +0.145 HD
ATOM     32  H   UNL     1      11.885  -0.779  -3.458  0.00  0.00    +0.145 HD
ENDBRANCH  27  28
ENDBRANCH  26  27
ENDBRANCH  25  26
ENDBRANCH  18  20
ENDBRANCH  17  18
ENDBRANCH  14  17
TORSDOF 6
