REMARK  Name = ZINC63879222
REMARK  13 active torsions:
REMARK  status: ('A' for Active; 'I' for Inactive)
REMARK    1  A    between atoms: C_1  and  C_2
REMARK    2  A    between atoms: N_4  and  C_5
REMARK    3  A    between atoms: C_5  and  C_7
REMARK    4  A    between atoms: C_5  and  C_17
REMARK    5  A    between atoms: C_7  and  C_8
REMARK    6  A    between atoms: C_17  and  O_19
REMARK    7  A    between atoms: O_19  and  C_20
REMARK    8  A    between atoms: C_20  and  C_21
REMARK    9  A    between atoms: N_23  and  C_24
REMARK   10  A    between atoms: C_27  and  S_30
REMARK   11  A    between atoms: S_30  and  N_33
REMARK   12  A    between atoms: N_33  and  C_34
REMARK   13  A    between atoms: N_33  and  C_35
REMARK                            x       y       z     vdW  Elec       q    Type
REMARK                         _______ _______ _______ _____ _____    ______ ____
ROOT
ATOM      1  C   UNL     1      -1.191  -2.662  -0.450  0.00  0.00    +0.328 C 
ATOM      2  O   UNL     1      -1.787  -1.952   0.325  0.00  0.00    -0.249 OA
ENDROOT
BRANCH   1   3
ATOM      3  C   UNL     1       0.023  -2.138  -1.172  0.00  0.00    +0.186 C 
BRANCH   3   7
ATOM      4  C   UNL     1      -0.001   1.495   0.036  0.00  0.00    +0.109 C 
ATOM      5  C   UNL     1       0.016  -0.012   0.019  0.00  0.00    +0.211 C 
ATOM      6  O   UNL     1       0.037  -0.630   1.062  0.00  0.00    -0.276 OA
ATOM      7  N   UNL     1       0.007  -0.673  -1.155  0.00  0.00    -0.302 N 
ATOM      8  H   UNL     1      -0.010  -0.179  -1.990  0.00  0.00    +0.150 HD
ENDBRANCH   3   7
BRANCH   3   9
ATOM      9  C   UNL     1       1.288  -2.642  -0.473  0.00  0.00    +0.067 C 
BRANCH   9  10
ATOM     10  C   UNL     1       2.500  -2.220  -1.264  0.00  0.00    -0.039 C 
ATOM     11  C   UNL     1       3.264  -1.124  -1.058  0.00  0.00    -0.001 A 
ATOM     12  C   UNL     1       3.199  -0.036  -0.075  0.00  0.00    +0.010 A 
ATOM     13  C   UNL     1       4.126   0.947  -0.121  0.00  0.00    +0.001 A 
ATOM     14  C   UNL     1       5.146   0.953  -1.082  0.00  0.00    +0.002 A 
ATOM     15  C   UNL     1       5.273  -0.011  -2.018  0.00  0.00    +0.026 A 
ATOM     16  C   UNL     1       4.352  -1.095  -2.062  0.00  0.00    +0.043 A 
ATOM     17  N   UNL     1       4.263  -2.133  -2.858  0.00  0.00    -0.380 N 
ATOM     18  C   UNL     1       3.111  -2.942  -2.444  0.00  0.00    +0.144 C 
ATOM     19  H   UNL     1       4.861  -2.334  -3.595  0.00  0.00    +0.160 HD
ENDBRANCH   9  10
ENDBRANCH   3   9
ENDBRANCH   1   3
BRANCH   1  20
ATOM     20  O   UNL     1      -1.611  -3.918  -0.668  0.00  0.00    -0.454 OA
BRANCH  20  21
ATOM     21  C   UNL     1      -2.770  -4.349   0.050  0.00  0.00    +0.328 C 
BRANCH  21  22
ATOM     22  C   UNL     1      -3.089  -5.774  -0.320  0.00  0.00    +0.255 C 
ATOM     23  O   UNL     1      -2.394  -6.363  -1.120  0.00  0.00    -0.272 OA
ATOM     24  N   UNL     1      -4.148  -6.394   0.238  0.00  0.00    -0.283 N 
ATOM     25  H   UNL     1      -4.664  -5.947   0.927  0.00  0.00    +0.155 HD
BRANCH  24  26
ATOM     26  C   UNL     1      -4.502  -7.683  -0.176  0.00  0.00    +0.034 A 
ATOM     27  C   UNL     1      -5.840  -8.052  -0.234  0.00  0.00    +0.025 A 
ATOM     28  C   UNL     1      -6.186  -9.325  -0.643  0.00  0.00    +0.030 A 
ATOM     29  C   UNL     1      -5.203 -10.231  -0.996  0.00  0.00    +0.106 A 
ATOM     30  C   UNL     1      -3.870  -9.866  -0.940  0.00  0.00    +0.030 A 
ATOM     31  C   UNL     1      -3.518  -8.593  -0.537  0.00  0.00    +0.025 A 
BRANCH  29  32
ATOM     32  S   UNL     1      -5.650 -11.853  -1.518  0.00  0.00    +0.060 S 
ATOM     33  O   UNL     1      -4.523 -12.684  -1.271  0.00  0.00    -0.153 OA
ATOM     34  O   UNL     1      -6.930 -12.121  -0.962  0.00  0.00    -0.153 OA
BRANCH  32  35
ATOM     35  N   UNL     1      -5.848 -11.802  -3.161  0.00  0.00    -0.183 NA
ATOM     36  C   UNL     1      -4.710 -12.066  -4.045  0.00  0.00    +0.131 C 
ATOM     37  C   UNL     1      -7.162 -11.492  -3.731  0.00  0.00    +0.131 C 
ENDBRANCH  32  35
ENDBRANCH  29  32
ENDBRANCH  24  26
ENDBRANCH  21  22
ENDBRANCH  20  21
ENDBRANCH   1  20
TORSDOF 10
