REMARK  Name = ZINC37512644
REMARK  13 active torsions:
REMARK  status: ('A' for Active; 'I' for Inactive)
REMARK    1  A    between atoms: C_1  and  C_2
REMARK    2  A    between atoms: C_2  and  C_3
REMARK    3  A    between atoms: C_3  and  C_5
REMARK    4  A    between atoms: C_3  and  N_6
REMARK    5  A    between atoms: C_7  and  C_9
REMARK    6  A    between atoms: C_9  and  N_10
REMARK    7  A    between atoms: C_13  and  C_21
REMARK    8  A    between atoms: C_21  and  C_23
REMARK    9  A    between atoms: C_23  and  O_24
REMARK   10  A    between atoms: O_24  and  C_25
REMARK   11  A    between atoms: C_26  and  C_33
REMARK   12  A    between atoms: C_28  and  C_32
REMARK   13  A    between atoms: C_30  and  C_31
REMARK                            x       y       z     vdW  Elec       q    Type
REMARK                         _______ _______ _______ _____ _____    ______ ____
ROOT
ATOM      1  N   UNL     1      -5.587   0.404  -2.322  0.00  0.00    -0.257 N 
ATOM      2  C   UNL     1      -6.376  -0.738  -2.523  0.00  0.00    +0.079 A 
ATOM      3  C   UNL     1      -5.795  -1.986  -2.616  0.00  0.00    +0.038 A 
ATOM      4  C   UNL     1      -6.602  -3.113  -2.817  0.00  0.00    +0.023 A 
ATOM      5  C   UNL     1      -7.990  -2.967  -2.922  0.00  0.00    +0.015 A 
ATOM      6  C   UNL     1      -8.562  -1.717  -2.827  0.00  0.00    +0.048 A 
ATOM      7  C   UNL     1      -7.763  -0.600  -2.627  0.00  0.00    +0.143 A 
ATOM      8  O   UNL     1      -8.319   0.636  -2.529  0.00  0.00    -0.481 OA
ATOM      9  C   UNL     1      -7.667   1.567  -1.662  0.00  0.00    +0.325 C 
ATOM     10  C   UNL     1      -6.182   1.547  -1.916  0.00  0.00    +0.258 C 
ATOM     11  O   UNL     1      -5.524   2.554  -1.760  0.00  0.00    -0.271 OA
ENDROOT
BRANCH   4  12
ATOM     12  C   UNL     1      -5.992  -4.446  -2.919  0.00  0.00    +0.200 C 
ATOM     13  O   UNL     1      -4.789  -4.571  -2.828  0.00  0.00    -0.288 OA
BRANCH  12  14
ATOM     14  C   UNL     1      -6.862  -5.657  -3.135  0.00  0.00    +0.308 C 
BRANCH  14  15
ATOM     15  O   UNL     1      -6.042  -6.826  -3.199  0.00  0.00    -0.484 OA
BRANCH  15  16
ATOM     16  C   UNL     1      -6.675  -8.014  -3.392  0.00  0.00    +0.127 A 
ATOM     17  C   UNL     1      -7.108  -8.755  -2.303  0.00  0.00    -0.008 A 
ATOM     18  C   UNL     1      -7.751  -9.962  -2.502  0.00  0.00    +0.010 A 
ATOM     19  C   UNL     1      -7.964 -10.430  -3.785  0.00  0.00    -0.050 A 
ATOM     20  C   UNL     1      -7.533  -9.692  -4.873  0.00  0.00    +0.010 A 
ATOM     21  C   UNL     1      -6.895  -8.483  -4.679  0.00  0.00    -0.008 A 
ATOM     22  C   UNL     1      -6.431  -7.676  -5.865  0.00  0.00    +0.047 C 
ATOM     23  C   UNL     1      -8.665 -11.746  -3.999  0.00  0.00    +0.044 C 
ATOM     24  C   UNL     1      -6.875  -8.246  -0.904  0.00  0.00    +0.047 C 
ENDBRANCH  15  16
ENDBRANCH  14  15
ENDBRANCH  12  14
ENDBRANCH   4  12
BRANCH   1  25
ATOM     25  C   UNL     1      -4.140   0.357  -2.544  0.00  0.00    +0.209 C 
BRANCH  25  27
ATOM     26  N   UNL     1      -2.105  -0.148  -1.230  0.00  0.00    -0.311 N 
ATOM     27  C   UNL     1      -3.448  -0.040  -1.265  0.00  0.00    +0.231 C 
ATOM     28  O   UNL     1      -4.100  -0.261  -0.267  0.00  0.00    -0.274 OA
ATOM     29  H   UNL     1      -1.584   0.029  -2.029  0.00  0.00    +0.149 HD
BRANCH  26  30
ATOM     30  C   UNL     1      -1.433  -0.534   0.013  0.00  0.00    +0.070 C 
ATOM     31  C   UNL     1      -1.413  -2.059   0.130  0.00  0.00    +0.028 C 
BRANCH  30  33
ATOM     32  C   UNL     1      -0.019   1.526   0.010  0.00  0.00    +0.005 C 
ATOM     33  C   UNL     1       0.002  -0.004   0.002  0.00  0.00    +0.018 C 
ENDBRANCH  30  33
ENDBRANCH  26  30
ENDBRANCH  25  27
ENDBRANCH   1  25
TORSDOF 8
