REMARK  Name = ZINC12035968
REMARK  7 active torsions:
REMARK  status: ('A' for Active; 'I' for Inactive)
REMARK    1  A    between atoms: C_4  and  C_7
REMARK    2  A    between atoms: C_7  and  C_8
REMARK    3  A    between atoms: C_8  and  C_21
REMARK    4  A    between atoms: N_11  and  C_15
REMARK    5  A    between atoms: C_15  and  C_16
REMARK    6  A    between atoms: C_16  and  N_66
REMARK    7  A    between atoms: C_27  and  C_29
REMARK                            x       y       z     vdW  Elec       q    Type
REMARK                         _______ _______ _______ _____ _____    ______ ____
ROOT
ATOM      1  C   UNL     1       3.294  -2.273  -1.926  0.00  0.00    +0.119 C 
ATOM      2  C   UNL     1       2.616  -1.339  -2.909  0.00  0.00    +0.247 C 
ATOM      3  O   UNL     1       1.459  -0.976  -2.895  0.00  0.00    -0.273 OA
ATOM      4  N   UNL     1       3.565  -0.998  -3.802  0.00  0.00    -0.226 N 
ATOM      5  C   UNL     1       4.737  -1.580  -3.523  0.00  0.00    +0.309 C 
ATOM      6  O   UNL     1       5.744  -1.424  -4.186  0.00  0.00    -0.252 OA
ATOM      7  N   UNL     1       4.677  -2.357  -2.427  0.00  0.00    -0.284 N 
ATOM      8  H   UNL     1       5.402  -2.873  -2.041  0.00  0.00    +0.151 HD
ENDROOT
BRANCH   1   9
ATOM      9  C   UNL     1       2.631  -3.652  -1.943  0.00  0.00    +0.025 C 
ATOM     10  C   UNL     1       3.381  -4.590  -0.996  0.00  0.00    +0.025 C 
ATOM     11  C   UNL     1       2.694  -5.959  -0.989  0.00  0.00    +0.108 C 
ATOM     12  N   UNL     1       2.598  -6.447  -2.371  0.00  0.00    -0.297 N 
ATOM     13  C   UNL     1       1.975  -5.584  -3.384  0.00  0.00    +0.108 C 
ATOM     14  C   UNL     1       2.670  -4.219  -3.364  0.00  0.00    +0.025 C 
ATOM     15  C   UNL     1       3.073  -7.664  -2.705  0.00  0.00    +0.253 C 
ATOM     16  O   UNL     1       3.692  -8.320  -1.888  0.00  0.00    -0.269 OA
BRANCH  15  17
ATOM     17  C   UNL     1       2.845  -8.196  -4.051  0.00  0.00    +0.074 A 
ATOM     18  C   UNL     1       3.540  -9.185  -4.729  0.00  0.00    +0.021 A 
ATOM     19  C   UNL     1       3.110  -9.496  -5.995  0.00  0.00    +0.008 A 
ATOM     20  C   UNL     1       2.043  -8.833  -6.515  0.00  0.00    +0.046 A 
ATOM     21  S   UNL     1       1.594  -7.746  -5.241  0.00  0.00    -0.092 S 
ENDBRANCH  15  17
ENDBRANCH   1   9
BRANCH   1  22
ATOM     22  C   UNL     1       3.267  -1.682  -0.515  0.00  0.00    +0.070 C 
BRANCH  22  26
ATOM     23  C   UNL     1       4.999   2.223  -0.573  0.00  0.00    +0.000 A 
ATOM     24  C   UNL     1       3.642   2.065  -0.783  0.00  0.00    +0.000 A 
ATOM     25  C   UNL     1       3.082   0.802  -0.765  0.00  0.00    +0.004 A 
ATOM     26  C   UNL     1       3.878  -0.304  -0.536  0.00  0.00    -0.045 A 
ATOM     27  C   UNL     1       5.235  -0.147  -0.326  0.00  0.00    +0.004 A 
ATOM     28  C   UNL     1       5.796   1.116  -0.345  0.00  0.00    +0.000 A 
ENDBRANCH  22  26
ENDBRANCH   1  22
BRANCH   4  29
ATOM     29  C   UNL     1       3.342  -0.100  -4.938  0.00  0.00    +0.099 C 
BRANCH  29  30
ATOM     30  C   UNL     1       2.899  -0.917  -6.154  0.00  0.00    -0.059 C 
BRANCH  30  35
ATOM     31  C   UNL     1       3.860   0.847  -7.530  0.00  0.00    -0.079 C 
ATOM     32  C   UNL     1       3.676   1.305  -8.998  0.00  0.00    -0.020 C 
ATOM     33  C   UNL     1       3.096   0.047  -9.684  0.00  0.00    -0.020 C 
ATOM     34  C   UNL     1       2.479  -0.784  -8.543  0.00  0.00    -0.079 C 
ATOM     35  N   UNL     1       2.681  -0.008  -7.319  0.00  0.00    +0.381 N 
ATOM     36  H   UNL     1       1.856   0.577  -7.139  0.00  0.00    -0.082 HD
ENDBRANCH  30  35
ENDBRANCH  29  30
ENDBRANCH   4  29
TORSDOF 7
