REMARK  Name = ZINC39563698
REMARK  14 active torsions:
REMARK  status: ('A' for Active; 'I' for Inactive)
REMARK    1  A    between atoms: C_1  and  C_2
REMARK    2  A    between atoms: N_9  and  C_10
REMARK    3  A    between atoms: C_10  and  C_12
REMARK    4  A    between atoms: C_12  and  N_13
REMARK    5  A    between atoms: N_13  and  C_14
REMARK    6  A    between atoms: N_13  and  C_15
REMARK    7  A    between atoms: C_17  and  C_41
REMARK    8  A    between atoms: C_20  and  O_40
REMARK    9  A    between atoms: C_22  and  C_26
REMARK   10  A    between atoms: C_26  and  C_28
REMARK   11  A    between atoms: C_26  and  C_29
REMARK   12  A    between atoms: N_31  and  C_32
REMARK   13  A    between atoms: N_31  and  C_33
REMARK   14  A    between atoms: C_33  and  C_34
REMARK                            x       y       z     vdW  Elec       q    Type
REMARK                         _______ _______ _______ _____ _____    ______ ____
ROOT
ATOM      1  C   UNL     1      -0.086   1.980   0.571  0.00  0.00    +0.014 C 
ATOM      2  C   UNL     1      -0.242   0.465   0.428  0.00  0.00    +0.039 C 
ATOM      3  C   UNL     1      -1.697   0.083   0.644  0.00  0.00    +0.031 A 
ATOM      4  C   UNL     1      -2.021  -1.006   1.357  0.00  0.00    +0.013 A 
ATOM      5  S   UNL     1      -3.791  -1.020   1.319  0.00  0.00    -0.057 S 
ATOM      6  C   UNL     1      -4.026   0.367   0.395  0.00  0.00    +0.163 A 
ATOM      7  N   UNL     1      -2.760   0.791   0.148  0.00  0.00    -0.339 N 
ATOM      8  N   UNL     1      -5.177   0.917   0.001  0.00  0.00    -0.158 NA
ATOM      9  C   UNL     1      -1.091  -1.964   2.021  0.00  0.00    +0.051 C 
ATOM     10  C   UNL     1       0.334  -1.742   1.479  0.00  0.00    -0.022 C 
ATOM     11  C   UNL     1       0.633  -0.240   1.473  0.00  0.00    +0.033 C 
ATOM     12  C   UNL     1       2.097   0.003   1.091  0.00  0.00    +0.123 C 
ATOM     13  C   UNL     1       3.027  -0.716   2.066  0.00  0.00    +0.029 C 
ATOM     14  C   UNL     1       2.744  -2.220   1.999  0.00  0.00    +0.007 C 
ATOM     15  C   UNL     1       1.298  -2.469   2.422  0.00  0.00    +0.008 C 
ATOM     16  C   UNL     1       0.452  -2.318   0.066  0.00  0.00    +0.012 C 
ATOM     17  H   UNL     1      -2.608   1.593  -0.378  0.00  0.00    +0.167 HD
ENDROOT
BRANCH   8  18
ATOM     18  C   UNL     1      -6.330   0.356   0.341  0.00  0.00    +0.222 C 
ATOM     19  O   UNL     1      -6.339  -0.658   1.013  0.00  0.00    -0.276 OA
BRANCH  18  20
ATOM     20  C   UNL     1      -7.629   0.977  -0.103  0.00  0.00    +0.020 C 
BRANCH  20  21
ATOM     21  N   UNL     1      -8.753   0.174   0.399  0.00  0.00    +0.382 N 
ATOM     22  C   UNL     1     -10.018   0.842   0.068  0.00  0.00    -0.096 C 
ATOM     23  C   UNL     1      -8.723  -1.155  -0.227  0.00  0.00    -0.096 C 
ATOM     24  H   UNL     1      -8.675   0.077   1.400  0.00  0.00    -0.082 HD
ENDBRANCH  20  21
ENDBRANCH  18  20
ENDBRANCH   8  18
BRANCH  13  25
ATOM     25  C   UNL     1       4.482  -0.448   1.679  0.00  0.00    +0.078 C 
ATOM     26  C   UNL     1       4.772  -1.078   0.315  0.00  0.00    +0.017 C 
BRANCH  25  27
ATOM     27  C   UNL     1       5.397  -1.050   2.715  0.00  0.00    +0.219 C 
ATOM     28  O   UNL     1       5.887  -2.143   2.529  0.00  0.00    -0.275 OA
ATOM     29  N   UNL     1       5.669  -0.372   3.848  0.00  0.00    -0.300 N 
ATOM     30  C   UNL     1       4.989   0.895   4.125  0.00  0.00    +0.132 C 
BRANCH  29  31
ATOM     31  C   UNL     1       6.646  -0.903   4.801  0.00  0.00    +0.142 C 
BRANCH  31  32
ATOM     32  C   UNL     1       8.018  -0.382   4.458  0.00  0.00    -0.030 A 
ATOM     33  C   UNL     1       8.826  -1.085   3.584  0.00  0.00    +0.005 A 
ATOM     34  C   UNL     1      10.084  -0.606   3.270  0.00  0.00    +0.000 A 
ATOM     35  C   UNL     1      10.534   0.576   3.829  0.00  0.00    +0.000 A 
ATOM     36  C   UNL     1       9.725   1.279   4.702  0.00  0.00    +0.000 A 
ATOM     37  C   UNL     1       8.466   0.803   5.013  0.00  0.00    +0.005 A 
ENDBRANCH  31  32
ENDBRANCH  29  31
ENDBRANCH  25  27
ENDBRANCH  13  25
BRANCH  12  38
ATOM     38  O   UNL     1       2.369   1.405   1.129  0.00  0.00    -0.391 OA
ATOM     39  H   UNL     1       3.251   1.643   0.813  0.00  0.00    +0.210 HD
ENDBRANCH  12  38
TORSDOF 8
