REMARK  Name = ZINC08923342
REMARK  9 active torsions:
REMARK  status: ('A' for Active; 'I' for Inactive)
REMARK    1  A    between atoms: C_1  and  C_2
REMARK    2  A    between atoms: C_2  and  O_3
REMARK    3  A    between atoms: O_3  and  C_4
REMARK    4  A    between atoms: C_4  and  C_6
REMARK    5  A    between atoms: C_10  and  N_11
REMARK    6  A    between atoms: C_12  and  C_14
REMARK    7  A    between atoms: C_14  and  S_15
REMARK    8  A    between atoms: S_15  and  C_16
REMARK    9  A    between atoms: N_30  and  C_31
REMARK                            x       y       z     vdW  Elec       q    Type
REMARK                         _______ _______ _______ _____ _____    ______ ____
ROOT
ATOM      1  N   UNL     1       5.329  -2.502   2.007  0.00  0.00    -0.279 N 
ATOM      2  C   UNL     1       6.607  -2.402   1.591  0.00  0.00    +0.228 C 
ATOM      3  O   UNL     1       6.904  -1.600   0.731  0.00  0.00    -0.275 OA
ATOM      4  H   UNL     1       5.092  -3.143   2.695  0.00  0.00    +0.155 HD
ENDROOT
BRANCH   1   9
ATOM      5  C   UNL     1       2.999  -1.642   1.746  0.00  0.00    +0.091 A 
ATOM      6  C   UNL     1       2.179  -0.684   1.016  0.00  0.00    -0.021 A 
ATOM      7  C   UNL     1       2.846   0.061   0.110  0.00  0.00    -0.004 A 
ATOM      8  S   UNL     1       4.530  -0.479   0.225  0.00  0.00    -0.077 S 
ATOM      9  C   UNL     1       4.354  -1.688   1.453  0.00  0.00    +0.086 A 
ATOM     10  C   UNL     1       2.288   1.105  -0.807  0.00  0.00    +0.043 C 
ATOM     11  C   UNL     1       1.406   2.067  -0.000  0.00  0.00    +0.005 C 
ATOM     12  C   UNL     1      -0.019   1.523   0.010  0.00  0.00    +0.001 C 
ATOM     13  C   UNL     1       0.002  -0.004   0.002  0.00  0.00    +0.005 C 
ATOM     14  C   UNL     1       0.683  -0.534   1.259  0.00  0.00    +0.037 C 
BRANCH   5  15
ATOM     15  C   UNL     1       2.413  -2.526   2.756  0.00  0.00    +0.342 C 
ATOM     16  O   UNL     1       1.984  -3.618   2.434  0.00  0.00    -0.245 OA
BRANCH  15  17
ATOM     17  O   UNL     1       2.348  -2.130   4.044  0.00  0.00    -0.461 OA
BRANCH  17  19
ATOM     18  C   UNL     1       1.769  -2.438   6.389  0.00  0.00    +0.048 C 
ATOM     19  C   UNL     1       1.755  -3.057   4.990  0.00  0.00    +0.229 C 
ENDBRANCH  17  19
ENDBRANCH  15  17
ENDBRANCH   5  15
ENDBRANCH   1   9
BRANCH   2  20
ATOM     20  C   UNL     1       7.667  -3.287   2.194  0.00  0.00    +0.173 C 
BRANCH  20  21
ATOM     21  S   UNL     1       9.267  -2.917   1.432  0.00  0.00    -0.078 S 
BRANCH  21  22
ATOM     22  C   UNL     1      10.290  -4.061   2.297  0.00  0.00    +0.172 A 
ATOM     23  N   UNL     1       9.751  -4.843   3.206  0.00  0.00    -0.221 NA
ATOM     24  C   UNL     1      10.494  -5.731   3.885  0.00  0.00    +0.104 A 
ATOM     25  C   UNL     1      10.192  -6.719   4.930  0.00  0.00    +0.026 A 
ATOM     26  C   UNL     1       9.020  -7.093   5.589  0.00  0.00    +0.012 A 
ATOM     27  C   UNL     1       9.057  -8.072   6.541  0.00  0.00    +0.001 A 
ATOM     28  C   UNL     1      10.253  -8.701   6.858  0.00  0.00    +0.002 A 
ATOM     29  C   UNL     1      11.421  -8.348   6.220  0.00  0.00    +0.026 A 
ATOM     30  C   UNL     1      11.406  -7.351   5.247  0.00  0.00    +0.049 A 
ATOM     31  N   UNL     1      12.397  -6.802   4.461  0.00  0.00    -0.349 N 
ATOM     32  H   UNL     1      13.332  -7.061   4.482  0.00  0.00    +0.166 HD
ATOM     33  C   UNL     1      11.863  -5.825   3.636  0.00  0.00    +0.131 A 
ATOM     34  C   UNL     1      12.429  -4.976   2.662  0.00  0.00    +0.279 A 
ATOM     35  O   UNL     1      13.622  -5.025   2.411  0.00  0.00    -0.265 OA
ATOM     36  N   UNL     1      11.623  -4.109   2.012  0.00  0.00    -0.289 N 
ATOM     37  C   UNL     1      12.183  -3.215   0.996  0.00  0.00    +0.154 C 
ENDBRANCH  21  22
ENDBRANCH  20  21
ENDBRANCH   2  20
TORSDOF 7
