REMARK  Name = ZINC25678292
REMARK  9 active torsions:
REMARK  status: ('A' for Active; 'I' for Inactive)
REMARK    1  A    between atoms: C_1  and  C_2
REMARK    2  A    between atoms: C_2  and  C_3
REMARK    3  A    between atoms: C_2  and  C_4
REMARK    4  A    between atoms: C_2  and  N_5
REMARK    5  A    between atoms: N_5  and  S_6
REMARK    6  A    between atoms: S_6  and  C_9
REMARK    7  A    between atoms: C_12  and  N_18
REMARK    8  A    between atoms: C_13  and  N_15
REMARK    9  A    between atoms: C_24  and  C_26
REMARK                            x       y       z     vdW  Elec       q    Type
REMARK                         _______ _______ _______ _____ _____    ______ ____
ROOT
ATOM      1  C   UNL     1      -4.132   1.521  -2.829  0.00  0.00    +0.108 A 
ATOM      2  C   UNL     1      -3.347   2.561  -2.364  0.00  0.00    +0.030 A 
ATOM      3  C   UNL     1      -3.050   3.626  -3.190  0.00  0.00    +0.027 A 
ATOM      4  C   UNL     1      -3.550   3.660  -4.486  0.00  0.00    +0.060 A 
ATOM      5  C   UNL     1      -4.344   2.617  -4.947  0.00  0.00    +0.149 A 
ATOM      6  C   UNL     1      -4.632   1.551  -4.117  0.00  0.00    +0.063 A 
ENDROOT
BRANCH   4   7
ATOM      7  N   UNL     1      -3.257   4.739  -5.322  0.00  0.00    -0.325 N 
ATOM      8  C   UNL     1      -1.817   4.807  -5.608  0.00  0.00    +0.124 C 
ATOM      9  C   UNL     1      -1.560   5.885  -6.666  0.00  0.00    +0.127 C 
ATOM     10  N   UNL     1      -2.163   7.145  -6.205  0.00  0.00    -0.295 N 
ATOM     11  C   UNL     1      -3.568   7.126  -5.770  0.00  0.00    +0.127 C 
ATOM     12  C   UNL     1      -3.746   5.999  -4.748  0.00  0.00    +0.124 C 
ATOM     13  C   UNL     1      -1.447   8.287  -6.182  0.00  0.00    +0.247 C 
ATOM     14  O   UNL     1      -0.321   8.308  -6.639  0.00  0.00    -0.270 OA
BRANCH  13  15
ATOM     15  C   UNL     1      -2.031   9.513  -5.600  0.00  0.00    +0.037 A 
ATOM     16  C   UNL     1      -2.901   9.418  -4.498  0.00  0.00    +0.013 A 
ATOM     17  C   UNL     1      -3.445  10.530  -3.943  0.00  0.00    +0.009 A 
ATOM     18  C   UNL     1      -3.150  11.799  -4.475  0.00  0.00    -0.018 A 
ATOM     19  C   UNL     1      -3.707  12.963  -3.921  0.00  0.00    +0.008 A 
ATOM     20  C   UNL     1      -3.404  14.178  -4.457  0.00  0.00    +0.001 A 
ATOM     21  C   UNL     1      -2.548  14.285  -5.552  0.00  0.00    +0.001 A 
ATOM     22  C   UNL     1      -1.990  13.180  -6.116  0.00  0.00    +0.008 A 
ATOM     23  C   UNL     1      -2.280  11.908  -5.589  0.00  0.00    -0.017 A 
ATOM     24  C   UNL     1      -1.722  10.748  -6.146  0.00  0.00    +0.021 A 
ENDBRANCH  13  15
ENDBRANCH   4   7
BRANCH   1  25
ATOM     25  S   UNL     1      -4.503   0.160  -1.774  0.00  0.00    +0.059 S 
ATOM     26  O   UNL     1      -5.550  -0.567  -2.401  0.00  0.00    -0.153 OA
ATOM     27  O   UNL     1      -4.622   0.685  -0.459  0.00  0.00    -0.153 OA
BRANCH  25  28
ATOM     28  N   UNL     1      -3.175  -0.831  -1.768  0.00  0.00    -0.185 NA
ATOM     29  H   UNL     1      -2.701  -1.088  -0.810  0.00  0.00    +0.149 HD
BRANCH  28  31
ATOM     30  C   UNL     1      -2.618  -0.513  -4.128  0.00  0.00    +0.029 C 
ATOM     31  C   UNL     1      -2.776  -1.527  -2.994  0.00  0.00    +0.032 C 
ATOM     32  C   UNL     1      -1.446  -2.246  -2.762  0.00  0.00    +0.029 C 
ATOM     33  C   UNL     1      -3.849  -2.551  -3.372  0.00  0.00    +0.029 C 
ENDBRANCH  28  31
ENDBRANCH  25  28
ENDBRANCH   1  25
BRANCH   5  34
ATOM     34  N   UNL     1      -4.879   2.648  -6.327  0.00  0.00    +0.058 N 
ATOM     35  O   UNL     1      -5.574   1.733  -6.731  0.00  0.00    -0.126 OA
ATOM     36  O   UNL     1      -4.624   3.588  -7.058  0.00  0.00    -0.126 OA
ENDBRANCH   5  34
TORSDOF 6
