REMARK  Name = ZINC19357233
REMARK  10 active torsions:
REMARK  status: ('A' for Active; 'I' for Inactive)
REMARK    1  A    between atoms: C_1  and  C_2
REMARK    2  A    between atoms: C_2  and  C_3
REMARK    3  A    between atoms: C_2  and  C_4
REMARK    4  A    between atoms: C_4  and  C_6
REMARK    5  A    between atoms: C_4  and  N_23
REMARK    6  A    between atoms: C_6  and  O_8
REMARK    7  A    between atoms: O_8  and  C_9
REMARK    8  A    between atoms: C_9  and  C_10
REMARK    9  A    between atoms: C_10  and  C_12
REMARK   10  A    between atoms: C_24  and  C_26
REMARK                            x       y       z     vdW  Elec       q    Type
REMARK                         _______ _______ _______ _____ _____    ______ ____
ROOT
ATOM      1  C   UNL     1      -3.525  -2.453   0.608  0.00  0.00    +0.328 C 
ATOM      2  O   UNL     1      -2.424  -2.772   0.989  0.00  0.00    -0.249 OA
ENDROOT
BRANCH   1   3
ATOM      3  C   UNL     1      -3.750  -1.085   0.015  0.00  0.00    +0.185 C 
BRANCH   3   4
ATOM      4  N   UNL     1      -2.489  -0.340   0.013  0.00  0.00    -0.298 N 
ATOM      5  C   UNL     1      -2.502   1.008   0.020  0.00  0.00    +0.246 C 
ATOM      6  O   UNL     1      -3.561   1.605   0.028  0.00  0.00    -0.270 OA
ATOM      7  H   UNL     1      -1.531  -0.880   0.006  0.00  0.00    +0.150 HD
BRANCH   5   8
ATOM      8  C   UNL     1      -1.231   1.759   0.017  0.00  0.00    +0.055 A 
ATOM      9  C   UNL     1      -0.013   1.076   0.008  0.00  0.00    +0.016 A 
ATOM     10  C   UNL     1       1.171   1.782   0.001  0.00  0.00    +0.021 A 
ATOM     11  C   UNL     1       1.155   3.168   0.008  0.00  0.00    +0.042 A 
ATOM     12  C   UNL     1      -0.049   3.852   0.022  0.00  0.00    +0.040 A 
ATOM     13  C   UNL     1      -1.241   3.156   0.030  0.00  0.00    +0.054 A 
ATOM     14 CL   UNL     1      -2.750   4.015   0.048  0.00  0.00    -0.083 Cl
ATOM     15 CL   UNL     1       2.650   4.050  -0.001  0.00  0.00    -0.083 Cl
ENDBRANCH   5   8
ENDBRANCH   3   4
BRANCH   3  17
ATOM     16  C   UNL     1      -3.284  -2.089  -2.224  0.00  0.00    +0.009 C 
ATOM     17  C   UNL     1      -4.260  -1.229  -1.420  0.00  0.00    +0.014 C 
ATOM     18  C   UNL     1      -5.637  -1.897  -1.407  0.00  0.00    +0.009 C 
ENDBRANCH   3  17
ENDBRANCH   1   3
BRANCH   1  19
ATOM     19  O   UNL     1      -4.547  -3.316   0.712  0.00  0.00    -0.455 OA
BRANCH  19  20
ATOM     20  C   UNL     1      -4.257  -4.615   1.293  0.00  0.00    +0.311 C 
BRANCH  20  21
ATOM     21  C   UNL     1      -5.516  -5.442   1.328  0.00  0.00    +0.200 C 
ATOM     22  O   UNL     1      -6.556  -4.982   0.905  0.00  0.00    -0.288 OA
BRANCH  21  23
ATOM     23  C   UNL     1      -5.484  -6.805   1.874  0.00  0.00    +0.025 A 
ATOM     24  C   UNL     1      -4.284  -7.339   2.357  0.00  0.00    +0.015 A 
ATOM     25  C   UNL     1      -4.255  -8.616   2.874  0.00  0.00    +0.050 A 
ATOM     26  C   UNL     1      -5.417  -9.376   2.906  0.00  0.00    +0.162 A 
ATOM     27  C   UNL     1      -6.613  -8.854   2.423  0.00  0.00    +0.163 A 
ATOM     28  C   UNL     1      -6.654  -7.575   1.908  0.00  0.00    +0.061 A 
ATOM     29  O   UNL     1      -7.745  -9.615   2.463  0.00  0.00    -0.488 OA
ATOM     30  C   UNL     1      -7.768 -10.749   1.594  0.00  0.00    +0.232 C 
ATOM     31  C   UNL     1      -7.079 -11.939   2.243  0.00  0.00    +0.082 C 
ATOM     32  C   UNL     1      -5.595 -11.696   2.470  0.00  0.00    +0.232 C 
ATOM     33  O   UNL     1      -5.392 -10.642   3.412  0.00  0.00    -0.488 OA
ENDBRANCH  21  23
ENDBRANCH  20  21
ENDBRANCH  19  20
ENDBRANCH   1  19
TORSDOF 8
