REMARK  Name = ZINC04857276
REMARK  4 active torsions:
REMARK  status: ('A' for Active; 'I' for Inactive)
REMARK    1  A    between atoms: C_1  and  C_2
REMARK    2  A    between atoms: C_4  and  C_14
REMARK    3  A    between atoms: N_16  and  C_17
REMARK    4  A    between atoms: C_20  and  N_24
REMARK                            x       y       z     vdW  Elec       q    Type
REMARK                         _______ _______ _______ _____ _____    ______ ____
ROOT
ATOM      1  C   UNL     1       0.936   3.448   0.119  0.00  0.00    +0.262 C 
ATOM      2  O   UNL     1      -0.203   3.846   0.240  0.00  0.00    -0.271 OA
ATOM      3  N   UNL     1       1.924   4.312  -0.186  0.00  0.00    -0.281 N 
ATOM      4  H   UNL     1       2.832   3.990  -0.297  0.00  0.00    +0.155 HD
ENDROOT
BRANCH   1   7
ATOM      5  C   UNL     1       2.777   2.018  -1.673  0.00  0.00    +0.056 C 
ATOM      6  C   UNL     1       1.557   1.340  -1.047  0.00  0.00    +0.220 C 
ATOM      7  C   UNL     1       1.246   1.985   0.311  0.00  0.00    +0.299 C 
ATOM      8  O   UNL     1       0.110   1.320   0.874  0.00  0.00    -0.472 OA
ATOM      9  C   UNL     1       0.117  -0.040   0.835  0.00  0.00    +0.163 A 
ATOM     10  C   UNL     1      -0.745  -0.749   1.660  0.00  0.00    +0.049 A 
ATOM     11  C   UNL     1      -0.751  -2.131   1.630  0.00  0.00    +0.004 A 
ATOM     12  C   UNL     1       0.100  -2.810   0.778  0.00  0.00    +0.004 A 
ATOM     13  C   UNL     1       0.961  -2.110  -0.045  0.00  0.00    +0.049 A 
ATOM     14  C   UNL     1       0.974  -0.723  -0.019  0.00  0.00    +0.163 A 
ATOM     15  O   UNL     1       1.833  -0.048  -0.831  0.00  0.00    -0.481 OA
ENDBRANCH   1   7
BRANCH   3  16
ATOM     16  C   UNL     1       1.639   5.673  -0.343  0.00  0.00    +0.052 A 
ATOM     17  C   UNL     1       0.333   6.090  -0.562  0.00  0.00    +0.027 A 
ATOM     18  C   UNL     1       0.055   7.434  -0.716  0.00  0.00    +0.034 A 
ATOM     19  C   UNL     1       1.076   8.365  -0.652  0.00  0.00    +0.128 A 
ATOM     20  C   UNL     1       2.378   7.954  -0.434  0.00  0.00    +0.054 A 
ATOM     21  C   UNL     1       2.662   6.611  -0.274  0.00  0.00    +0.064 A 
ATOM     22 CL   UNL     1       4.296   6.096   0.007  0.00  0.00    -0.082 Cl
BRANCH  19  23
ATOM     23  N   UNL     1       0.774   9.805  -0.819  0.00  0.00    +0.056 N 
ATOM     24  O   UNL     1      -0.373  10.168  -1.011  0.00  0.00    -0.126 OA
ATOM     25  O   UNL     1       1.672  10.626  -0.763  0.00  0.00    -0.126 OA
ENDBRANCH  19  23
ENDBRANCH   3  16
TORSDOF 3
