REMARK  Name = ZINC39916346
REMARK  1 active torsions:
REMARK  status: ('A' for Active; 'I' for Inactive)
REMARK    1  A    between atoms: C_4  and  C_7
REMARK                            x       y       z     vdW  Elec       q    Type
REMARK                         _______ _______ _______ _____ _____    ______ ____
ROOT
ATOM      1  C   UNL     1       3.711  -0.707  -0.038  0.00  0.00    +0.156 C 
ATOM      2  C   UNL     1       4.018  -1.172  -1.458  0.00  0.00    +0.149 C 
ATOM      3  C   UNL     1       5.228  -2.077  -1.363  0.00  0.00    +0.034 C 
ATOM      4  C   UNL     1       6.256  -1.869  -2.282  0.00  0.00    +0.014 A 
ATOM      5  C   UNL     1       7.374  -2.723  -2.337  0.00  0.00    +0.011 A 
ATOM      6  C   UNL     1       8.334  -2.512  -3.279  0.00  0.00    +0.001 A 
ATOM      7  C   UNL     1       8.237  -1.462  -4.187  0.00  0.00    +0.002 A 
ATOM      8  C   UNL     1       7.189  -0.591  -4.168  0.00  0.00    +0.024 A 
ATOM      9  C   UNL     1       6.167  -0.743  -3.218  0.00  0.00    +0.042 A 
ATOM     10  N   UNL     1       5.160   0.141  -3.171  0.00  0.00    -0.284 N 
ATOM     11  C   UNL     1       4.098   0.025  -2.371  0.00  0.00    +0.228 C 
ATOM     12  O   UNL     1       3.217   0.866  -2.362  0.00  0.00    -0.275 OA
ATOM     13  N   UNL     1       5.297  -2.980  -0.377  0.00  0.00    -0.289 N 
ATOM     14  C   UNL     1       4.375  -2.924   0.653  0.00  0.00    +0.186 C 
ATOM     15  N   UNL     1       3.631  -1.877   0.841  0.00  0.00    -0.246 NA
ATOM     16  N   UNL     1       4.244  -4.004   1.499  0.00  0.00    -0.266 N 
ATOM     17  C   UNL     1       3.326  -3.965   2.534  0.00  0.00    +0.165 A 
ATOM     18  N   UNL     1       2.496  -3.002   2.863  0.00  0.00    -0.225 NA
ATOM     19  C   UNL     1       1.647  -3.101   3.908  0.00  0.00    +0.080 A 
ATOM     20  C   UNL     1       0.711  -2.146   4.366  0.00  0.00    +0.029 A 
ATOM     21  C   UNL     1      -0.082  -2.407   5.453  0.00  0.00    +0.002 A 
ATOM     22  C   UNL     1       0.004  -3.609   6.141  0.00  0.00    +0.001 A 
ATOM     23  C   UNL     1       0.908  -4.567   5.720  0.00  0.00    +0.017 A 
ATOM     24  C   UNL     1       1.706  -4.314   4.632  0.00  0.00    +0.041 A 
ATOM     25  S   UNL     1       2.963  -5.215   3.758  0.00  0.00    -0.052 S 
ATOM     26  H   UNL     1       5.984  -3.664  -0.384  0.00  0.00    +0.155 HD
ATOM     27  H   UNL     1       4.795  -4.792   1.369  0.00  0.00    +0.157 HD
ATOM     28  H   UNL     1       5.199   0.909  -3.762  0.00  0.00    +0.155 HD
ENDROOT
BRANCH   1  32
ATOM     29  C   UNL     1      -0.017   1.378   0.010  0.00  0.00    +0.000 A 
ATOM     30  C   UNL     1       1.171   2.086   0.002  0.00  0.00    +0.000 A 
ATOM     31  C   UNL     1       2.377   1.411  -0.013  0.00  0.00    +0.006 A 
ATOM     32  C   UNL     1       2.396   0.029  -0.020  0.00  0.00    -0.022 A 
ATOM     33  C   UNL     1       1.208  -0.679  -0.012  0.00  0.00    +0.006 A 
ATOM     34  C   UNL     1       0.002  -0.004   0.002  0.00  0.00    +0.000 A 
ENDBRANCH   1  32
TORSDOF 1
