REMARK  Name = ZINC16128418
REMARK  8 active torsions:
REMARK  status: ('A' for Active; 'I' for Inactive)
REMARK    1  A    between atoms: C_1  and  C_2
REMARK    2  A    between atoms: C_5  and  S_21
REMARK    3  A    between atoms: C_7  and  N_8
REMARK    4  A    between atoms: N_8  and  S_9
REMARK    5  A    between atoms: S_9  and  C_12
REMARK    6  A    between atoms: C_15  and  N_18
REMARK    7  A    between atoms: S_21  and  N_24
REMARK    8  A    between atoms: N_24  and  C_25
REMARK                            x       y       z     vdW  Elec       q    Type
REMARK                         _______ _______ _______ _____ _____    ______ ____
ROOT
ATOM      1  C   UNL     1       3.579  -1.881   4.911  0.00  0.00    +0.046 C 
ATOM      2  C   UNL     1       2.793  -1.557   3.667  0.00  0.00    -0.028 A 
ATOM      3  C   UNL     1       3.446  -1.391   2.461  0.00  0.00    +0.007 A 
ATOM      4  C   UNL     1       2.725  -1.099   1.318  0.00  0.00    +0.029 A 
ATOM      5  C   UNL     1       1.351  -0.961   1.379  0.00  0.00    +0.110 A 
ATOM      6  C   UNL     1       0.692  -1.126   2.582  0.00  0.00    +0.053 A 
ATOM      7  C   UNL     1       1.412  -1.425   3.731  0.00  0.00    +0.053 A 
ENDROOT
BRANCH   5   8
ATOM      8  S   UNL     1       0.438  -0.582  -0.080  0.00  0.00    +0.072 S 
ATOM      9  O   UNL     1      -0.912  -0.939   0.182  0.00  0.00    -0.150 OA
ATOM     10  O   UNL     1       1.172  -1.122  -1.170  0.00  0.00    -0.150 OA
BRANCH   8  11
ATOM     11  N   UNL     1       0.465   1.064  -0.260  0.00  0.00    -0.216 N 
ATOM     12  H   UNL     1       0.910   1.461  -1.025  0.00  0.00    +0.174 HD
BRANCH  11  13
ATOM     13  C   UNL     1      -0.148   1.882   0.693  0.00  0.00    +0.048 A 
ATOM     14  C   UNL     1      -1.417   1.570   1.165  0.00  0.00    +0.026 A 
ATOM     15  C   UNL     1      -2.018   2.376   2.111  0.00  0.00    +0.022 A 
ATOM     16  C   UNL     1      -1.362   3.501   2.581  0.00  0.00    +0.041 A 
ATOM     17  C   UNL     1      -0.101   3.817   2.108  0.00  0.00    +0.022 A 
ATOM     18  C   UNL     1       0.508   3.011   1.166  0.00  0.00    +0.026 A 
ATOM     19 CL   UNL     1      -2.124   4.517   3.765  0.00  0.00    -0.084 Cl
ENDBRANCH  11  13
ENDBRANCH   8  11
ENDBRANCH   5   8
BRANCH   7  20
ATOM     20  N   UNL     1       0.749  -1.592   4.949  0.00  0.00    -0.216 N 
ATOM     21  H   UNL     1       1.166  -1.296   5.773  0.00  0.00    +0.174 HD
BRANCH  20  22
ATOM     22  S   UNL     1      -0.749  -2.297   4.986  0.00  0.00    +0.072 S 
ATOM     23  O   UNL     1      -1.097  -2.440   6.357  0.00  0.00    -0.150 OA
ATOM     24  O   UNL     1      -1.559  -1.578   4.066  0.00  0.00    -0.150 OA
BRANCH  22  25
ATOM     25  C   UNL     1      -0.575  -3.926   4.338  0.00  0.00    +0.109 A 
ATOM     26  C   UNL     1      -0.734  -4.152   2.984  0.00  0.00    +0.031 A 
ATOM     27  C   UNL     1      -0.593  -5.429   2.475  0.00  0.00    +0.034 A 
ATOM     28  C   UNL     1      -0.302  -6.482   3.321  0.00  0.00    +0.126 A 
ATOM     29  C   UNL     1      -0.147  -6.258   4.676  0.00  0.00    +0.034 A 
ATOM     30  C   UNL     1      -0.284  -4.979   5.185  0.00  0.00    +0.031 A 
BRANCH  28  31
ATOM     31  N   UNL     1      -0.155  -7.851   2.777  0.00  0.00    +0.056 N 
ATOM     32  O   UNL     1       0.101  -8.779   3.523  0.00  0.00    -0.126 OA
ATOM     33  O   UNL     1      -0.292  -8.049   1.583  0.00  0.00    -0.126 OA
ENDBRANCH  28  31
ENDBRANCH  22  25
ENDBRANCH  20  22
ENDBRANCH   7  20
TORSDOF 7
