REMARK  Name = ZINC20028665
REMARK  8 active torsions:
REMARK  status: ('A' for Active; 'I' for Inactive)
REMARK    1  A    between atoms: C_1  and  C_2
REMARK    2  A    between atoms: C_4  and  O_5
REMARK    3  A    between atoms: C_14  and  C_16
REMARK    4  A    between atoms: C_21  and  C_22
REMARK    5  A    between atoms: C_22  and  N_23
REMARK    6  A    between atoms: C_24  and  C_32
REMARK    7  A    between atoms: C_25  and  N_29
REMARK    8  A    between atoms: C_26  and  C_28
REMARK                            x       y       z     vdW  Elec       q    Type
REMARK                         _______ _______ _______ _____ _____    ______ ____
ROOT
ATOM      1  C   UNL     1      -3.270  -6.924   0.247  0.00  0.00    +0.045 C 
ATOM      2  C   UNL     1      -3.845  -6.210   1.443  0.00  0.00    -0.033 A 
ATOM      3  C   UNL     1      -4.713  -6.837   2.279  0.00  0.00    +0.091 A 
ATOM      4  C   UNL     1      -5.238  -6.147   3.392  0.00  0.00    +0.285 A 
ATOM      5  O   UNL     1      -4.902  -4.875   3.655  0.00  0.00    -0.425 OA
ATOM      6  C   UNL     1      -4.044  -4.194   2.864  0.00  0.00    +0.141 A 
ATOM      7  C   UNL     1      -3.483  -4.822   1.736  0.00  0.00    +0.021 A 
ATOM      8  C   UNL     1      -2.593  -4.121   0.914  0.00  0.00    +0.013 A 
ATOM      9  C   UNL     1      -2.276  -2.826   1.205  0.00  0.00    +0.024 A 
ATOM     10  C   UNL     1      -2.824  -2.200   2.325  0.00  0.00    +0.037 A 
ATOM     11  C   UNL     1      -3.708  -2.881   3.150  0.00  0.00    +0.070 A 
ATOM     12  N   UNL     1      -2.486  -0.879   2.613  0.00  0.00    -0.281 N 
ATOM     13  C   UNL     1      -2.273  -0.003   1.611  0.00  0.00    +0.249 C 
ATOM     14  O   UNL     1      -2.478  -0.336   0.460  0.00  0.00    -0.270 OA
ATOM     15  H   UNL     1      -2.393  -0.550   3.659  0.00  0.00    +0.155 HD
ENDROOT
BRANCH  13  16
ATOM     16  C   UNL     1      -1.792   1.361   1.911  0.00  0.00    +0.042 A 
ATOM     17  C   UNL     1      -1.659   1.783   3.236  0.00  0.00    +0.013 A 
ATOM     18  C   UNL     1      -1.214   3.059   3.509  0.00  0.00    +0.001 A 
ATOM     19  C   UNL     1      -0.894   3.920   2.474  0.00  0.00    +0.000 A 
ATOM     20  C   UNL     1      -1.018   3.507   1.159  0.00  0.00    +0.006 A 
ATOM     21  C   UNL     1      -1.462   2.233   0.872  0.00  0.00    -0.014 A 
BRANCH  21  22
ATOM     22  C   UNL     1      -1.595   1.784  -0.561  0.00  0.00    +0.179 C 
BRANCH  22  23
ATOM     23  N   UNL     1      -0.391   1.051  -0.958  0.00  0.00    -0.262 N 
ATOM     24  C   UNL     1       0.757   1.597  -1.410  0.00  0.00    +0.067 A 
ATOM     25  C   UNL     1       1.622   0.587  -1.663  0.00  0.00    +0.169 A 
ATOM     26  C   UNL     1       0.977  -0.618  -1.363  0.00  0.00    +0.090 A 
ATOM     27  N   UNL     1      -0.230  -0.340  -0.940  0.00  0.00    -0.174 NA
ATOM     28  C   UNL     1       1.569  -1.996  -1.503  0.00  0.00    +0.070 C 
ATOM     29  C   UNL     1       1.029   3.067  -1.598  0.00  0.00    +0.068 C 
BRANCH  25  30
ATOM     30  N   UNL     1       3.004   0.731  -2.172  0.00  0.00    +0.060 N 
ATOM     31  O   UNL     1       3.214   0.735  -3.372  0.00  0.00    -0.126 OA
ATOM     32  O   UNL     1       3.932   0.844  -1.391  0.00  0.00    -0.126 OA
ENDBRANCH  25  30
ENDBRANCH  22  23
ENDBRANCH  21  22
ENDBRANCH  13  16
BRANCH   4  33
ATOM     33  O   UNL     1      -6.015  -6.721   4.133  0.00  0.00    -0.480 OA
ATOM     34  H   UNL     1      -6.433  -6.197   5.005  0.00  0.00    +0.295 HD
ENDBRANCH   4  33
TORSDOF 5
