REMARK  Name = ZINC41015666
REMARK  12 active torsions:
REMARK  status: ('A' for Active; 'I' for Inactive)
REMARK    1  A    between atoms: C_1  and  C_2
REMARK    2  A    between atoms: C_2  and  N_3
REMARK    3  A    between atoms: C_6  and  N_16
REMARK    4  A    between atoms: C_11  and  C_15
REMARK    5  A    between atoms: C_17  and  C_19
REMARK    6  A    between atoms: C_19  and  C_21
REMARK    7  A    between atoms: C_19  and  O_22
REMARK    8  A    between atoms: O_22  and  C_23
REMARK    9  A    between atoms: C_25  and  C_32
REMARK   10  A    between atoms: C_28  and  C_29
REMARK   11  A    between atoms: C_29  and  C_30
REMARK   12  A    between atoms: C_29  and  C_31
REMARK                            x       y       z     vdW  Elec       q    Type
REMARK                         _______ _______ _______ _____ _____    ______ ____
ROOT
ATOM      1  N   UNL     1      -3.290   0.045  -3.898  0.00  0.00    -0.282 N 
ATOM      2  C   UNL     1      -3.929  -0.097  -5.076  0.00  0.00    +0.258 C 
ATOM      3  O   UNL     1      -3.410  -0.725  -5.976  0.00  0.00    -0.271 OA
ATOM      4  H   UNL     1      -3.730   0.494  -3.159  0.00  0.00    +0.155 HD
ENDROOT
BRANCH   1   8
ATOM      5  N   UNL     1       1.144   0.398  -1.999  0.00  0.00    -0.265 N 
ATOM      6  C   UNL     1       0.206  -0.274  -2.796  0.00  0.00    +0.080 A 
ATOM      7  C   UNL     1      -1.077   0.225  -2.948  0.00  0.00    +0.050 A 
ATOM      8  C   UNL     1      -1.991  -0.456  -3.741  0.00  0.00    +0.035 A 
ATOM      9  C   UNL     1      -1.619  -1.633  -4.377  0.00  0.00    +0.027 A 
ATOM     10  C   UNL     1      -0.339  -2.131  -4.225  0.00  0.00    +0.049 A 
ATOM     11  C   UNL     1       0.577  -1.454  -3.437  0.00  0.00    +0.143 A 
ATOM     12  O   UNL     1       1.842  -1.931  -3.281  0.00  0.00    -0.478 OA
ATOM     13  C   UNL     1       2.880  -0.960  -3.122  0.00  0.00    +0.256 C 
ATOM     14  C   UNL     1       2.452   0.082  -2.120  0.00  0.00    +0.260 C 
ATOM     15  O   UNL     1       3.279   0.632  -1.424  0.00  0.00    -0.271 OA
ATOM     16  C   UNL     1       4.152  -1.651  -2.629  0.00  0.00    +0.062 C 
BRANCH   5  18
ATOM     17  C   UNL     1       0.710   2.792  -1.752  0.00  0.00    +0.025 C 
ATOM     18  C   UNL     1       0.714   1.431  -1.054  0.00  0.00    +0.110 C 
ENDBRANCH   5  18
ENDBRANCH   1   8
BRANCH   2  19
ATOM     19  C   UNL     1      -5.287   0.523  -5.277  0.00  0.00    +0.256 C 
ATOM     20  C   UNL     1      -5.166   2.047  -5.214  0.00  0.00    +0.062 C 
BRANCH  19  21
ATOM     21  O   UNL     1      -5.803   0.139  -6.553  0.00  0.00    -0.480 OA
BRANCH  21  22
ATOM     22  C   UNL     1      -7.154   0.164  -6.705  0.00  0.00    +0.125 A 
ATOM     23  C   UNL     1      -7.970   0.462  -5.623  0.00  0.00    +0.049 A 
ATOM     24  C   UNL     1      -9.342   0.487  -5.781  0.00  0.00    -0.047 A 
ATOM     25  C   UNL     1      -9.902   0.217  -7.016  0.00  0.00    +0.004 A 
ATOM     26  C   UNL     1      -9.091  -0.080  -8.095  0.00  0.00    +0.008 A 
ATOM     27  C   UNL     1      -7.718  -0.102  -7.944  0.00  0.00    -0.003 A 
ATOM     28  C   UNL     1     -10.229   0.810  -4.606  0.00  0.00    +0.044 C 
BRANCH  27  29
ATOM     29  C   UNL     1      -6.834  -0.419  -9.123  0.00  0.00    +0.016 C 
ATOM     30  C   UNL     1      -7.174  -1.813  -9.654  0.00  0.00    +0.012 C 
ATOM     31  C   UNL     1      -7.063   0.616 -10.226  0.00  0.00    +0.012 C 
ENDBRANCH  27  29
ENDBRANCH  21  22
ENDBRANCH  19  21
ENDBRANCH   2  19
TORSDOF 6
