REMARK  Name = ZINC36070470
REMARK  10 active torsions:
REMARK  status: ('A' for Active; 'I' for Inactive)
REMARK    1  A    between atoms: C_1  and  C_2
REMARK    2  A    between atoms: C_2  and  C_3
REMARK    3  A    between atoms: C_2  and  O_4
REMARK    4  A    between atoms: O_4  and  C_5
REMARK    5  A    between atoms: N_8  and  C_29
REMARK    6  A    between atoms: C_11  and  N_12
REMARK    7  A    between atoms: N_12  and  C_13
REMARK    8  A    between atoms: C_17  and  C_19
REMARK    9  A    between atoms: N_21  and  C_22
REMARK   10  A    between atoms: C_22  and  C_23
REMARK                            x       y       z     vdW  Elec       q    Type
REMARK                         _______ _______ _______ _____ _____    ______ ____
ROOT
ATOM      1  C   UNL     1      -0.550   0.187   2.835  0.00  0.00    +0.167 A 
ATOM      2  C   UNL     1       0.083  -0.584   3.825  0.00  0.00    +0.181 A 
ATOM      3  N   UNL     1      -0.362  -1.775   4.124  0.00  0.00    -0.168 NA
ATOM      4  N   UNL     1      -1.475  -2.316   3.472  0.00  0.00    -0.195 N 
ATOM      5  C   UNL     1      -2.115  -1.615   2.516  0.00  0.00    +0.297 A 
ATOM      6  O   UNL     1      -3.087  -2.091   1.949  0.00  0.00    -0.264 OA
ATOM      7  C   UNL     1      -1.658  -0.324   2.179  0.00  0.00    +0.142 A 
ENDROOT
BRANCH   4   8
ATOM      8  C   UNL     1      -1.926  -3.596   3.815  0.00  0.00    +0.069 A 
ATOM      9  C   UNL     1      -2.182  -4.532   2.821  0.00  0.00    +0.029 A 
ATOM     10  C   UNL     1      -2.628  -5.794   3.163  0.00  0.00    +0.022 A 
ATOM     11  C   UNL     1      -2.820  -6.125   4.492  0.00  0.00    +0.041 A 
ATOM     12  C   UNL     1      -2.566  -5.194   5.484  0.00  0.00    +0.022 A 
ATOM     13  C   UNL     1      -2.114  -3.933   5.149  0.00  0.00    +0.029 A 
ATOM     14 CL   UNL     1      -3.381  -7.713   4.918  0.00  0.00    -0.084 Cl
ENDBRANCH   4   8
BRANCH   7  15
ATOM     15  N   UNL     1      -2.309   0.426   1.193  0.00  0.00    -0.307 N 
ATOM     16  H   UNL     1      -1.826   0.707   0.400  0.00  0.00    +0.152 HD
BRANCH  15  17
ATOM     17  C   UNL     1      -3.653   0.769   1.351  0.00  0.00    +0.032 A 
ATOM     18  C   UNL     1      -4.298   0.517   2.557  0.00  0.00    +0.023 A 
ATOM     19  C   UNL     1      -5.628   0.855   2.718  0.00  0.00    +0.003 A 
ATOM     20  C   UNL     1      -6.326   1.446   1.684  0.00  0.00    +0.013 A 
ATOM     21  C   UNL     1      -5.688   1.703   0.469  0.00  0.00    +0.038 A 
ATOM     22  C   UNL     1      -4.344   1.367   0.308  0.00  0.00    +0.036 A 
BRANCH  21  23
ATOM     23  C   UNL     1      -6.433   2.335  -0.641  0.00  0.00    +0.244 C 
ATOM     24  O   UNL     1      -5.875   2.559  -1.697  0.00  0.00    -0.270 OA
ATOM     25  N   UNL     1      -7.730   2.663  -0.481  0.00  0.00    -0.309 N 
ATOM     26  H   UNL     1      -8.175   2.485   0.363  0.00  0.00    +0.149 HD
BRANCH  25  27
ATOM     27  C   UNL     1      -8.469   3.289  -1.580  0.00  0.00    +0.136 C 
BRANCH  27  28
ATOM     28  C   UNL     1      -9.909   3.557  -1.140  0.00  0.00    +0.135 C 
ATOM     29  C   UNL     1     -10.718   4.188  -2.301  0.00  0.00    +0.035 C 
ATOM     30  C   UNL     1     -12.164   3.778  -1.911  0.00  0.00    +0.031 C 
ATOM     31  C   UNL     1     -11.947   2.394  -1.260  0.00  0.00    +0.160 C 
ATOM     32  O   UNL     1     -10.578   2.321  -0.843  0.00  0.00    -0.375 OA
ENDBRANCH  27  28
ENDBRANCH  25  27
ENDBRANCH  21  23
ENDBRANCH  15  17
ENDBRANCH   7  15
BRANCH   1  33
ATOM     33  O   UNL     1      -0.084   1.424   2.529  0.00  0.00    -0.486 OA
BRANCH  33  35
ATOM     34  C   UNL     1       1.117   1.321   0.435  0.00  0.00    +0.051 C 
ATOM     35  C   UNL     1       1.220   1.501   1.951  0.00  0.00    +0.167 C 
ATOM     36  C   UNL     1       1.836   2.867   2.261  0.00  0.00    +0.051 C 
ENDBRANCH  33  35
ENDBRANCH   1  33
TORSDOF 8
