REMARK  Name = ZINC38676898
REMARK  10 active torsions:
REMARK  status: ('A' for Active; 'I' for Inactive)
REMARK    1  A    between atoms: C_1  and  C_2
REMARK    2  A    between atoms: C_6  and  N_16
REMARK    3  A    between atoms: C_7  and  C_12
REMARK    4  A    between atoms: C_12  and  O_14
REMARK    5  A    between atoms: O_14  and  C_15
REMARK    6  A    between atoms: C_17  and  C_19
REMARK    7  A    between atoms: C_19  and  N_20
REMARK    8  A    between atoms: N_23  and  C_26
REMARK    9  A    between atoms: C_30  and  C_33
REMARK   10  A    between atoms: C_31  and  C_32
REMARK                            x       y       z     vdW  Elec       q    Type
REMARK                         _______ _______ _______ _____ _____    ______ ____
ROOT
ATOM      1  N   UNL     1       0.619  -5.159   0.034  0.00  0.00    -0.285 N 
ATOM      2  C   UNL     1       0.633  -5.295  -1.307  0.00  0.00    +0.231 C 
ATOM      3  O   UNL     1       0.453  -4.330  -2.017  0.00  0.00    -0.274 OA
ATOM      4  H   UNL     1       0.816  -5.920   0.601  0.00  0.00    +0.155 HD
ENDROOT
BRANCH   1  10
ATOM      5  C   UNL     1      -0.602  -2.030   5.835  0.00  0.00    +0.044 C 
ATOM      6  C   UNL     1      -0.349  -2.580   4.455  0.00  0.00    -0.048 A 
ATOM      7  C   UNL     1      -0.071  -3.942   4.308  0.00  0.00    +0.004 A 
ATOM      8  C   UNL     1       0.165  -4.492   3.091  0.00  0.00    +0.012 A 
ATOM      9  C   UNL     1       0.130  -3.676   1.934  0.00  0.00    +0.018 A 
ATOM     10  C   UNL     1       0.326  -3.951   0.592  0.00  0.00    +0.053 C 
ATOM     11  C   UNL     1       0.149  -2.632  -0.127  0.00  0.00    +0.234 C 
ATOM     12  N   UNL     1      -0.153  -1.642   0.912  0.00  0.00    -0.367 N 
ATOM     13  C   UNL     1      -0.163  -2.240   2.086  0.00  0.00    +0.045 A 
ATOM     14  C   UNL     1      -0.403  -1.741   3.393  0.00  0.00    +0.029 A 
ATOM     15  H   UNL     1      -0.319  -0.699   0.760  0.00  0.00    +0.161 HD
BRANCH  11  16
ATOM     16  C   UNL     1       1.418  -2.259  -0.848  0.00  0.00    +0.335 C 
ATOM     17  O   UNL     1       2.383  -1.890  -0.221  0.00  0.00    -0.248 OA
BRANCH  16  18
ATOM     18  O   UNL     1       1.477  -2.336  -2.187  0.00  0.00    -0.466 OA
ATOM     19  C   UNL     1       2.712  -1.967  -2.804  0.00  0.00    +0.280 C 
ENDBRANCH  16  18
ENDBRANCH  11  16
ENDBRANCH   1  10
BRANCH   2  20
ATOM     20  C   UNL     1       0.874  -6.649  -1.923  0.00  0.00    +0.180 C 
BRANCH  20  21
ATOM     21  N   UNL     1       0.842  -6.534  -3.388  0.00  0.00    -0.291 NA
ATOM     22  C   UNL     1      -0.499  -6.161  -3.857  0.00  0.00    +0.104 C 
ATOM     23  C   UNL     1      -0.449  -5.874  -5.362  0.00  0.00    +0.120 C 
ATOM     24  N   UNL     1       0.147  -7.036  -6.039  0.00  0.00    -0.327 N 
ATOM     25  C   UNL     1       1.428  -7.553  -5.535  0.00  0.00    +0.120 C 
ATOM     26  C   UNL     1       1.304  -7.774  -4.024  0.00  0.00    +0.104 C 
BRANCH  24  27
ATOM     27  C   UNL     1      -0.488  -7.632  -7.131  0.00  0.00    +0.033 A 
ATOM     28  C   UNL     1      -0.210  -7.196  -8.421  0.00  0.00    +0.023 A 
ATOM     29  C   UNL     1      -0.839  -7.788  -9.498  0.00  0.00    +0.002 A 
ATOM     30  C   UNL     1      -1.745  -8.813  -9.295  0.00  0.00    +0.004 A 
ATOM     31  C   UNL     1      -2.024  -9.249  -8.013  0.00  0.00    -0.046 A 
ATOM     32  C   UNL     1      -1.394  -8.665  -6.931  0.00  0.00    -0.027 A 
ATOM     33  C   UNL     1      -1.694  -9.146  -5.534  0.00  0.00    +0.046 C 
ATOM     34  C   UNL     1      -3.012 -10.366  -7.796  0.00  0.00    +0.044 C 
ENDBRANCH  24  27
ENDBRANCH  20  21
ENDBRANCH   2  20
TORSDOF 6
