REMARK  Name = ZINC35966334
REMARK  8 active torsions:
REMARK  status: ('A' for Active; 'I' for Inactive)
REMARK    1  A    between atoms: C_1  and  C_2
REMARK    2  A    between atoms: C_2  and  N_3
REMARK    3  A    between atoms: C_6  and  C_11
REMARK    4  A    between atoms: C_14  and  C_18
REMARK    5  A    between atoms: C_16  and  C_17
REMARK    6  A    between atoms: N_21  and  C_23
REMARK    7  A    between atoms: C_23  and  C_25
REMARK    8  A    between atoms: C_23  and  C_31
REMARK                            x       y       z     vdW  Elec       q    Type
REMARK                         _______ _______ _______ _____ _____    ______ ____
ROOT
ATOM      1  N   UNL     1      -0.557  -0.935   1.218  0.00  0.00    -0.257 N 
ATOM      2  C   UNL     1      -1.516  -1.321   2.111  0.00  0.00    +0.042 C 
ATOM      3  C   UNL     1      -2.563  -2.080   1.728  0.00  0.00    +0.058 C 
ATOM      4  C   UNL     1      -2.640  -2.490   0.271  0.00  0.00    +0.142 C 
ATOM      5  N   UNL     1      -1.557  -2.023  -0.611  0.00  0.00    -0.288 N 
ATOM      6  C   UNL     1      -0.578  -1.264  -0.080  0.00  0.00    +0.307 C 
ATOM      7  O   UNL     1       0.317  -0.870  -0.801  0.00  0.00    -0.252 OA
ATOM      8  C   UNL     1      -3.406  -2.343   2.827  0.00  0.00    +0.247 C 
ATOM      9  O   UNL     1      -4.427  -3.005   2.768  0.00  0.00    -0.270 OA
ATOM     10  N   UNL     1      -2.937  -1.767   3.948  0.00  0.00    -0.277 N 
ATOM     11  C   UNL     1      -1.694  -1.067   3.591  0.00  0.00    +0.160 C 
ATOM     12  H   UNL     1      -1.551  -2.253  -1.554  0.00  0.00    +0.151 HD
ENDROOT
BRANCH   4  13
ATOM     13  C   UNL     1      -3.945  -1.983  -0.286  0.00  0.00    -0.020 A 
ATOM     14  C   UNL     1      -4.611  -0.950   0.346  0.00  0.00    +0.006 A 
ATOM     15  C   UNL     1      -5.808  -0.484  -0.165  0.00  0.00    +0.004 A 
ATOM     16  C   UNL     1      -6.338  -1.051  -1.310  0.00  0.00    -0.050 A 
ATOM     17  C   UNL     1      -5.671  -2.083  -1.942  0.00  0.00    +0.007 A 
ATOM     18  C   UNL     1      -4.472  -2.546  -1.433  0.00  0.00    -0.045 A 
ATOM     19  C   UNL     1      -3.742  -3.667  -2.126  0.00  0.00    +0.044 C 
ATOM     20  C   UNL     1      -7.643  -0.544  -1.866  0.00  0.00    +0.044 C 
ENDBRANCH   4  13
BRANCH   1  22
ATOM     21  C   UNL     1       0.178   1.368   1.585  0.00  0.00    +0.025 C 
ATOM     22  C   UNL     1       0.551  -0.111   1.706  0.00  0.00    +0.111 C 
ENDBRANCH   1  22
BRANCH  10  23
ATOM     23  C   UNL     1      -3.550  -1.826   5.277  0.00  0.00    +0.193 C 
BRANCH  23  24
ATOM     24  C   UNL     1      -3.648  -3.263   5.722  0.00  0.00    +0.241 C 
ATOM     25  O   UNL     1      -3.572  -4.157   4.906  0.00  0.00    -0.273 OA
ATOM     26  N   UNL     1      -3.820  -3.554   7.027  0.00  0.00    -0.300 N 
ATOM     27  C   UNL     1      -4.034  -2.575   8.102  0.00  0.00    +0.108 C 
ATOM     28  C   UNL     1      -4.153  -3.363   9.423  0.00  0.00    +0.020 C 
ATOM     29  C   UNL     1      -3.435  -4.699   9.096  0.00  0.00    +0.020 C 
ATOM     30  C   UNL     1      -3.832  -4.907   7.611  0.00  0.00    +0.108 C 
ENDBRANCH  23  24
BRANCH  23  31
ATOM     31  C   UNL     1      -4.930  -1.222   5.222  0.00  0.00    -0.018 A 
ATOM     32  C   UNL     1      -5.976  -1.938   4.670  0.00  0.00    +0.006 A 
ATOM     33  C   UNL     1      -7.241  -1.384   4.618  0.00  0.00    +0.000 A 
ATOM     34  C   UNL     1      -7.461  -0.115   5.119  0.00  0.00    +0.000 A 
ATOM     35  C   UNL     1      -6.415   0.601   5.672  0.00  0.00    +0.000 A 
ATOM     36  C   UNL     1      -5.150   0.045   5.727  0.00  0.00    +0.006 A 
ENDBRANCH  23  31
ENDBRANCH  10  23
TORSDOF 5
