REMARK  Name = ZINC35304072
REMARK  12 active torsions:
REMARK  status: ('A' for Active; 'I' for Inactive)
REMARK    1  A    between atoms: C_1  and  C_2
REMARK    2  A    between atoms: C_2  and  C_3
REMARK    3  A    between atoms: C_8  and  N_9
REMARK    4  A    between atoms: N_12  and  C_13
REMARK    5  A    between atoms: C_17  and  C_19
REMARK    6  A    between atoms: C_21  and  C_29
REMARK    7  A    between atoms: C_22  and  C_28
REMARK    8  A    between atoms: N_23  and  C_27
REMARK    9  A    between atoms: C_29  and  O_31
REMARK   10  A    between atoms: O_31  and  C_32
REMARK   11  A    between atoms: C_32  and  C_33
REMARK   12  A    between atoms: C_32  and  C_34
REMARK                            x       y       z     vdW  Elec       q    Type
REMARK                         _______ _______ _______ _____ _____    ______ ____
ROOT
ATOM      1  C   UNL     1       6.536  -1.203   0.916  0.00  0.00    +0.035 A 
ATOM      2  C   UNL     1       7.295  -1.206  -0.247  0.00  0.00    +0.023 A 
ATOM      3  C   UNL     1       8.629  -0.854  -0.200  0.00  0.00    +0.002 A 
ATOM      4  C   UNL     1       9.211  -0.501   1.004  0.00  0.00    +0.006 A 
ATOM      5  C   UNL     1       8.458  -0.498   2.164  0.00  0.00    -0.021 A 
ATOM      6  C   UNL     1       7.121  -0.843   2.122  0.00  0.00    +0.029 A 
ENDROOT
BRANCH   5   7
ATOM      7  C   UNL     1       9.096  -0.113   3.474  0.00  0.00    +0.141 C 
ATOM      8  C   UNL     1       9.785  -1.340   4.036  0.00  0.00    +0.078 C 
ATOM      9  C   UNL     1      11.111  -1.260   4.281  0.00  0.00    +0.021 C 
ATOM     10  N   UNL     1      11.805  -0.112   4.030  0.00  0.00    -0.289 N 
ATOM     11  C   UNL     1      11.248   1.000   3.534  0.00  0.00    +0.137 C 
ATOM     12  S   UNL     1      12.236   2.373   3.267  0.00  0.00    -0.018 S 
ATOM     13  N   UNL     1       9.936   1.073   3.239  0.00  0.00    -0.315 N 
ATOM     14  C   UNL     1      13.241  -0.095   4.321  0.00  0.00    +0.137 C 
ATOM     15  C   UNL     1      11.836  -2.457   4.840  0.00  0.00    +0.061 C 
ATOM     16  H   UNL     1       9.553   1.889   2.880  0.00  0.00    +0.149 HD
BRANCH   8  17
ATOM     17  C   UNL     1       9.065  -2.529   4.296  0.00  0.00    +0.339 C 
ATOM     18  O   UNL     1       9.626  -3.482   4.803  0.00  0.00    -0.245 OA
BRANCH  17  19
ATOM     19  O   UNL     1       7.754  -2.606   3.982  0.00  0.00    -0.459 OA
BRANCH  19  20
ATOM     20  C   UNL     1       7.089  -3.837   4.273  0.00  0.00    +0.171 C 
ATOM     21  C   UNL     1       6.508  -3.781   5.688  0.00  0.00    +0.052 C 
ATOM     22  C   UNL     1       5.958  -4.055   3.266  0.00  0.00    +0.052 C 
ENDBRANCH  19  20
ENDBRANCH  17  19
ENDBRANCH   8  17
ENDBRANCH   5   7
BRANCH   1  26
ATOM     23  N   UNL     1       3.442  -2.749  -0.129  0.00  0.00    -0.269 N 
ATOM     24  C   UNL     1       4.759  -2.486  -0.009  0.00  0.00    +0.308 C 
ATOM     25  O   UNL     1       5.563  -3.086  -0.696  0.00  0.00    -0.252 OA
ATOM     26  N   UNL     1       5.183  -1.559   0.872  0.00  0.00    -0.269 N 
ATOM     27  H   UNL     1       2.796  -2.231   0.376  0.00  0.00    +0.156 HD
ATOM     28  H   UNL     1       4.551  -1.137   1.475  0.00  0.00    +0.156 HD
BRANCH  23  34
ATOM     29  C   UNL     1       1.879  -4.512  -0.659  0.00  0.00    -0.026 A 
ATOM     30  C   UNL     1       1.449  -5.515  -1.506  0.00  0.00    +0.005 A 
ATOM     31  C   UNL     1       2.144  -5.784  -2.671  0.00  0.00    +0.000 A 
ATOM     32  C   UNL     1       3.272  -5.050  -2.992  0.00  0.00    +0.002 A 
ATOM     33  C   UNL     1       3.706  -4.046  -2.150  0.00  0.00    +0.023 A 
ATOM     34  C   UNL     1       3.007  -3.770  -0.982  0.00  0.00    +0.038 A 
BRANCH  29  36
ATOM     35  C   UNL     1       0.124  -3.088   0.359  0.00  0.00    +0.009 C 
ATOM     36  C   UNL     1       1.121  -4.220   0.610  0.00  0.00    +0.033 C 
ENDBRANCH  29  36
ENDBRANCH  23  34
ENDBRANCH   1  26
TORSDOF 7
