REMARK  Name = ZINC67376393
REMARK  4 active torsions:
REMARK  status: ('A' for Active; 'I' for Inactive)
REMARK    1  A    between atoms: C_3  and  C_6
REMARK    2  A    between atoms: C_9  and  C_11
REMARK    3  A    between atoms: C_11  and  N_12
REMARK    4  A    between atoms: C_16  and  C_19
REMARK                            x       y       z     vdW  Elec       q    Type
REMARK                         _______ _______ _______ _____ _____    ______ ____
ROOT
ATOM      1  N   UNL     1       7.842   1.336   1.310  0.00  0.00    -0.293 NA
ATOM      2  C   UNL     1       7.163   0.225   1.990  0.00  0.00    +0.085 C 
ATOM      3  C   UNL     1       7.585   0.191   3.461  0.00  0.00    +0.016 C 
ATOM      4  C   UNL     1       9.104   0.014   3.546  0.00  0.00    +0.014 C 
ATOM      5  C   UNL     1       9.786   1.157   2.789  0.00  0.00    +0.071 C 
ATOM      6  C   UNL     1       9.300   1.163   1.338  0.00  0.00    +0.096 C 
ENDROOT
BRANCH   5   7
ATOM      7  C   UNL     1      11.280   0.958   2.819  0.00  0.00    +0.138 A 
ATOM      8  N   UNL     1      11.937  -0.064   2.338  0.00  0.00    -0.134 NA
ATOM      9  N   UNL     1      13.199   0.102   2.530  0.00  0.00    -0.134 NA
ATOM     10  C   UNL     1      13.402   1.237   3.138  0.00  0.00    +0.133 A 
ATOM     11  N   UNL     1      12.192   1.807   3.344  0.00  0.00    -0.315 N 
ATOM     12  C   UNL     1      11.932   3.079   4.017  0.00  0.00    +0.125 C 
ATOM     13  C   UNL     1      13.142   4.002   3.845  0.00  0.00    +0.022 C 
ATOM     14  C   UNL     1      14.130   3.774   4.988  0.00  0.00    +0.002 C 
ATOM     15  C   UNL     1      14.639   2.336   4.976  0.00  0.00    +0.008 C 
ATOM     16  C   UNL     1      14.727   1.831   3.538  0.00  0.00    +0.076 C 
ENDBRANCH   5   7
BRANCH   1  17
ATOM     17  C   UNL     1       7.356   1.486  -0.068  0.00  0.00    +0.180 C 
BRANCH  17  21
ATOM     18  C   UNL     1       3.735   1.821  -0.024  0.00  0.00    +0.162 A 
ATOM     19  C   UNL     1       4.134   3.121  -0.016  0.00  0.00    +0.161 A 
ATOM     20  N   UNL     1       5.475   3.132  -0.030  0.00  0.00    -0.220 NA
ATOM     21  C   UNL     1       5.908   1.903  -0.047  0.00  0.00    +0.210 A 
ATOM     22  O   UNL     1       4.858   1.068  -0.039  0.00  0.00    -0.438 OA
BRANCH  18  25
ATOM     23  C   UNL     1      -0.016   1.353   0.009  0.00  0.00    +0.008 A 
ATOM     24  C   UNL     1       1.177   2.042   0.002  0.00  0.00    +0.019 A 
ATOM     25  C   UNL     1       2.348   1.327  -0.013  0.00  0.00    +0.056 A 
ATOM     26  S   UNL     1       1.752  -0.355  -0.017  0.00  0.00    -0.094 S 
ATOM     27  C   UNL     1       0.002  -0.004   0.002  0.00  0.00    +0.046 A 
ENDBRANCH  18  25
ENDBRANCH  17  21
ENDBRANCH   1  17
TORSDOF 4
