REMARK  Name = ZINC06841871
REMARK  5 active torsions:
REMARK  status: ('A' for Active; 'I' for Inactive)
REMARK    1  A    between atoms: C_1  and  C_2
REMARK    2  A    between atoms: C_19  and  C_22
REMARK    3  A    between atoms: N_24  and  C_25
REMARK    4  A    between atoms: C_25  and  C_26
REMARK    5  A    between atoms: C_25  and  C_27
REMARK                            x       y       z     vdW  Elec       q    Type
REMARK                         _______ _______ _______ _____ _____    ______ ____
ROOT
ATOM      1  C   UNL     1       0.994   0.266  -2.783  0.00  0.00    +0.053 C 
ATOM      2  C   UNL     1       2.179  -0.491  -2.180  0.00  0.00    +0.188 C 
ATOM      3  C   UNL     1       2.603   0.181  -0.866  0.00  0.00    +0.159 C 
ATOM      4  N   UNL     1       3.710  -0.609  -0.300  0.00  0.00    -0.248 N 
ATOM      5  C   UNL     1       3.605  -2.010  -0.349  0.00  0.00    +0.081 A 
ATOM      6  C   UNL     1       4.457  -2.797   0.408  0.00  0.00    +0.047 A 
ATOM      7  C   UNL     1       4.353  -4.176   0.352  0.00  0.00    +0.043 A 
ATOM      8  C   UNL     1       3.400  -4.766  -0.459  0.00  0.00    +0.024 A 
ATOM      9  C   UNL     1       2.548  -3.984  -1.216  0.00  0.00    +0.049 A 
ATOM     10  C   UNL     1       2.644  -2.601  -1.164  0.00  0.00    +0.142 A 
ATOM     11  O   UNL     1       1.795  -1.840  -1.904  0.00  0.00    -0.486 OA
ATOM     12 CL   UNL     1       5.419  -5.165   1.300  0.00  0.00    -0.083 Cl
ATOM     13  C   UNL     1       4.787  -0.009   0.246  0.00  0.00    +0.309 C 
ATOM     14  O   UNL     1       5.753  -0.672   0.570  0.00  0.00    -0.252 OA
ATOM     15  N   UNL     1       4.792   1.326   0.434  0.00  0.00    -0.285 N 
ATOM     16  C   UNL     1       3.533   2.084   0.447  0.00  0.00    +0.110 C 
ATOM     17  C   UNL     1       3.470   2.904   1.745  0.00  0.00    +0.032 C 
ATOM     18  C   UNL     1       4.727   3.770   1.857  0.00  0.00    +0.078 C 
ATOM     19  C   UNL     1       5.965   2.871   1.915  0.00  0.00    +0.032 C 
ATOM     20  C   UNL     1       6.056   2.050   0.624  0.00  0.00    +0.110 C 
ENDROOT
BRANCH  18  21
ATOM     21  C   UNL     1       4.653   4.603   3.110  0.00  0.00    +0.216 C 
ATOM     22  O   UNL     1       5.506   4.489   3.965  0.00  0.00    -0.276 OA
ATOM     23  N   UNL     1       3.639   5.475   3.281  0.00  0.00    -0.313 N 
ATOM     24  H   UNL     1       2.958   5.566   2.597  0.00  0.00    +0.149 HD
BRANCH  23  25
ATOM     25  C   UNL     1       3.567   6.285   4.499  0.00  0.00    +0.067 C 
ATOM     26  C   UNL     1       2.773   7.562   4.216  0.00  0.00    +0.027 C 
ATOM     27  C   UNL     1       2.872   5.486   5.603  0.00  0.00    +0.027 C 
ENDBRANCH  23  25
ENDBRANCH  18  21
TORSDOF 2
