REMARK  Name = ZINC40332608
REMARK  6 active torsions:
REMARK  status: ('A' for Active; 'I' for Inactive)
REMARK    1  A    between atoms: C_1  and  C_2
REMARK    2  A    between atoms: C_3  and  N_20
REMARK    3  A    between atoms: C_5  and  S_9
REMARK    4  A    between atoms: S_9  and  N_12
REMARK    5  A    between atoms: N_12  and  C_13
REMARK    6  A    between atoms: C_13  and  C_14
REMARK                            x       y       z     vdW  Elec       q    Type
REMARK                         _______ _______ _______ _____ _____    ______ ____
ROOT
ATOM      1  C   UNL     1      -0.018   1.503   0.010  0.00  0.00    +0.047 C 
ATOM      2  C   UNL     1       0.002  -0.004   0.002  0.00  0.00    -0.011 A 
ATOM      3  C   UNL     1       0.006  -0.693  -1.204  0.00  0.00    +0.031 A 
ATOM      4  C   UNL     1       0.025  -2.082  -1.208  0.00  0.00    +0.051 A 
ATOM      5  C   UNL     1       0.040  -2.774  -0.012  0.00  0.00    +0.108 A 
ATOM      6  C   UNL     1       0.035  -2.087   1.187  0.00  0.00    +0.049 A 
ATOM      7  C   UNL     1       0.023  -0.702   1.194  0.00  0.00    +0.047 A 
ATOM      8 CL   UNL     1       0.026   0.157   2.703  0.00  0.00    -0.083 Cl
ENDROOT
BRANCH   5   9
ATOM      9  S   UNL     1       0.063  -4.536  -0.016  0.00  0.00    +0.059 S 
ATOM     10  O   UNL     1      -0.476  -4.952   1.231  0.00  0.00    -0.153 OA
ATOM     11  O   UNL     1      -0.488  -4.947  -1.260  0.00  0.00    -0.153 OA
BRANCH   9  12
ATOM     12  N   UNL     1       1.652  -5.004  -0.025  0.00  0.00    -0.190 NA
ATOM     13  H   UNL     1       2.013  -5.480  -0.789  0.00  0.00    +0.148 HD
BRANCH  12  14
ATOM     14  C   UNL     1       2.511  -4.699   1.122  0.00  0.00    +0.111 C 
BRANCH  14  15
ATOM     15  C   UNL     1       3.787  -5.540   1.040  0.00  0.00    +0.032 C 
ATOM     16  C   UNL     1       4.748  -5.202   2.212  0.00  0.00    +0.035 C 
ATOM     17  C   UNL     1       5.510  -6.542   2.365  0.00  0.00    +0.160 C 
ATOM     18  O   UNL     1       4.531  -7.561   2.106  0.00  0.00    -0.379 OA
ATOM     19  C   UNL     1       3.478  -7.033   1.285  0.00  0.00    +0.164 C 
ENDBRANCH  14  15
ENDBRANCH  12  14
ENDBRANCH   9  12
ENDBRANCH   5   9
BRANCH   3  20
ATOM     20  N   UNL     1      -0.010   0.010  -2.411  0.00  0.00    -0.358 N 
ATOM     21  H   UNL     1      -0.023   0.980  -2.408  0.00  0.00    +0.142 HD
ATOM     22  H   UNL     1      -0.007  -0.472  -3.253  0.00  0.00    +0.142 HD
ENDBRANCH   3  20
TORSDOF 5
