REMARK  Name = ZINC39533661
REMARK  10 active torsions:
REMARK  status: ('A' for Active; 'I' for Inactive)
REMARK    1  A    between atoms: C_4  and  C_7
REMARK    2  A    between atoms: C_10  and  C_13
REMARK    3  A    between atoms: C_13  and  C_15
REMARK    4  A    between atoms: C_13  and  N_27
REMARK    5  A    between atoms: C_15  and  N_16
REMARK    6  A    between atoms: N_16  and  S_17
REMARK    7  A    between atoms: S_17  and  O_20
REMARK    8  A    between atoms: O_20  and  C_21
REMARK    9  A    between atoms: C_31  and  C_34
REMARK   10  A    between atoms: C_39  and  O_40
REMARK                            x       y       z     vdW  Elec       q    Type
REMARK                         _______ _______ _______ _____ _____    ______ ____
ROOT
ATOM      1  C   UNL     1       8.424  -2.453   0.334  0.00  0.00    -0.060 C 
ENDROOT
BRANCH   1   2
ATOM      2  N   UNL     1       8.600  -3.789   0.919  0.00  0.00    +0.381 N 
ATOM      3  C   UNL     1       8.219  -3.756   2.337  0.00  0.00    -0.098 C 
ATOM      4  C   UNL     1       8.403  -5.148   2.946  0.00  0.00    -0.101 C 
ATOM      5  N   UNL     1       9.810  -5.553   2.827  0.00  0.00    +0.381 N 
ATOM      6  C   UNL     1      10.191  -5.585   1.408  0.00  0.00    -0.054 C 
ATOM      7  C   UNL     1      10.007  -4.194   0.799  0.00  0.00    -0.090 C 
ATOM      8  H   UNL     1      10.393  -4.891   3.317  0.00  0.00    -0.085 HD
ATOM      9  H   UNL     1       9.931  -6.470   3.228  0.00  0.00    -0.085 HD
ATOM     10  H   UNL     1       8.017  -4.450   0.429  0.00  0.00    -0.081 HD
BRANCH   6  11
ATOM     11  C   UNL     1      11.634  -6.000   1.286  0.00  0.00    -0.022 A 
ATOM     12  C   UNL     1      12.511  -5.771   2.329  0.00  0.00    +0.005 A 
ATOM     13  C   UNL     1      13.835  -6.151   2.216  0.00  0.00    +0.000 A 
ATOM     14  C   UNL     1      14.286  -6.762   1.060  0.00  0.00    +0.004 A 
ATOM     15  C   UNL     1      13.414  -6.994   0.015  0.00  0.00    +0.045 A 
ATOM     16  C   UNL     1      12.083  -6.618   0.127  0.00  0.00    +0.118 A 
BRANCH  16  17
ATOM     17  O   UNL     1      11.221  -6.850  -0.897  0.00  0.00    -0.507 OA
ATOM     18  H   UNL     1      11.227  -6.165  -1.579  0.00  0.00    +0.292 HD
ENDBRANCH  16  17
ENDBRANCH   6  11
ENDBRANCH   1   2
BRANCH   1  22
ATOM     19  C   UNL     1       4.345  -1.240   0.754  0.00  0.00    -0.018 A 
ATOM     20  C   UNL     1       5.372  -0.319   0.948  0.00  0.00    +0.009 A 
ATOM     21  C   UNL     1       6.687  -0.716   0.812  0.00  0.00    +0.002 A 
ATOM     22  C   UNL     1       6.986  -2.025   0.482  0.00  0.00    -0.063 A 
ATOM     23  C   UNL     1       5.971  -2.944   0.288  0.00  0.00    +0.002 A 
ATOM     24  C   UNL     1       4.652  -2.560   0.429  0.00  0.00    +0.009 A 
BRANCH  19  28
ATOM     25  C   UNL     1       0.289  -0.034   1.172  0.00  0.00    +0.000 A 
ATOM     26  C   UNL     1       1.304   0.886   1.361  0.00  0.00    +0.001 A 
ATOM     27  C   UNL     1       2.623   0.500   1.226  0.00  0.00    +0.008 A 
ATOM     28  C   UNL     1       2.930  -0.820   0.901  0.00  0.00    -0.018 A 
ATOM     29  C   UNL     1       1.903  -1.742   0.712  0.00  0.00    +0.008 A 
ATOM     30  C   UNL     1       0.588  -1.345   0.849  0.00  0.00    +0.001 A 
ENDBRANCH  19  28
ENDBRANCH   1  22
BRANCH   1  31
ATOM     31  C   UNL     1       8.793  -2.493  -1.150  0.00  0.00    -0.121 C 
BRANCH  31  32
ATOM     32  N   UNL     1       8.688  -1.146  -1.716  0.00  0.00    +0.491 NA
BRANCH  32  33
ATOM     33  S   UNL     1       8.911  -0.910  -3.340  0.00  0.00    +0.066 S 
ATOM     34  O   UNL     1      10.196  -1.429  -3.653  0.00  0.00    -0.159 OA
ATOM     35  O   UNL     1       7.728  -1.367  -3.983  0.00  0.00    -0.159 OA
BRANCH  33  36
ATOM     36  O   UNL     1       8.980   0.592  -3.572  0.00  0.00    -0.362 OA
BRANCH  36  37
ATOM     37  C   UNL     1      10.144   1.162  -3.164  0.00  0.00    +0.154 A 
ATOM     38  C   UNL     1      10.305   1.543  -1.839  0.00  0.00    +0.048 A 
ATOM     39  C   UNL     1      11.490   2.121  -1.427  0.00  0.00    +0.004 A 
ATOM     40  C   UNL     1      12.515   2.320  -2.333  0.00  0.00    +0.000 A 
ATOM     41  C   UNL     1      12.357   1.942  -3.654  0.00  0.00    +0.004 A 
ATOM     42  C   UNL     1      11.177   1.358  -4.070  0.00  0.00    +0.048 A 
ENDBRANCH  36  37
ENDBRANCH  33  36
ENDBRANCH  32  33
ENDBRANCH  31  32
ENDBRANCH   1  31
TORSDOF 10
