REMARK  Name = ZINC39942173
REMARK  8 active torsions:
REMARK  status: ('A' for Active; 'I' for Inactive)
REMARK    1  A    between atoms: C_1  and  C_2
REMARK    2  A    between atoms: C_2  and  C_4
REMARK    3  A    between atoms: C_2  and  S_13
REMARK    4  A    between atoms: N_6  and  C_7
REMARK    5  A    between atoms: C_7  and  C_8
REMARK    6  A    between atoms: S_13  and  C_14
REMARK    7  A    between atoms: C_18  and  C_23
REMARK    8  A    between atoms: N_19  and  C_20
REMARK                            x       y       z     vdW  Elec       q    Type
REMARK                         _______ _______ _______ _____ _____    ______ ____
ROOT
ATOM      1  C   UNL     1      -0.188  -0.092   2.923  0.00  0.00    +0.238 C 
ATOM      2  N   UNL     1      -0.395   1.359   3.062  0.00  0.00    -0.237 N 
ATOM      3  N   UNL     1      -1.736   1.601   2.741  0.00  0.00    -0.169 NA
ATOM      4  C   UNL     1      -2.357   0.494   2.429  0.00  0.00    +0.147 C 
ATOM      5  N   UNL     1      -1.501  -0.611   2.509  0.00  0.00    -0.282 N 
ATOM      6  H   UNL     1       0.266   2.018   3.325  0.00  0.00    +0.171 HD
ENDROOT
BRANCH   4   7
ATOM      7  C   UNL     1      -3.710   0.422   2.063  0.00  0.00    +0.022 C 
ATOM      8  C   UNL     1      -4.590   1.488   1.870  0.00  0.00    +0.006 A 
ATOM      9  C   UNL     1      -4.429   2.886   1.967  0.00  0.00    +0.010 A 
ATOM     10  C   UNL     1      -5.483   3.705   1.716  0.00  0.00    +0.001 A 
ATOM     11  C   UNL     1      -6.734   3.197   1.361  0.00  0.00    +0.002 A 
ATOM     12  C   UNL     1      -6.960   1.865   1.248  0.00  0.00    +0.026 A 
ATOM     13  C   UNL     1      -5.906   0.947   1.495  0.00  0.00    +0.043 A 
ATOM     14  N   UNL     1      -5.869  -0.370   1.453  0.00  0.00    -0.380 N 
ATOM     15  C   UNL     1      -4.518  -0.827   1.790  0.00  0.00    +0.152 C 
ATOM     16  H   UNL     1      -6.617  -0.946   1.230  0.00  0.00    +0.160 HD
ENDBRANCH   4   7
BRANCH   5  17
ATOM     17  C   UNL     1      -1.843  -2.009   2.234  0.00  0.00    +0.078 C 
ATOM     18  C   UNL     1      -0.761  -3.062   2.479  0.00  0.00    +0.024 C 
ATOM     19  C   UNL     1      -1.152  -2.686   1.049  0.00  0.00    +0.024 C 
ENDBRANCH   5  17
BRANCH   1  20
ATOM     20  S   UNL     1       1.060  -0.435   1.652  0.00  0.00    -0.106 S 
BRANCH  20  22
ATOM     21  C   UNL     1       0.366   1.888   0.385  0.00  0.00    +0.029 C 
ATOM     22  C   UNL     1       0.406   0.374   0.166  0.00  0.00    +0.132 C 
BRANCH  22  23
ATOM     23  C   UNL     1       1.296   0.060  -1.010  0.00  0.00    +0.226 C 
ATOM     24  O   UNL     1       2.435  -0.314  -0.825  0.00  0.00    -0.275 OA
ATOM     25  N   UNL     1       0.827   0.196  -2.266  0.00  0.00    -0.307 N 
ATOM     26  H   UNL     1      -0.084   0.496  -2.413  0.00  0.00    +0.149 HD
BRANCH  25  27
ATOM     27  C   UNL     1       1.691  -0.109  -3.408  0.00  0.00    +0.178 C 
BRANCH  27  28
ATOM     28  C   UNL     1       0.932   0.122  -4.689  0.00  0.00    +0.122 A 
ATOM     29  C   UNL     1       0.883   1.277  -5.377  0.00  0.00    +0.046 A 
ATOM     30  C   UNL     1       0.063   1.047  -6.505  0.00  0.00    +0.041 A 
ATOM     31  C   UNL     1      -0.340  -0.234  -6.439  0.00  0.00    +0.195 A 
ATOM     32  O   UNL     1       0.194  -0.791  -5.340  0.00  0.00    -0.466 OA
ENDBRANCH  27  28
ENDBRANCH  25  27
ENDBRANCH  22  23
ENDBRANCH  20  22
ENDBRANCH   1  20
TORSDOF 7
