REMARK  Name = ZINC21219479
REMARK  10 active torsions:
REMARK  status: ('A' for Active; 'I' for Inactive)
REMARK    1  A    between atoms: C_1  and  C_2
REMARK    2  A    between atoms: C_2  and  C_3
REMARK    3  A    between atoms: C_3  and  C_5
REMARK    4  A    between atoms: C_3  and  O_6
REMARK    5  A    between atoms: O_6  and  C_7
REMARK    6  A    between atoms: C_10  and  C_13
REMARK    7  A    between atoms: C_18  and  C_23
REMARK    8  A    between atoms: C_26  and  N_29
REMARK    9  A    between atoms: N_29  and  C_30
REMARK   10  A    between atoms: N_29  and  C_31
REMARK                            x       y       z     vdW  Elec       q    Type
REMARK                         _______ _______ _______ _____ _____    ______ ____
ROOT
ATOM      1  C   UNL     1      -0.198   5.439  -1.041  0.00  0.00    +0.136 C 
ATOM      2  C   UNL     1      -0.281   6.290   0.203  0.00  0.00    +0.036 C 
ATOM      3  C   UNL     1      -1.363   6.971   0.621  0.00  0.00    +0.017 C 
ATOM      4  C   UNL     1      -1.307   7.804   1.890  0.00  0.00    +0.059 C 
ATOM      5  C   UNL     1      -0.346   7.166   2.892  0.00  0.00    +0.032 C 
ATOM      6  C   UNL     1       1.037   7.099   2.234  0.00  0.00    +0.088 C 
ATOM      7  C   UNL     1       0.918   6.331   0.952  0.00  0.00    +0.163 C 
ATOM      8  O   UNL     1       1.886   5.721   0.542  0.00  0.00    -0.292 OA
ATOM      9  N   UNL     1      -2.555   6.999  -0.027  0.00  0.00    -0.316 N 
ATOM     10  C   UNL     1      -3.213   5.883  -0.532  0.00  0.00    +0.052 A 
ATOM     11  C   UNL     1      -4.433   5.456  -0.038  0.00  0.00    +0.025 A 
ATOM     12  C   UNL     1      -5.057   4.366  -0.622  0.00  0.00    +0.002 A 
ATOM     13  C   UNL     1      -4.466   3.712  -1.688  0.00  0.00    +0.002 A 
ATOM     14  C   UNL     1      -3.237   4.128  -2.171  0.00  0.00    +0.025 A 
ATOM     15  C   UNL     1      -2.601   5.205  -1.575  0.00  0.00    +0.049 A 
ATOM     16  N   UNL     1      -1.314   5.588  -1.950  0.00  0.00    -0.331 N 
ATOM     17  H   UNL     1      -3.074   7.956  -0.184  0.00  0.00    +0.152 HD
ATOM     18  H   UNL     1      -1.153   6.009  -2.953  0.00  0.00    +0.147 HD
ENDROOT
BRANCH   1  22
ATOM     19  C   UNL     1       0.044   1.339   0.141  0.00  0.00    +0.121 A 
ATOM     20  C   UNL     1       1.098   1.929  -0.541  0.00  0.00    +0.046 A 
ATOM     21  C   UNL     1       1.016   3.253  -0.927  0.00  0.00    +0.009 A 
ATOM     22  C   UNL     1      -0.112   3.993  -0.624  0.00  0.00    -0.023 A 
ATOM     23  C   UNL     1      -1.162   3.409   0.060  0.00  0.00    +0.009 A 
ATOM     24  C   UNL     1      -1.087   2.083   0.443  0.00  0.00    +0.046 A 
BRANCH  19  25
ATOM     25  O   UNL     1       0.121   0.035   0.516  0.00  0.00    -0.489 OA
BRANCH  25  26
ATOM     26  C   UNL     1      -0.946  -0.473   1.319  0.00  0.00    +0.170 C 
ATOM     27  C   UNL     1      -2.094  -0.927   0.414  0.00  0.00    +0.052 C 
BRANCH  26  29
ATOM     28  C   UNL     1       0.616  -1.183   3.135  0.00  0.00    +0.007 C 
ATOM     29  C   UNL     1      -0.445  -1.662   2.142  0.00  0.00    +0.041 C 
ENDBRANCH  26  29
ENDBRANCH  25  26
ENDBRANCH  19  25
ENDBRANCH   1  22
BRANCH   5  30
ATOM     30  C   UNL     1      -0.279   8.006   4.141  0.00  0.00    -0.043 A 
ATOM     31  C   UNL     1       0.151   9.318   4.068  0.00  0.00    +0.006 A 
ATOM     32  C   UNL     1       0.209  10.093   5.210  0.00  0.00    +0.023 A 
ATOM     33  C   UNL     1      -0.155   9.549   6.435  0.00  0.00    +0.029 A 
ATOM     34  C   UNL     1      -0.582   8.229   6.506  0.00  0.00    +0.023 A 
ATOM     35  C   UNL     1      -0.642   7.462   5.359  0.00  0.00    +0.006 A 
BRANCH  33  36
ATOM     36  N   UNL     1      -0.093  10.328   7.593  0.00  0.00    -0.336 N 
ATOM     37  C   UNL     1      -0.595   9.795   8.862  0.00  0.00    +0.129 C 
ATOM     38  C   UNL     1       0.474  11.677   7.538  0.00  0.00    +0.129 C 
ENDBRANCH  33  36
ENDBRANCH   5  30
TORSDOF 6
