REMARK  Name = ZINC12569546
REMARK  8 active torsions:
REMARK  status: ('A' for Active; 'I' for Inactive)
REMARK    1  A    between atoms: C_1  and  N_58
REMARK    2  A    between atoms: C_2  and  C_3
REMARK    3  A    between atoms: C_2  and  N_58
REMARK    4  A    between atoms: C_6  and  N_9
REMARK    5  A    between atoms: C_15  and  C_16
REMARK    6  A    between atoms: C_15  and  N_58
REMARK    7  A    between atoms: N_18  and  C_19
REMARK    8  A    between atoms: C_24  and  N_25
REMARK                            x       y       z     vdW  Elec       q    Type
REMARK                         _______ _______ _______ _____ _____    ______ ____
ROOT
ATOM      1  C   UNL     1       0.917   5.535   1.452  0.00  0.00    +0.019 C 
ENDROOT
BRANCH   1   2
ATOM      2  C   UNL     1       0.672   5.943   2.882  0.00  0.00    +0.201 C 
ATOM      3  O   UNL     1       0.712   5.112   3.765  0.00  0.00    -0.278 OA
ATOM      4  N   UNL     1       0.407   7.230   3.179  0.00  0.00    -0.285 N 
ATOM      5  H   UNL     1       0.440   7.905   2.483  0.00  0.00    +0.155 HD
BRANCH   4   6
ATOM      6  C   UNL     1       0.086   7.594   4.492  0.00  0.00    +0.060 A 
ATOM      7  C   UNL     1       0.686   6.943   5.561  0.00  0.00    +0.045 A 
ATOM      8  C   UNL     1       0.370   7.307   6.856  0.00  0.00    +0.043 A 
ATOM      9  C   UNL     1      -0.552   8.313   7.092  0.00  0.00    +0.022 A 
ATOM     10  C   UNL     1      -1.158   8.961   6.033  0.00  0.00    +0.031 A 
ATOM     11  C   UNL     1      -0.843   8.606   4.729  0.00  0.00    +0.088 A 
ATOM     12 CL   UNL     1       1.126   6.497   8.192  0.00  0.00    -0.083 Cl
BRANCH  11  13
ATOM     13  N   UNL     1      -1.457   9.263   3.653  0.00  0.00    -0.218 N 
ATOM     14  C   UNL     1      -2.296  10.315   3.722  0.00  0.00    +0.225 A 
ATOM     15  N   UNL     1      -2.646  10.634   2.502  0.00  0.00    -0.222 NA
ATOM     16  C   UNL     1      -2.063   9.809   1.633  0.00  0.00    +0.245 A 
ATOM     17  N   UNL     1      -1.325   8.952   2.290  0.00  0.00    -0.153 NA
ENDBRANCH  11  13
ENDBRANCH   4   6
ENDBRANCH   1   2
BRANCH   1  19
ATOM     18  C   UNL     1       2.439   3.757   2.073  0.00  0.00    -0.095 C 
ATOM     19  N   UNL     1       1.159   4.077   1.407  0.00  0.00    +0.386 N 
ATOM     20  H   UNL     1       0.397   3.597   1.900  0.00  0.00    -0.081 HD
BRANCH  19  21
ATOM     21  C   UNL     1       1.190   3.613   0.004  0.00  0.00    -0.043 C 
BRANCH  21  22
ATOM     22  C   UNL     1       1.216   2.106  -0.009  0.00  0.00    -0.064 A 
ATOM     23  C   UNL     1       0.030   1.396  -0.017  0.00  0.00    +0.003 A 
ATOM     24  C   UNL     1       0.050   0.015  -0.029  0.00  0.00    +0.023 A 
ATOM     25  C   UNL     1       1.264  -0.660  -0.035  0.00  0.00    +0.030 A 
ATOM     26  C   UNL     1       2.454   0.057  -0.028  0.00  0.00    +0.023 A 
ATOM     27  C   UNL     1       2.426   1.437  -0.015  0.00  0.00    +0.003 A 
BRANCH  25  28
ATOM     28  N   UNL     1       1.288  -2.057  -0.047  0.00  0.00    -0.330 N 
ATOM     29  C   UNL     1       0.526  -2.606   1.082  0.00  0.00    +0.105 C 
ATOM     30  C   UNL     1       0.452  -4.129   0.955  0.00  0.00    +0.019 C 
ATOM     31  C   UNL     1       1.870  -4.705   0.944  0.00  0.00    +0.003 C 
ATOM     32  C   UNL     1       2.658  -4.081  -0.211  0.00  0.00    +0.019 C 
ATOM     33  C   UNL     1       2.668  -2.559  -0.051  0.00  0.00    +0.105 C 
ENDBRANCH  25  28
ENDBRANCH  21  22
ENDBRANCH  19  21
ENDBRANCH   1  19
TORSDOF 7
