REMARK  Name = ZINC00745628
REMARK  11 active torsions:
REMARK  status: ('A' for Active; 'I' for Inactive)
REMARK    1  A    between atoms: C_1  and  C_2
REMARK    2  A    between atoms: C_2  and  C_3
REMARK    3  A    between atoms: C_2  and  C_4
REMARK    4  A    between atoms: C_4  and  C_5
REMARK    5  A    between atoms: C_5  and  N_6
REMARK    6  A    between atoms: C_7  and  C_9
REMARK    7  A    between atoms: C_13  and  C_23
REMARK    8  A    between atoms: C_16  and  C_18
REMARK    9  A    between atoms: C_23  and  C_24
REMARK   10  A    between atoms: C_24  and  C_25
REMARK   11  A    between atoms: C_24  and  C_26
REMARK                            x       y       z     vdW  Elec       q    Type
REMARK                         _______ _______ _______ _____ _____    ______ ____
ROOT
ATOM      1  C   UNL     1       4.644  -0.724  -0.191  0.00  0.00    +0.173 C 
ATOM      2  C   UNL     1       5.873  -1.120   0.675  0.00  0.00    +0.103 C 
ATOM      3  S   UNL     1       7.154  -0.101  -0.186  0.00  0.00    -0.136 S 
ATOM      4  C   UNL     1       6.041   1.270  -0.714  0.00  0.00    +0.135 C 
ATOM      5  N   UNL     1       4.694   0.689  -0.554  0.00  0.00    -0.273 N 
ATOM      6  C   UNL     1       3.576   1.421  -0.727  0.00  0.00    +0.255 C 
ATOM      7  O   UNL     1       2.483   0.908  -0.574  0.00  0.00    -0.269 OA
ENDROOT
BRANCH   6   8
ATOM      8  C   UNL     1       3.677   2.836  -1.097  0.00  0.00    +0.074 A 
ATOM      9  C   UNL     1       2.673   3.712  -1.479  0.00  0.00    +0.021 A 
ATOM     10  C   UNL     1       3.046   5.000  -1.775  0.00  0.00    +0.008 A 
ATOM     11  C   UNL     1       4.356   5.348  -1.683  0.00  0.00    +0.046 A 
ATOM     12  S   UNL     1       5.122   3.879  -1.174  0.00  0.00    -0.092 S 
ENDBRANCH   6   8
BRANCH   1  14
ATOM     13  N   UNL     1       2.785  -2.199   0.508  0.00  0.00    -0.314 N 
ATOM     14  C   UNL     1       3.382  -0.993   0.587  0.00  0.00    +0.234 C 
ATOM     15  O   UNL     1       2.902  -0.123   1.283  0.00  0.00    -0.274 OA
ATOM     16  H   UNL     1       3.207  -2.916   0.010  0.00  0.00    +0.149 HD
BRANCH  13  17
ATOM     17  C   UNL     1       1.501  -2.425   1.175  0.00  0.00    +0.104 C 
BRANCH  17  18
ATOM     18  C   UNL     1       1.107  -3.897   1.037  0.00  0.00    +0.022 C 
BRANCH  18  20
ATOM     19  C   UNL     1      -0.689  -5.574   1.489  0.00  0.00    +0.007 C 
ATOM     20  C   UNL     1      -0.235  -4.134   1.734  0.00  0.00    -0.016 C 
ATOM     21  C   UNL     1      -0.077  -3.897   3.237  0.00  0.00    +0.007 C 
ENDBRANCH  18  20
ENDBRANCH  17  18
ENDBRANCH  13  17
ENDBRANCH   1  14
BRANCH   4  22
ATOM     22  C   UNL     1       6.298   1.642  -2.176  0.00  0.00    +0.036 C 
BRANCH  22  23
ATOM     23  C   UNL     1       7.729   2.164  -2.325  0.00  0.00    -0.015 C 
ATOM     24  C   UNL     1       8.028   2.416  -3.804  0.00  0.00    +0.007 C 
ATOM     25  C   UNL     1       7.880   3.471  -1.544  0.00  0.00    +0.007 C 
ENDBRANCH  22  23
ENDBRANCH   4  22
TORSDOF 7
