REMARK  Name = ZINC00346188
REMARK  11 active torsions:
REMARK  status: ('A' for Active; 'I' for Inactive)
REMARK    1  A    between atoms: C_1  and  C_2
REMARK    2  A    between atoms: C_3  and  O_23
REMARK    3  A    between atoms: C_4  and  C_10
REMARK    4  A    between atoms: C_5  and  C_8
REMARK    5  A    between atoms: C_8  and  O_9
REMARK    6  A    between atoms: C_10  and  N_11
REMARK    7  A    between atoms: C_12  and  C_13
REMARK    8  A    between atoms: C_14  and  C_21
REMARK    9  A    between atoms: C_17  and  C_20
REMARK   10  A    between atoms: C_18  and  O_19
REMARK   11  A    between atoms: C_21  and  O_22
REMARK                            x       y       z     vdW  Elec       q    Type
REMARK                         _______ _______ _______ _____ _____    ______ ____
ROOT
ATOM      1  N   UNL     1      -4.537   3.874  -1.861  0.00  0.00    -0.385 N 
ATOM      2  C   UNL     1      -5.071   4.706  -2.695  0.00  0.00    +0.090 C 
ATOM      3  H   UNL     1      -4.312   4.165  -0.963  0.00  0.00    +0.159 HD
ENDROOT
BRANCH   2   4
ATOM      4  C   UNL     1      -5.440   6.064  -2.249  0.00  0.00    +0.041 A 
ATOM      5  C   UNL     1      -6.130   6.938  -3.097  0.00  0.00    +0.008 A 
ATOM      6  C   UNL     1      -6.456   8.198  -2.640  0.00  0.00    +0.117 A 
ATOM      7  N   UNL     1      -6.127   8.586  -1.423  0.00  0.00    -0.256 NA
ATOM      8  C   UNL     1      -5.478   7.801  -0.588  0.00  0.00    +0.080 A 
ATOM      9  C   UNL     1      -5.115   6.514  -0.959  0.00  0.00    +0.147 A 
ATOM     10  C   UNL     1      -5.132   8.304   0.790  0.00  0.00    +0.069 C 
BRANCH   9  11
ATOM     11  O   UNL     1      -4.451   5.707  -0.093  0.00  0.00    -0.504 OA
ATOM     12  H   UNL     1      -3.488   5.782  -0.144  0.00  0.00    +0.292 HD
ENDBRANCH   9  11
BRANCH   5  13
ATOM     13  C   UNL     1      -6.512   6.508  -4.490  0.00  0.00    +0.193 C 
BRANCH  13  14
ATOM     14  O   UNL     1      -7.202   7.574  -5.145  0.00  0.00    -0.390 OA
ATOM     15  H   UNL     1      -7.479   7.367  -6.049  0.00  0.00    +0.210 HD
ENDBRANCH  13  14
ENDBRANCH   5  13
ENDBRANCH   2   4
BRANCH   1  16
ATOM     16  C   UNL     1      -4.271   2.494  -2.272  0.00  0.00    +0.152 C 
BRANCH  16  20
ATOM     17  C   UNL     1      -0.054   1.061   0.051  0.00  0.00    +0.069 C 
ATOM     18  C   UNL     1      -0.768   1.566  -1.176  0.00  0.00    +0.080 A 
ATOM     19  C   UNL     1      -2.138   1.780  -1.134  0.00  0.00    +0.143 A 
ATOM     20  C   UNL     1      -2.784   2.247  -2.274  0.00  0.00    +0.022 A 
ATOM     21  C   UNL     1      -2.028   2.480  -3.411  0.00  0.00    +0.004 A 
ATOM     22  C   UNL     1      -0.666   2.243  -3.376  0.00  0.00    +0.117 A 
ATOM     23  N   UNL     1      -0.084   1.805  -2.277  0.00  0.00    -0.256 NA
BRANCH  19  24
ATOM     24  O   UNL     1      -2.839   1.537   0.005  0.00  0.00    -0.505 OA
ATOM     25  H   UNL     1      -2.903   2.299   0.598  0.00  0.00    +0.292 HD
ENDBRANCH  19  24
BRANCH  21  26
ATOM     26  C   UNL     1      -2.682   2.986  -4.671  0.00  0.00    +0.193 C 
BRANCH  26  27
ATOM     27  O   UNL     1      -1.693   3.143  -5.690  0.00  0.00    -0.390 OA
ATOM     28  H   UNL     1      -2.043   3.466  -6.532  0.00  0.00    +0.210 HD
ENDBRANCH  26  27
ENDBRANCH  21  26
ENDBRANCH  16  20
ENDBRANCH   1  16
TORSDOF 9
