REMARK  Name = ZINC13796990
REMARK  4 active torsions:
REMARK  status: ('A' for Active; 'I' for Inactive)
REMARK    1  A    between atoms: C_4  and  C_7
REMARK    2  A    between atoms: C_7  and  C_8
REMARK    3  A    between atoms: C_8  and  C_10
REMARK    4  A    between atoms: C_8  and  N_24
REMARK                            x       y       z     vdW  Elec       q    Type
REMARK                         _______ _______ _______ _____ _____    ______ ____
ROOT
ATOM      1  C   UNL     1      -2.948   0.718   1.476  0.00  0.00    +0.165 C 
ENDROOT
BRANCH   1   2
ATOM      2  C   UNL     1      -4.348   0.162   1.473  0.00  0.00    +0.236 C 
ATOM      3  O   UNL     1      -4.580  -0.900   2.012  0.00  0.00    -0.274 OA
ATOM      4  N   UNL     1      -5.343   0.844   0.872  0.00  0.00    -0.297 N 
ATOM      5  C   UNL     1      -6.736   0.380   0.959  0.00  0.00    +0.127 C 
ATOM      6  C   UNL     1      -7.609   1.557   1.424  0.00  0.00    +0.125 C 
ATOM      7  N   UNL     1      -7.391   2.703   0.532  0.00  0.00    -0.314 N 
ATOM      8  C   UNL     1      -6.001   3.175   0.601  0.00  0.00    +0.125 C 
ATOM      9  C   UNL     1      -5.064   2.068   0.107  0.00  0.00    +0.127 C 
ATOM     10  C   UNL     1      -8.281   3.732   0.817  0.00  0.00    +0.099 A 
ATOM     11  C   UNL     1      -9.650   3.483   0.803  0.00  0.00    +0.042 A 
ATOM     12  C   UNL     1     -10.524   4.516   1.088  0.00  0.00    +0.005 A 
ATOM     13  C   UNL     1      -9.999   5.768   1.380  0.00  0.00    +0.018 A 
ATOM     14  C   UNL     1      -8.630   5.944   1.376  0.00  0.00    +0.084 A 
ATOM     15  N   UNL     1      -7.819   4.939   1.105  0.00  0.00    -0.350 N 
ATOM     16  H   UNL     1      -6.734   5.123   1.123  0.00  0.00    +0.166 HD
ENDBRANCH   1   2
BRANCH   1  17
ATOM     17  N   UNL     1      -2.101  -0.095   2.352  0.00  0.00    -0.287 N 
ATOM     18  C   UNL     1      -1.001   0.443   2.915  0.00  0.00    +0.306 C 
ATOM     19  O   UNL     1      -0.712   1.603   2.696  0.00  0.00    -0.252 OA
ATOM     20  N   UNL     1      -0.222  -0.306   3.720  0.00  0.00    -0.247 N 
ATOM     21  C   UNL     1       0.915   0.250   4.303  0.00  0.00    +0.190 A 
ATOM     22  N   UNL     1       1.397   1.472   4.194  0.00  0.00    -0.125 NA
ATOM     23  N   UNL     1       2.548   1.817   4.863  0.00  0.00    -0.132 NA
ATOM     24  C   UNL     1       3.166   0.922   5.610  0.00  0.00    +0.171 A 
ATOM     25  S   UNL     1       2.107  -0.501   5.402  0.00  0.00    -0.023 S 
ATOM     26  S   UNL     1       4.638   1.087   6.564  0.00  0.00    -0.021 SA
ATOM     27  H   UNL     1      -2.363  -1.145   2.550  0.00  0.00    +0.151 HD
ATOM     28  H   UNL     1      -0.484  -1.356   3.918  0.00  0.00    +0.158 HD
ENDBRANCH   1  17
BRANCH   1  29
ATOM     29  C   UNL     1      -2.386   0.691   0.054  0.00  0.00    +0.067 C 
BRANCH  29  33
ATOM     30  C   UNL     1       1.517   2.427   0.026  0.00  0.00    +0.000 A 
ATOM     31  C   UNL     1       1.366   1.070   0.240  0.00  0.00    +0.000 A 
ATOM     32  C   UNL     1       0.103   0.509   0.253  0.00  0.00    +0.004 A 
ATOM     33  C   UNL     1      -1.009   1.304   0.046  0.00  0.00    -0.045 A 
ATOM     34  C   UNL     1      -0.858   2.662  -0.163  0.00  0.00    +0.004 A 
ATOM     35  C   UNL     1       0.405   3.224  -0.175  0.00  0.00    +0.000 A 
ENDBRANCH  29  33
ENDBRANCH   1  29
TORSDOF 4
