REMARK  Name = ZINC63541087
REMARK  9 active torsions:
REMARK  status: ('A' for Active; 'I' for Inactive)
REMARK    1  A    between atoms: C_1  and  C_2
REMARK    2  A    between atoms: C_2  and  C_3
REMARK    3  A    between atoms: C_2  and  C_4
REMARK    4  A    between atoms: C_7  and  C_10
REMARK    5  A    between atoms: C_14  and  C_25
REMARK    6  A    between atoms: C_19  and  C_21
REMARK    7  A    between atoms: N_27  and  C_28
REMARK    8  A    between atoms: C_28  and  C_29
REMARK    9  A    between atoms: C_29  and  C_30
REMARK                            x       y       z     vdW  Elec       q    Type
REMARK                         _______ _______ _______ _____ _____    ______ ____
ROOT
ATOM      1  C   UNL     1      -5.400  -1.998   0.043  0.00  0.00    +0.070 C 
ATOM      2  N   UNL     1      -6.187  -1.677   1.039  0.00  0.00    -0.254 NA
ATOM      3  C   UNL     1      -7.565  -2.175   1.075  0.00  0.00    +0.246 C 
ATOM      4  C   UNL     1      -7.964  -2.570   2.478  0.00  0.00    +0.073 C 
ATOM      5  H   UNL     1      -8.605  -5.220   0.871  0.00  0.00    +0.170 HD
ATOM      6  C   UNL     1      -8.362  -3.858   2.423  0.00  0.00    +0.100 C 
ATOM      7  N   UNL     1      -8.258  -4.361   1.158  0.00  0.00    -0.269 N 
ATOM      8  N   UNL     1      -7.587  -3.450   0.325  0.00  0.00    -0.220 N 
ATOM      9  C   UNL     1      -6.973  -3.600  -0.892  0.00  0.00    +0.132 C 
ATOM     10  C   UNL     1      -5.853  -2.844  -1.065  0.00  0.00    +0.057 C 
ENDROOT
BRANCH   1  14
ATOM     11  C   UNL     1      -1.412  -0.526   0.013  0.00  0.00    -0.045 A 
ATOM     12  C   UNL     1      -2.257  -0.202   1.059  0.00  0.00    +0.004 A 
ATOM     13  C   UNL     1      -3.553  -0.677   1.074  0.00  0.00    +0.010 A 
ATOM     14  C   UNL     1      -4.009  -1.484   0.032  0.00  0.00    +0.000 A 
ATOM     15  C   UNL     1      -3.152  -1.806  -1.019  0.00  0.00    +0.010 A 
ATOM     16  C   UNL     1      -1.861  -1.321  -1.026  0.00  0.00    +0.004 A 
BRANCH  11  18
ATOM     17  C   UNL     1      -0.019   1.526   0.010  0.00  0.00    +0.012 C 
ATOM     18  C   UNL     1       0.002  -0.004   0.002  0.00  0.00    +0.013 C 
ATOM     19  C   UNL     1       0.742  -0.511   1.242  0.00  0.00    +0.012 C 
ENDBRANCH  11  18
ENDBRANCH   1  14
BRANCH   9  20
ATOM     20  C   UNL     1      -7.498  -4.526  -1.958  0.00  0.00    +0.432 C 
ATOM     21  F   UNL     1      -6.665  -4.466  -3.081  0.00  0.00    -0.165 F 
ATOM     22  F   UNL     1      -7.524  -5.836  -1.467  0.00  0.00    -0.165 F 
ATOM     23  F   UNL     1      -8.793  -4.137  -2.317  0.00  0.00    -0.165 F 
ENDBRANCH   9  20
BRANCH   4  24
ATOM     24  C   UNL     1      -7.928  -1.747   3.628  0.00  0.00    +0.245 C 
ATOM     25  O   UNL     1      -8.280  -2.192   4.706  0.00  0.00    -0.270 OA
ATOM     26  N   UNL     1      -7.504  -0.472   3.532  0.00  0.00    -0.311 N 
ATOM     27  H   UNL     1      -7.224  -0.117   2.673  0.00  0.00    +0.149 HD
BRANCH  26  28
ATOM     28  C   UNL     1      -7.466   0.380   4.723  0.00  0.00    +0.109 C 
BRANCH  28  29
ATOM     29  C   UNL     1      -6.951   1.769   4.341  0.00  0.00    +0.052 C 
BRANCH  29  30
ATOM     30  C   UNL     1      -6.912   2.645   5.566  0.00  0.00    -0.040 C 
ATOM     31  C   UNL     1      -5.848   2.873   6.370  0.00  0.00    -0.001 A 
ATOM     32  C   UNL     1      -4.462   2.392   6.344  0.00  0.00    +0.010 A 
ATOM     33  C   UNL     1      -3.606   2.804   7.307  0.00  0.00    +0.001 A 
ATOM     34  C   UNL     1      -4.009   3.678   8.326  0.00  0.00    +0.002 A 
ATOM     35  C   UNL     1      -5.266   4.163   8.416  0.00  0.00    +0.026 A 
ATOM     36  C   UNL     1      -6.248   3.796   7.456  0.00  0.00    +0.043 A 
ATOM     37  N   UNL     1      -7.511   4.125   7.329  0.00  0.00    -0.380 N 
ATOM     38  C   UNL     1      -8.053   3.453   6.143  0.00  0.00    +0.144 C 
ATOM     39  H   UNL     1      -8.004   4.717   7.919  0.00  0.00    +0.160 HD
ENDBRANCH  29  30
ENDBRANCH  28  29
ENDBRANCH  26  28
ENDBRANCH   4  24
TORSDOF 7
