REMARK  Name = ZINC20576464
REMARK  7 active torsions:
REMARK  status: ('A' for Active; 'I' for Inactive)
REMARK    1  A    between atoms: C_1  and  O_2
REMARK    2  A    between atoms: O_2  and  C_3
REMARK    3  A    between atoms: C_8  and  C_9
REMARK    4  A    between atoms: C_9  and  N_10
REMARK    5  A    between atoms: N_10  and  C_11
REMARK    6  A    between atoms: C_11  and  C_12
REMARK    7  A    between atoms: N_25  and  C_28
REMARK                            x       y       z     vdW  Elec       q    Type
REMARK                         _______ _______ _______ _____ _____    ______ ____
ROOT
ATOM      1  C   UNL     1       0.002  -0.004   0.002  0.00  0.00    +0.009 A 
ATOM      2  C   UNL     1      -0.888  -0.804  -0.621  0.00  0.00    +0.021 A 
ATOM      3  C   UNL     1      -0.502  -2.137  -0.376  0.00  0.00    +0.020 A 
ATOM      4  C   UNL     1       0.609  -2.104   0.388  0.00  0.00    +0.093 A 
ATOM      5  N   UNL     1       0.928  -0.796   0.619  0.00  0.00    -0.300 N 
ATOM      6  C   UNL     1       2.018  -0.344   1.365  0.00  0.00    +0.202 A 
ATOM      7  N   UNL     1       2.407   0.889   1.641  0.00  0.00    -0.121 NA
ATOM      8  N   UNL     1       3.427   1.128   2.342  0.00  0.00    -0.124 NA
ATOM      9  C   UNL     1       4.179   0.157   2.839  0.00  0.00    +0.186 A 
ATOM     10  S   UNL     1       3.293  -1.269   2.217  0.00  0.00    -0.013 S 
ATOM     11  N   UNL     1       5.327   0.225   3.617  0.00  0.00    -0.305 N 
ATOM     12  C   UNL     1       5.158  -0.525   4.870  0.00  0.00    +0.126 C 
ATOM     13  C   UNL     1       6.468  -0.491   5.661  0.00  0.00    +0.124 C 
ATOM     14  N   UNL     1       6.838   0.905   5.932  0.00  0.00    -0.327 N 
ATOM     15  C   UNL     1       7.006   1.655   4.680  0.00  0.00    +0.124 C 
ATOM     16  C   UNL     1       5.697   1.621   3.888  0.00  0.00    +0.126 C 
ENDROOT
BRANCH  14  17
ATOM     17  C   UNL     1       7.992   0.974   6.716  0.00  0.00    +0.030 A 
ATOM     18  C   UNL     1       9.098   1.683   6.265  0.00  0.00    +0.023 A 
ATOM     19  C   UNL     1      10.236   1.752   7.044  0.00  0.00    +0.002 A 
ATOM     20  C   UNL     1      10.279   1.109   8.268  0.00  0.00    +0.000 A 
ATOM     21  C   UNL     1       9.182   0.398   8.717  0.00  0.00    +0.002 A 
ATOM     22  C   UNL     1       8.039   0.328   7.945  0.00  0.00    +0.023 A 
ENDBRANCH  14  17
BRANCH   1  23
ATOM     23  C   UNL     1      -0.018   1.503   0.010  0.00  0.00    -0.027 C 
BRANCH  23  24
ATOM     24  N   UNL     1      -0.706   1.976   1.219  0.00  0.00    +0.385 N 
ATOM     25  H   UNL     1      -0.169   1.599   2.101  0.00  0.00    -0.085 HD
ATOM     26  H   UNL     1      -1.733   1.582   1.218  0.00  0.00    -0.085 HD
BRANCH  24  27
ATOM     27  C   UNL     1      -0.745   3.444   1.261  0.00  0.00    -0.043 C 
BRANCH  27  33
ATOM     28  C   UNL     1      -0.783   3.910   3.725  0.00  0.00    +0.121 A 
ATOM     29  C   UNL     1      -1.440   4.323   4.875  0.00  0.00    +0.046 A 
ATOM     30  C   UNL     1      -2.763   4.716   4.809  0.00  0.00    +0.004 A 
ATOM     31  C   UNL     1      -3.432   4.697   3.599  0.00  0.00    +0.000 A 
ATOM     32  C   UNL     1      -2.778   4.291   2.451  0.00  0.00    +0.005 A 
ATOM     33  C   UNL     1      -1.456   3.892   2.512  0.00  0.00    -0.023 A 
BRANCH  28  35
ATOM     34  C   UNL     1       1.148   3.568   5.068  0.00  0.00    +0.277 C 
ATOM     35  O   UNL     1       0.518   3.524   3.786  0.00  0.00    -0.495 OA
ENDBRANCH  28  35
ENDBRANCH  27  33
ENDBRANCH  24  27
ENDBRANCH  23  24
ENDBRANCH   1  23
TORSDOF 6
