REMARK  Name = ZINC24289700
REMARK  8 active torsions:
REMARK  status: ('A' for Active; 'I' for Inactive)
REMARK    1  A    between atoms: C_1  and  C_2
REMARK    2  A    between atoms: C_3  and  C_29
REMARK    3  A    between atoms: C_11  and  C_13
REMARK    4  A    between atoms: C_13  and  S_14
REMARK    5  A    between atoms: S_14  and  C_15
REMARK    6  A    between atoms: C_18  and  C_20
REMARK    7  A    between atoms: C_20  and  O_21
REMARK    8  A    between atoms: O_21  and  C_22
REMARK                            x       y       z     vdW  Elec       q    Type
REMARK                         _______ _______ _______ _____ _____    ______ ____
ROOT
ATOM      1  S   UNL     1       0.108  -5.139   3.935  0.00  0.00    -0.058 S 
ENDROOT
BRANCH   1   2
ATOM      2  C   UNL     1       0.134  -6.118   5.400  0.00  0.00    +0.278 A 
ATOM      3  N   UNL     1       0.133  -5.672   6.633  0.00  0.00    -0.101 NA
ATOM      4  N   UNL     1       0.156  -6.669   7.446  0.00  0.00    -0.108 NA
ATOM      5  C   UNL     1       0.172  -7.780   6.771  0.00  0.00    +0.255 A 
ATOM      6  O   UNL     1       0.153  -7.463   5.462  0.00  0.00    -0.412 OA
BRANCH   5   7
ATOM      7  C   UNL     1       0.201  -9.172   7.349  0.00  0.00    +0.326 C 
BRANCH   7   8
ATOM      8  O   UNL     1      -1.137  -9.637   7.540  0.00  0.00    -0.483 OA
BRANCH   8   9
ATOM      9  C   UNL     1      -1.288 -10.884   8.057  0.00  0.00    +0.121 A 
ATOM     10  C   UNL     1      -0.173 -11.643   8.381  0.00  0.00    +0.047 A 
ATOM     11  C   UNL     1      -0.329 -12.911   8.907  0.00  0.00    +0.023 A 
ATOM     12  C   UNL     1      -1.597 -13.424   9.111  0.00  0.00    +0.041 A 
ATOM     13  C   UNL     1      -2.712 -12.669   8.789  0.00  0.00    +0.023 A 
ATOM     14  C   UNL     1      -2.559 -11.399   8.269  0.00  0.00    +0.047 A 
ATOM     15 CL   UNL     1      -1.792 -15.018   9.772  0.00  0.00    -0.084 Cl
ENDBRANCH   8   9
ENDBRANCH   7   8
ENDBRANCH   5   7
ENDBRANCH   1   2
BRANCH   1  16
ATOM     16  C   UNL     1       0.090  -3.432   4.547  0.00  0.00    +0.153 C 
BRANCH  16  27
ATOM     17  C   UNL     1      -0.018   1.503   0.010  0.00  0.00    +0.045 C 
ATOM     18  C   UNL     1       0.002  -0.004   0.002  0.00  0.00    -0.026 A 
ATOM     19  C   UNL     1       0.006  -0.677  -1.160  0.00  0.00    -0.008 A 
ATOM     20  S   UNL     1       0.032  -2.385  -0.648  0.00  0.00    -0.073 S 
ATOM     21  C   UNL     1       0.037  -2.144   1.110  0.00  0.00    +0.116 A 
ATOM     22  C   UNL     1       0.024  -0.745   1.250  0.00  0.00    +0.075 A 
ATOM     23  C   UNL     1       0.029  -0.257   2.597  0.00  0.00    +0.260 A 
ATOM     24  O   UNL     1       0.014   0.942   2.821  0.00  0.00    -0.267 OA
ATOM     25  N   UNL     1       0.051  -1.142   3.611  0.00  0.00    -0.310 N 
ATOM     26  H   UNL     1       0.054  -0.817   4.525  0.00  0.00    +0.170 HD
ATOM     27  C   UNL     1       0.067  -2.480   3.380  0.00  0.00    +0.121 A 
ATOM     28  N   UNL     1       0.053  -2.956   2.163  0.00  0.00    -0.226 NA
ATOM     29  C   UNL     1      -0.009  -0.122  -2.561  0.00  0.00    +0.052 C 
ENDBRANCH  16  27
ENDBRANCH   1  16
TORSDOF 6
