REMARK  Name = ZINC63129321
REMARK  4 active torsions:
REMARK  status: ('A' for Active; 'I' for Inactive)
REMARK    1  A    between atoms: C_1  and  C_2
REMARK    2  A    between atoms: C_2  and  C_4
REMARK    3  A    between atoms: C_4  and  S_5
REMARK    4  A    between atoms: S_5  and  C_6
REMARK                            x       y       z     vdW  Elec       q    Type
REMARK                         _______ _______ _______ _____ _____    ______ ____
ROOT
ATOM      1  C   UNL     1      -1.500  -1.592  -3.540  0.00  0.00    +0.160 A 
ATOM      2  N   UNL     1      -0.440  -2.193  -4.045  0.00  0.00    -0.133 NA
ATOM      3  N   UNL     1      -0.535  -2.852  -5.249  0.00  0.00    -0.125 NA
ATOM      4  C   UNL     1      -1.686  -2.879  -5.893  0.00  0.00    +0.185 A 
ATOM      5  S   UNL     1      -2.731  -1.947  -4.784  0.00  0.00    -0.024 S 
ATOM      6  N   UNL     1      -2.002  -3.478  -7.106  0.00  0.00    -0.304 N 
ATOM      7  C   UNL     1      -3.360  -3.388  -7.665  0.00  0.00    +0.135 C 
ATOM      8  C   UNL     1      -3.255  -2.914  -9.118  0.00  0.00    +0.179 C 
ATOM      9  O   UNL     1      -2.334  -3.751  -9.821  0.00  0.00    -0.377 OA
ATOM     10  C   UNL     1      -0.998  -3.706  -9.315  0.00  0.00    +0.179 C 
ATOM     11  C   UNL     1      -0.986  -4.216  -7.874  0.00  0.00    +0.135 C 
ENDROOT
BRANCH   1  12
ATOM     12  S   UNL     1      -1.660  -0.688  -2.036  0.00  0.00    -0.093 S 
BRANCH  12  13
ATOM     13  C   UNL     1      -0.000  -0.750  -1.307  0.00  0.00    +0.106 C 
BRANCH  13  15
ATOM     14  C   UNL     1      -0.018   1.503   0.010  0.00  0.00    +0.039 C 
ATOM     15  C   UNL     1       0.002  -0.004   0.002  0.00  0.00    -0.070 C 
ATOM     16  C   UNL     1       0.022  -0.665   1.133  0.00  0.00    +0.008 C 
ENDBRANCH  13  15
ENDBRANCH  12  13
ENDBRANCH   1  12
TORSDOF 3
