REMARK  Name = ZINC49382753
REMARK  7 active torsions:
REMARK  status: ('A' for Active; 'I' for Inactive)
REMARK    1  A    between atoms: C_3  and  S_25
REMARK    2  A    between atoms: C_6  and  C_7
REMARK    3  A    between atoms: C_7  and  N_8
REMARK    4  A    between atoms: C_9  and  C_11
REMARK    5  A    between atoms: C_11  and  N_12
REMARK    6  A    between atoms: N_15  and  C_18
REMARK    7  A    between atoms: S_25  and  N_28
REMARK                            x       y       z     vdW  Elec       q    Type
REMARK                         _______ _______ _______ _____ _____    ______ ____
ROOT
ATOM      1  N   UNL     1      -1.722  -0.998  -1.405  0.00  0.00    -0.310 N 
ATOM      2  C   UNL     1      -2.863  -1.678  -1.633  0.00  0.00    +0.231 C 
ATOM      3  O   UNL     1      -3.529  -2.075  -0.700  0.00  0.00    -0.274 OA
ATOM      4  H   UNL     1      -1.190  -0.680  -2.151  0.00  0.00    +0.149 HD
ENDROOT
BRANCH   1   5
ATOM      5  C   UNL     1      -1.285  -0.739  -0.031  0.00  0.00    +0.139 C 
BRANCH   5  11
ATOM      6  C   UNL     1      -0.009   1.414  -0.061  0.00  0.00    +0.007 A 
ATOM      7  C   UNL     1       1.178   2.122  -0.081  0.00  0.00    +0.029 A 
ATOM      8  C   UNL     1       2.385   1.447  -0.091  0.00  0.00    +0.105 A 
ATOM      9  C   UNL     1       2.404   0.065  -0.081  0.00  0.00    +0.029 A 
ATOM     10  C   UNL     1       1.216  -0.643  -0.061  0.00  0.00    +0.007 A 
ATOM     11  C   UNL     1       0.010   0.032  -0.052  0.00  0.00    -0.030 A 
BRANCH   8  12
ATOM     12  S   UNL     1       3.898   2.349  -0.116  0.00  0.00    +0.056 S 
ATOM     13  O   UNL     1       4.878   1.482  -0.673  0.00  0.00    -0.153 OA
ATOM     14  O   UNL     1       3.603   3.622  -0.673  0.00  0.00    -0.153 OA
BRANCH  12  15
ATOM     15  N   UNL     1       4.339   2.611   1.458  0.00  0.00    -0.204 NA
ATOM     16  H   UNL     1       5.277   2.680   1.694  0.00  0.00    +0.144 HD
ATOM     17  H   UNL     1       3.658   2.694   2.145  0.00  0.00    +0.144 HD
ENDBRANCH  12  15
ENDBRANCH   8  12
ENDBRANCH   5  11
ENDBRANCH   1   5
BRANCH   2  18
ATOM     18  C   UNL     1      -3.312  -1.944  -3.046  0.00  0.00    +0.205 C 
BRANCH  18  19
ATOM     19  N   UNL     1      -4.571  -2.694  -3.026  0.00  0.00    -0.275 N 
ATOM     20  C   UNL     1      -4.689  -4.159  -3.009  0.00  0.00    +0.129 C 
ATOM     21  C   UNL     1      -6.210  -4.407  -2.991  0.00  0.00    +0.134 C 
ATOM     22  N   UNL     1      -6.787  -3.054  -3.000  0.00  0.00    -0.254 N 
ATOM     23  C   UNL     1      -5.796  -2.153  -3.014  0.00  0.00    +0.310 C 
ATOM     24  O   UNL     1      -5.992  -0.953  -3.019  0.00  0.00    -0.252 OA
BRANCH  22  25
ATOM     25  C   UNL     1      -8.155  -2.755  -2.989  0.00  0.00    +0.038 A 
ATOM     26  C   UNL     1      -8.578  -1.437  -2.886  0.00  0.00    +0.025 A 
ATOM     27  C   UNL     1      -9.928  -1.145  -2.876  0.00  0.00    +0.022 A 
ATOM     28  C   UNL     1     -10.859  -2.165  -2.968  0.00  0.00    +0.041 A 
ATOM     29  C   UNL     1     -10.440  -3.480  -3.071  0.00  0.00    +0.022 A 
ATOM     30  C   UNL     1      -9.091  -3.777  -3.088  0.00  0.00    +0.025 A 
ATOM     31 CL   UNL     1     -12.555  -1.795  -2.955  0.00  0.00    -0.084 Cl
ENDBRANCH  22  25
ENDBRANCH  18  19
ENDBRANCH   2  18
TORSDOF 7
