REMARK  Name = ZINC08967981
REMARK  11 active torsions:
REMARK  status: ('A' for Active; 'I' for Inactive)
REMARK    1  A    between atoms: C_1  and  C_2
REMARK    2  A    between atoms: C_5  and  C_8
REMARK    3  A    between atoms: C_8  and  C_10
REMARK    4  A    between atoms: C_8  and  S_24
REMARK    5  A    between atoms: C_10  and  N_11
REMARK    6  A    between atoms: C_12  and  C_14
REMARK    7  A    between atoms: C_16  and  O_22
REMARK    8  A    between atoms: C_18  and  O_20
REMARK    9  A    between atoms: O_20  and  C_21
REMARK   10  A    between atoms: O_22  and  C_23
REMARK   11  A    between atoms: S_24  and  C_27
REMARK                            x       y       z     vdW  Elec       q    Type
REMARK                         _______ _______ _______ _____ _____    ______ ____
ROOT
ATOM      1  C   UNL     1       1.418   1.990  -0.001  0.00  0.00    +0.183 C 
ENDROOT
BRANCH   1   6
ATOM      2  C   UNL     1       1.339   7.768   0.031  0.00  0.00    +0.044 C 
ATOM      3  C   UNL     1       1.359   6.262   0.022  0.00  0.00    -0.050 A 
ATOM      4  C   UNL     1       1.957   5.584  -1.024  0.00  0.00    +0.004 A 
ATOM      5  C   UNL     1       1.976   4.202  -1.031  0.00  0.00    +0.006 A 
ATOM      6  C   UNL     1       1.397   3.497   0.007  0.00  0.00    -0.022 A 
ATOM      7  C   UNL     1       0.794   4.175   1.051  0.00  0.00    +0.006 A 
ATOM      8  C   UNL     1       0.780   5.557   1.061  0.00  0.00    +0.004 A 
ENDBRANCH   1   6
BRANCH   1   9
ATOM      9  S   UNL     1       2.295   1.389   1.469  0.00  0.00    +0.011 S 
ATOM     10  O   UNL     1       2.170  -0.022   1.570  0.00  0.00    -0.168 OA
ATOM     11  O   UNL     1       3.568   2.013   1.568  0.00  0.00    -0.168 OA
BRANCH   9  12
ATOM     12  C   UNL     1       1.377   2.021   2.834  0.00  0.00    +0.126 A 
ATOM     13  C   UNL     1       0.333   1.462   3.493  0.00  0.00    +0.035 A 
ATOM     14  C   UNL     1      -0.236   2.146   4.550  0.00  0.00    +0.009 A 
ATOM     15  C   UNL     1       0.260   3.361   4.890  0.00  0.00    +0.047 A 
ATOM     16  S   UNL     1       1.577   3.568   3.703  0.00  0.00    -0.078 S 
ENDBRANCH   9  12
ENDBRANCH   1   9
BRANCH   1  17
ATOM     17  C   UNL     1      -0.018   1.461   0.010  0.00  0.00    +0.136 C 
BRANCH  17  18
ATOM     18  N   UNL     1       0.002  -0.004   0.002  0.00  0.00    -0.309 N 
ATOM     19  C   UNL     1      -1.156  -0.694   0.009  0.00  0.00    +0.244 C 
ATOM     20  O   UNL     1      -2.217  -0.100   0.023  0.00  0.00    -0.270 OA
ATOM     21  H   UNL     1       0.849  -0.478  -0.009  0.00  0.00    +0.149 HD
BRANCH  19  22
ATOM     22  C   UNL     1      -1.136  -2.172   0.001  0.00  0.00    +0.044 A 
ATOM     23  C   UNL     1       0.081  -2.855  -0.020  0.00  0.00    +0.059 A 
ATOM     24  C   UNL     1       0.095  -4.240  -0.021  0.00  0.00    +0.124 A 
ATOM     25  C   UNL     1      -1.098  -4.948  -0.014  0.00  0.00    +0.091 A 
ATOM     26  C   UNL     1      -2.310  -4.273   0.001  0.00  0.00    +0.124 A 
ATOM     27  C   UNL     1      -2.333  -2.888   0.009  0.00  0.00    +0.059 A 
BRANCH  26  28
ATOM     28  O   UNL     1      -3.476  -4.971   0.009  0.00  0.00    -0.495 OA
ATOM     29  C   UNL     1      -3.378  -6.397   0.001  0.00  0.00    +0.277 C 
ENDBRANCH  26  28
BRANCH  24  30
ATOM     30  O   UNL     1       1.279  -4.907  -0.036  0.00  0.00    -0.495 OA
ATOM     31  C   UNL     1       1.220  -6.335  -0.043  0.00  0.00    +0.277 C 
ENDBRANCH  24  30
ENDBRANCH  19  22
ENDBRANCH  17  18
ENDBRANCH   1  17
TORSDOF 8
