REMARK  Name = ZINC62097580
REMARK  3 active torsions:
REMARK  status: ('A' for Active; 'I' for Inactive)
REMARK    1  A    between atoms: C_1  and  S_2
REMARK    2  A    between atoms: S_2  and  N_5
REMARK    3  A    between atoms: C_16  and  N_21
REMARK                            x       y       z     vdW  Elec       q    Type
REMARK                         _______ _______ _______ _____ _____    ______ ____
ROOT
ATOM      1  N   UNL     1       0.795  -0.411  -1.394  0.00  0.00    -0.178 NA
ATOM      2  C   UNL     1       0.052  -0.601  -2.648  0.00  0.00    +0.128 C 
ATOM      3  C   UNL     1       0.653   0.320  -3.717  0.00  0.00    +0.124 C 
ATOM      4  N   UNL     1       2.111   0.142  -3.724  0.00  0.00    -0.307 N 
ATOM      5  C   UNL     1       2.854   0.332  -2.470  0.00  0.00    +0.124 C 
ATOM      6  C   UNL     1       2.254  -0.584  -1.402  0.00  0.00    +0.128 C 
ATOM      7  C   UNL     1       2.775  -0.199  -4.893  0.00  0.00    +0.161 A 
ATOM      8  N   UNL     1       2.271  -0.399  -6.090  0.00  0.00    -0.230 NA
ATOM      9  C   UNL     1       3.036  -0.724  -7.130  0.00  0.00    +0.052 A 
ATOM     10  C   UNL     1       4.360  -0.830  -6.854  0.00  0.00    -0.000 A 
ATOM     11  S   UNL     1       4.425  -0.450  -5.125  0.00  0.00    -0.059 S 
ATOM     12  C   UNL     1       5.463  -1.177  -7.795  0.00  0.00    -0.035 C 
ATOM     13  C   UNL     1       4.838  -1.763  -9.071  0.00  0.00    -0.011 C 
ATOM     14  C   UNL     1       3.689  -0.856  -9.520  0.00  0.00    +0.005 C 
ATOM     15  C   UNL     1       2.518  -0.967  -8.541  0.00  0.00    +0.056 C 
ENDROOT
BRANCH   1  17
ATOM     16  C   UNL     1      -0.022   1.810   0.012  0.00  0.00    +0.215 C 
ATOM     17  S   UNL     1       0.002  -0.004   0.002  0.00  0.00    +0.029 S 
ATOM     18  O   UNL     1       0.835  -0.488   1.046  0.00  0.00    -0.158 OA
ATOM     19  O   UNL     1      -1.315  -0.510  -0.168  0.00  0.00    -0.158 OA
ENDBRANCH   1  17
BRANCH  12  20
ATOM     20  N   UNL     1       6.349  -2.171  -7.174  0.00  0.00    +0.383 N 
ATOM     21  H   UNL     1       5.820  -3.003  -6.956  0.00  0.00    -0.089 HD
ATOM     22  H   UNL     1       7.093  -2.404  -7.814  0.00  0.00    -0.089 HD
ATOM     23  H   UNL     1       6.740  -1.790  -6.326  0.00  0.00    -0.089 HD
ENDBRANCH  12  20
TORSDOF 2
