REMARK  Name = ZINC42428211
REMARK  5 active torsions:
REMARK  status: ('A' for Active; 'I' for Inactive)
REMARK    1  A    between atoms: C_5  and  N_17
REMARK    2  A    between atoms: C_6  and  N_7
REMARK    3  A    between atoms: N_7  and  C_8
REMARK    4  A    between atoms: N_7  and  C_12
REMARK    5  A    between atoms: C_8  and  C_9
REMARK                            x       y       z     vdW  Elec       q    Type
REMARK                         _______ _______ _______ _____ _____    ______ ____
ROOT
ATOM      1  C   UNL     1       1.197  -1.055   0.289  0.00  0.00    +0.026 A 
ATOM      2  C   UNL     1       2.481  -0.541   0.282  0.00  0.00    +0.019 A 
ATOM      3  C   UNL     1       2.684   0.774  -0.060  0.00  0.00    +0.041 A 
ATOM      4  C   UNL     1       1.625   1.640  -0.412  0.00  0.00    +0.101 A 
ATOM      5  C   UNL     1       0.322   1.091  -0.397  0.00  0.00    +0.073 A 
ATOM      6  C   UNL     1       0.127  -0.234  -0.050  0.00  0.00    +0.053 A 
ATOM      7  N   UNL     1       2.034   2.891  -0.714  0.00  0.00    -0.246 NA
ATOM      8  C   UNL     1       3.286   3.238  -0.679  0.00  0.00    +0.157 A 
ATOM      9  S   UNL     1       4.095   1.840  -0.207  0.00  0.00    -0.075 S 
ENDROOT
BRANCH   5  10
ATOM     10  N   UNL     1      -0.776   1.893  -0.734  0.00  0.00    -0.355 N 
ATOM     11  H   UNL     1      -0.649   2.837  -0.918  0.00  0.00    +0.142 HD
ATOM     12  H   UNL     1      -1.663   1.504  -0.784  0.00  0.00    +0.142 HD
ENDBRANCH   5  10
BRANCH   6  13
ATOM     13  N   UNL     1      -1.175  -0.759  -0.042  0.00  0.00    -0.317 N 
BRANCH  13  14
ATOM     14  C   UNL     1      -1.927  -0.833   1.213  0.00  0.00    +0.074 C 
ATOM     15  C   UNL     1      -2.357  -2.289   1.486  0.00  0.00    +0.022 C 
ATOM     16  C   UNL     1      -3.766  -2.157   2.114  0.00  0.00    +0.002 C 
ATOM     17  C   UNL     1      -4.391  -0.989   1.311  0.00  0.00    +0.002 C 
ATOM     18  C   UNL     1      -3.220  -0.006   1.101  0.00  0.00    +0.022 C 
ENDBRANCH  13  14
BRANCH  13  19
ATOM     19  C   UNL     1      -1.781  -1.233  -1.289  0.00  0.00    +0.200 C 
BRANCH  19  20
ATOM     20  C   UNL     1      -1.345  -2.651  -1.552  0.00  0.00    +0.228 C 
ATOM     21  O   UNL     1      -0.556  -3.191  -0.805  0.00  0.00    -0.274 OA
ATOM     22  N   UNL     1      -1.830  -3.319  -2.617  0.00  0.00    -0.328 N 
ATOM     23  H   UNL     1      -2.461  -2.887  -3.214  0.00  0.00    +0.145 HD
ATOM     24  H   UNL     1      -1.549  -4.232  -2.786  0.00  0.00    +0.145 HD
ENDBRANCH  19  20
ENDBRANCH  13  19
ENDBRANCH   6  13
TORSDOF 5
