REMARK  Name = ZINC09576610
REMARK  12 active torsions:
REMARK  status: ('A' for Active; 'I' for Inactive)
REMARK    1  A    between atoms: C_1  and  N_61
REMARK    2  A    between atoms: C_2  and  N_61
REMARK    3  A    between atoms: C_3  and  C_4
REMARK    4  A    between atoms: C_3  and  N_61
REMARK    5  A    between atoms: C_4  and  N_5
REMARK    6  A    between atoms: C_6  and  C_8
REMARK    7  A    between atoms: C_8  and  N_9
REMARK    8  A    between atoms: C_10  and  C_12
REMARK    9  A    between atoms: C_16  and  C_20
REMARK   10  A    between atoms: C_20  and  N_21
REMARK   11  A    between atoms: N_21  and  S_22
REMARK   12  A    between atoms: S_22  and  C_25
REMARK                            x       y       z     vdW  Elec       q    Type
REMARK                         _______ _______ _______ _____ _____    ______ ____
ROOT
ATOM      1  C   UNL     1       2.223  -3.688  -6.662  0.00  0.00    +0.075 C 
ATOM      2  C   UNL     1       3.465  -4.076  -5.857  0.00  0.00    +0.013 C 
ATOM      3  C   UNL     1       3.538  -3.223  -4.589  0.00  0.00    +0.005 C 
ATOM      4  C   UNL     1       2.287  -3.460  -3.742  0.00  0.00    +0.005 C 
ATOM      5  C   UNL     1       1.045  -3.072  -4.546  0.00  0.00    +0.005 C 
ATOM      6  C   UNL     1       0.971  -3.925  -5.814  0.00  0.00    +0.013 C 
ENDROOT
BRANCH   1   8
ATOM      7  N   UNL     1       1.132  -4.359  -8.778  0.00  0.00    -0.306 N 
ATOM      8  C   UNL     1       2.150  -4.527  -7.911  0.00  0.00    +0.217 C 
ATOM      9  O   UNL     1       3.007  -5.356  -8.136  0.00  0.00    -0.276 OA
ATOM     10  H   UNL     1       0.447  -3.696  -8.599  0.00  0.00    +0.149 HD
BRANCH   7  11
ATOM     11  C   UNL     1       1.061  -5.175  -9.992  0.00  0.00    +0.200 C 
BRANCH  11  13
ATOM     12  N   UNL     1      -0.434  -5.416 -11.948  0.00  0.00    -0.316 N 
ATOM     13  C   UNL     1      -0.162  -4.792 -10.785  0.00  0.00    +0.230 C 
ATOM     14  O   UNL     1      -0.902  -3.923 -10.376  0.00  0.00    -0.274 OA
ATOM     15  H   UNL     1       0.158  -6.111 -12.276  0.00  0.00    +0.149 HD
BRANCH  12  16
ATOM     16  C   UNL     1      -1.623  -5.044 -12.719  0.00  0.00    +0.085 C 
BRANCH  16  17
ATOM     17  C   UNL     1      -1.697  -5.897 -13.987  0.00  0.00    -0.061 C 
BRANCH  17  20
ATOM     18  C   UNL     1      -2.779  -4.150 -15.268  0.00  0.00    -0.097 C 
ATOM     19  C   UNL     1      -3.126  -6.473 -15.855  0.00  0.00    -0.097 C 
ATOM     20  N   UNL     1      -2.912  -5.524 -14.741  0.00  0.00    +0.377 N 
ATOM     21  H   UNL     1      -3.721  -5.563 -14.111  0.00  0.00    -0.083 HD
ENDBRANCH  17  20
ENDBRANCH  16  17
ENDBRANCH  12  16
ENDBRANCH  11  13
ENDBRANCH   7  11
ENDBRANCH   1   8
BRANCH   4  22
ATOM     22  C   UNL     1       2.361  -2.608  -2.474  0.00  0.00    +0.109 C 
BRANCH  22  23
ATOM     23  N   UNL     1       1.223  -2.923  -1.606  0.00  0.00    -0.190 NA
ATOM     24  H   UNL     1       0.465  -3.413  -1.960  0.00  0.00    +0.148 HD
BRANCH  23  25
ATOM     25  S   UNL     1       1.231  -2.441  -0.022  0.00  0.00    +0.058 S 
ATOM     26  O   UNL     1       2.487  -2.833   0.515  0.00  0.00    -0.153 OA
ATOM     27  O   UNL     1      -0.003  -2.866   0.538  0.00  0.00    -0.153 OA
BRANCH  25  28
ATOM     28  C   UNL     1       1.208  -0.679  -0.013  0.00  0.00    +0.105 A 
ATOM     29  C   UNL     1       0.002  -0.004   0.002  0.00  0.00    +0.030 A 
ATOM     30  C   UNL     1      -0.017   1.378   0.010  0.00  0.00    +0.022 A 
ATOM     31  C   UNL     1       1.172   2.086   0.002  0.00  0.00    +0.041 A 
ATOM     32  C   UNL     1       2.379   1.409  -0.013  0.00  0.00    +0.022 A 
ATOM     33  C   UNL     1       2.397   0.027  -0.020  0.00  0.00    +0.030 A 
ATOM     34 CL   UNL     1       1.149   3.821   0.011  0.00  0.00    -0.084 Cl
ENDBRANCH  25  28
ENDBRANCH  23  25
ENDBRANCH  22  23
ENDBRANCH   4  22
TORSDOF 10
