REMARK  Name = ZINC12492517
REMARK  15 active torsions:
REMARK  status: ('A' for Active; 'I' for Inactive)
REMARK    1  A    between atoms: C_1  and  C_2
REMARK    2  A    between atoms: C_8  and  C_10
REMARK    3  A    between atoms: C_10  and  C_11
REMARK    4  A    between atoms: C_11  and  C_12
REMARK    5  A    between atoms: N_14  and  C_15
REMARK    6  A    between atoms: N_14  and  C_22
REMARK    7  A    between atoms: C_15  and  C_16
REMARK    8  A    between atoms: C_22  and  C_24
REMARK    9  A    between atoms: C_22  and  C_32
REMARK   10  A    between atoms: C_27  and  O_30
REMARK   11  A    between atoms: O_30  and  C_31
REMARK   12  A    between atoms: N_34  and  C_35
REMARK   13  A    between atoms: C_35  and  C_36
REMARK   14  A    between atoms: C_35  and  C_37
REMARK   15  A    between atoms: C_35  and  C_38
REMARK                            x       y       z     vdW  Elec       q    Type
REMARK                         _______ _______ _______ _____ _____    ______ ____
ROOT
ATOM      1  C   UNL     1      -9.022  -8.273  -0.700  0.00  0.00    +0.217 C 
ATOM      2  O   UNL     1      -9.577  -8.944   0.144  0.00  0.00    -0.276 OA
ATOM      3  N   UNL     1      -8.553  -7.049  -0.386  0.00  0.00    -0.283 N 
ENDROOT
BRANCH   1   4
ATOM      4  C   UNL     1      -8.857  -8.807  -2.099  0.00  0.00    +0.105 C 
BRANCH   4   5
ATOM      5  C   UNL     1      -9.472 -10.205  -2.187  0.00  0.00    +0.105 C 
BRANCH   5  13
ATOM      6  C   UNL     1      -8.507 -12.276  -8.718  0.00  0.00    +0.089 C 
ATOM      7  C   UNL     1      -9.053 -12.594  -7.349  0.00  0.00    +0.136 A 
ATOM      8  C   UNL     1      -9.001 -11.790  -6.273  0.00  0.00    +0.091 A 
ATOM      9  C   UNL     1      -9.623 -12.459  -5.195  0.00  0.00    +0.168 A 
ATOM     10  N   UNL     1     -10.031 -13.624  -5.627  0.00  0.00    -0.063 NA
ATOM     11  O   UNL     1      -9.682 -13.726  -6.996  0.00  0.00    -0.358 OA
ATOM     12  N   UNL     1      -9.776 -11.964  -3.900  0.00  0.00    -0.268 N 
ATOM     13  C   UNL     1      -9.307 -10.740  -3.586  0.00  0.00    +0.219 C 
ATOM     14  O   UNL     1      -8.752 -10.069  -4.430  0.00  0.00    -0.275 OA
ATOM     15  H   UNL     1     -10.220 -12.501  -3.225  0.00  0.00    +0.156 HD
ENDBRANCH   5  13
ENDBRANCH   4   5
ENDBRANCH   1   4
BRANCH   3  16
ATOM     16  C   UNL     1      -7.882  -6.238  -1.406  0.00  0.00    +0.140 C 
BRANCH  16  17
ATOM     17  C   UNL     1      -8.931  -5.540  -2.273  0.00  0.00    +0.136 C 
ATOM     18  C   UNL     1      -8.271  -4.424  -3.123  0.00  0.00    +0.035 C 
ATOM     19  C   UNL     1      -9.270  -4.326  -4.308  0.00  0.00    +0.031 C 
ATOM     20  C   UNL     1      -9.735  -5.790  -4.468  0.00  0.00    +0.160 C 
ATOM     21  O   UNL     1      -9.484  -6.462  -3.226  0.00  0.00    -0.375 OA
ENDBRANCH  16  17
ENDBRANCH   3  16
BRANCH   3  22
ATOM     22  C   UNL     1      -8.713  -6.529   0.974  0.00  0.00    +0.192 C 
BRANCH  22  23
ATOM     23  C   UNL     1      -7.369  -6.471   1.652  0.00  0.00    -0.018 A 
ATOM     24  C   UNL     1      -6.505  -5.425   1.383  0.00  0.00    +0.009 A 
ATOM     25  C   UNL     1      -5.272  -5.370   2.003  0.00  0.00    +0.046 A 
ATOM     26  C   UNL     1      -4.900  -6.365   2.895  0.00  0.00    +0.120 A 
ATOM     27  C   UNL     1      -5.768  -7.413   3.163  0.00  0.00    +0.046 A 
ATOM     28  C   UNL     1      -7.003  -7.461   2.545  0.00  0.00    +0.009 A 
BRANCH  26  29
ATOM     29  O   UNL     1      -3.687  -6.313   3.506  0.00  0.00    -0.495 OA
ATOM     30  C   UNL     1      -3.371  -7.372   4.412  0.00  0.00    +0.277 C 
ENDBRANCH  26  29
ENDBRANCH  22  23
BRANCH  22  31
ATOM     31  C   UNL     1      -9.307  -5.145   0.916  0.00  0.00    +0.238 C 
ATOM     32  O   UNL     1      -8.924  -4.355   0.079  0.00  0.00    -0.273 OA
ATOM     33  N   UNL     1     -10.264  -4.785   1.795  0.00  0.00    -0.309 N 
ATOM     34  H   UNL     1     -10.570  -5.416   2.464  0.00  0.00    +0.149 HD
BRANCH  33  35
ATOM     35  C   UNL     1     -10.841  -3.439   1.738  0.00  0.00    +0.026 C 
ATOM     36  C   UNL     1     -11.492  -3.220   0.372  0.00  0.00    +0.031 C 
ATOM     37  C   UNL     1     -11.896  -3.291   2.836  0.00  0.00    +0.031 C 
ATOM     38  C   UNL     1      -9.736  -2.402   1.949  0.00  0.00    +0.031 C 
ENDBRANCH  33  35
ENDBRANCH  22  31
ENDBRANCH   3  22
TORSDOF 10
