REMARK  Name = ZINC38806274
REMARK  12 active torsions:
REMARK  status: ('A' for Active; 'I' for Inactive)
REMARK    1  A    between atoms: C_1  and  C_2
REMARK    2  A    between atoms: C_2  and  O_3
REMARK    3  A    between atoms: O_3  and  C_4
REMARK    4  A    between atoms: C_4  and  C_6
REMARK    5  A    between atoms: C_10  and  N_11
REMARK    6  A    between atoms: C_12  and  C_14
REMARK    7  A    between atoms: C_14  and  C_15
REMARK    8  A    between atoms: C_18  and  N_21
REMARK    9  A    between atoms: C_24  and  C_30
REMARK   10  A    between atoms: C_24  and  C_31
REMARK   11  A    between atoms: C_26  and  C_28
REMARK   12  A    between atoms: C_26  and  C_29
REMARK                            x       y       z     vdW  Elec       q    Type
REMARK                         _______ _______ _______ _____ _____    ______ ____
ROOT
ATOM      1  C   UNL     1       1.449  -2.344  -2.516  0.00  0.00    +0.091 A 
ATOM      2  C   UNL     1       2.869  -2.615  -2.533  0.00  0.00    -0.024 A 
ATOM      3  C   UNL     1       3.335  -3.111  -3.703  0.00  0.00    -0.016 A 
ATOM      4  S   UNL     1       1.904  -3.216  -4.736  0.00  0.00    -0.079 S 
ATOM      5  C   UNL     1       0.742  -2.622  -3.680  0.00  0.00    +0.086 A 
ATOM      6  C   UNL     1       4.751  -3.465  -4.014  0.00  0.00    -0.041 C 
ATOM      7  N   UNL     1       5.609  -3.406  -2.832  0.00  0.00    +0.389 N 
ATOM      8  C   UNL     1       4.944  -3.475  -1.538  0.00  0.00    -0.069 C 
ATOM      9  C   UNL     1       3.853  -2.407  -1.392  0.00  0.00    +0.024 C 
ATOM     10  C   UNL     1       4.336  -4.860  -1.302  0.00  0.00    -0.010 C 
ATOM     11  C   UNL     1       5.995  -3.227  -0.439  0.00  0.00    -0.010 C 
ATOM     12  C   UNL     1       4.802  -4.866  -4.639  0.00  0.00    -0.005 C 
ATOM     13  C   UNL     1       5.281  -2.462  -5.058  0.00  0.00    -0.005 C 
ATOM     14  H   UNL     1       6.291  -4.165  -2.887  0.00  0.00    -0.084 HD
ATOM     15  H   UNL     1       6.156  -2.544  -2.870  0.00  0.00    -0.084 HD
ENDROOT
BRANCH   5  16
ATOM     16  N   UNL     1      -0.613  -2.447  -3.913  0.00  0.00    -0.279 N 
ATOM     17  C   UNL     1      -1.138  -2.772  -5.112  0.00  0.00    +0.222 C 
ATOM     18  O   UNL     1      -0.425  -3.217  -5.986  0.00  0.00    -0.275 OA
ATOM     19  H   UNL     1      -1.184  -2.091  -3.215  0.00  0.00    +0.155 HD
BRANCH  17  20
ATOM     20  C   UNL     1      -2.611  -2.581  -5.366  0.00  0.00    +0.131 C 
BRANCH  20  21
ATOM     21  C   UNL     1      -2.939  -3.017  -6.771  0.00  0.00    -0.038 A 
ATOM     22  C   UNL     1      -2.873  -2.107  -7.809  0.00  0.00    +0.006 A 
ATOM     23  C   UNL     1      -3.174  -2.506  -9.098  0.00  0.00    +0.033 A 
ATOM     24  C   UNL     1      -3.541  -3.815  -9.348  0.00  0.00    +0.126 A 
ATOM     25  C   UNL     1      -3.606  -4.725  -8.310  0.00  0.00    +0.033 A 
ATOM     26  C   UNL     1      -3.301  -4.327  -7.021  0.00  0.00    +0.006 A 
BRANCH  24  27
ATOM     27  N   UNL     1      -3.864  -4.243 -10.728  0.00  0.00    +0.056 N 
ATOM     28  O   UNL     1      -3.807  -3.447 -11.636  0.00  0.00    -0.126 OA
ATOM     29  O   UNL     1      -4.184  -5.388 -10.947  0.00  0.00    -0.126 OA
ENDBRANCH  24  27
ENDBRANCH  20  21
ENDBRANCH  17  20
ENDBRANCH   5  16
BRANCH   1  30
ATOM     30  C   UNL     1       0.776  -1.800  -1.335  0.00  0.00    +0.342 C 
ATOM     31  O   UNL     1       0.312  -2.552  -0.499  0.00  0.00    -0.245 OA
BRANCH  30  32
ATOM     32  O   UNL     1       0.671  -0.465  -1.174  0.00  0.00    -0.461 OA
BRANCH  32  34
ATOM     33  C   UNL     1      -0.019   1.526   0.010  0.00  0.00    +0.048 C 
ATOM     34  C   UNL     1       0.002  -0.004   0.002  0.00  0.00    +0.229 C 
ENDBRANCH  32  34
ENDBRANCH  30  32
ENDBRANCH   1  30
TORSDOF 7
