REMARK  Name = ZINC12546623
REMARK  15 active torsions:
REMARK  status: ('A' for Active; 'I' for Inactive)
REMARK    1  A    between atoms: C_1  and  C_2
REMARK    2  A    between atoms: C_5  and  N_9
REMARK    3  A    between atoms: C_6  and  C_8
REMARK    4  A    between atoms: N_9  and  S_10
REMARK    5  A    between atoms: S_10  and  C_13
REMARK    6  A    between atoms: C_16  and  S_22
REMARK    7  A    between atoms: C_17  and  N_19
REMARK    8  A    between atoms: S_22  and  C_23
REMARK    9  A    between atoms: C_23  and  C_24
REMARK   10  A    between atoms: C_24  and  O_25
REMARK   11  A    between atoms: O_25  and  C_26
REMARK   12  A    between atoms: C_29  and  C_33
REMARK   13  A    between atoms: C_30  and  C_32
REMARK   14  A    between atoms: C_33  and  C_34
REMARK   15  A    between atoms: C_33  and  C_35
REMARK                            x       y       z     vdW  Elec       q    Type
REMARK                         _______ _______ _______ _____ _____    ______ ____
ROOT
ATOM      1  C   UNL     1       1.272   3.199   0.748  0.00  0.00    +0.111 A 
ATOM      2  C   UNL     1       0.784   4.493   0.742  0.00  0.00    +0.030 A 
ATOM      3  C   UNL     1       0.864   5.268   1.882  0.00  0.00    +0.019 A 
ATOM      4  C   UNL     1       1.447   4.750   3.032  0.00  0.00    +0.038 A 
ATOM      5  C   UNL     1       1.941   3.452   3.033  0.00  0.00    +0.141 A 
ATOM      6  C   UNL     1       1.852   2.680   1.891  0.00  0.00    +0.062 A 
ENDROOT
BRANCH   1   7
ATOM      7  S   UNL     1       1.160   2.211  -0.707  0.00  0.00    +0.072 S 
ATOM      8  O   UNL     1       2.183   1.230  -0.611  0.00  0.00    -0.150 OA
ATOM      9  O   UNL     1       1.068   3.111  -1.803  0.00  0.00    -0.150 OA
BRANCH   7  10
ATOM     10  N   UNL     1      -0.282   1.400  -0.639  0.00  0.00    -0.216 N 
ATOM     11  H   UNL     1      -0.293   0.430  -0.635  0.00  0.00    +0.174 HD
BRANCH  10  16
ATOM     12  C   UNL     1      -5.157   4.291  -0.454  0.00  0.00    +0.044 C 
ATOM     13  C   UNL     1      -3.861   3.523  -0.503  0.00  0.00    -0.050 A 
ATOM     14  C   UNL     1      -2.801   4.005  -1.249  0.00  0.00    +0.005 A 
ATOM     15  C   UNL     1      -1.613   3.303  -1.297  0.00  0.00    +0.025 A 
ATOM     16  C   UNL     1      -1.482   2.112  -0.593  0.00  0.00    +0.051 A 
ATOM     17  C   UNL     1      -2.550   1.629   0.152  0.00  0.00    -0.028 A 
ATOM     18  C   UNL     1      -3.735   2.338   0.199  0.00  0.00    +0.008 A 
ATOM     19  C   UNL     1      -2.416   0.335   0.912  0.00  0.00    +0.046 C 
ENDBRANCH  10  16
ENDBRANCH   7  10
ENDBRANCH   1   7
BRANCH   5  20
ATOM     20  N   UNL     1       2.562   2.895   4.256  0.00  0.00    +0.058 N 
ATOM     21  O   UNL     1       2.994   1.757   4.255  0.00  0.00    -0.126 OA
ATOM     22  O   UNL     1       2.640   3.576   5.263  0.00  0.00    -0.126 OA
ENDBRANCH   5  20
BRANCH   4  23
ATOM     23  S   UNL     1       1.558   5.738   4.487  0.00  0.00    -0.120 S 
BRANCH  23  24
ATOM     24  C   UNL     1       0.798   7.313   4.008  0.00  0.00    +0.115 C 
BRANCH  24  25
ATOM     25  C   UNL     1       0.829   8.277   5.196  0.00  0.00    +0.240 C 
BRANCH  25  26
ATOM     26  O   UNL     1       0.230   9.518   4.817  0.00  0.00    -0.491 OA
BRANCH  26  27
ATOM     27  C   UNL     1       0.176  10.491   5.765  0.00  0.00    +0.121 A 
ATOM     28  C   UNL     1       0.685  10.254   7.034  0.00  0.00    +0.046 A 
ATOM     29  C   UNL     1       0.635  11.247   7.993  0.00  0.00    +0.008 A 
ATOM     30  C   UNL     1       0.068  12.472   7.693  0.00  0.00    -0.042 A 
ATOM     31  C   UNL     1      -0.445  12.709   6.431  0.00  0.00    -0.044 A 
ATOM     32  C   UNL     1      -0.391  11.721   5.466  0.00  0.00    +0.049 A 
ATOM     33  C   UNL     1      -1.061  14.045   6.107  0.00  0.00    +0.044 C 
BRANCH  30  34
ATOM     34  C   UNL     1       0.009  13.551   8.743  0.00  0.00    +0.013 C 
ATOM     35  C   UNL     1      -0.895  13.097   9.891  0.00  0.00    +0.012 C 
ATOM     36  C   UNL     1       1.417  13.820   9.278  0.00  0.00    +0.012 C 
ENDBRANCH  30  34
ENDBRANCH  26  27
ENDBRANCH  25  26
ENDBRANCH  24  25
ENDBRANCH  23  24
ENDBRANCH   4  23
TORSDOF 10
