REMARK  Name = ZINC65181869
REMARK  9 active torsions:
REMARK  status: ('A' for Active; 'I' for Inactive)
REMARK    1  A    between atoms: C_1  and  N_2
REMARK    2  A    between atoms: N_2  and  C_3
REMARK    3  A    between atoms: C_3  and  C_4
REMARK    4  A    between atoms: C_4  and  C_5
REMARK    5  A    between atoms: C_8  and  C_11
REMARK    6  A    between atoms: C_17  and  O_21
REMARK    7  A    between atoms: O_21  and  C_22
REMARK    8  A    between atoms: C_23  and  C_25
REMARK    9  A    between atoms: C_25  and  C_26
REMARK                            x       y       z     vdW  Elec       q    Type
REMARK                         _______ _______ _______ _____ _____    ______ ____
ROOT
ATOM      1  C   UNL     1      -1.388  -1.781   3.021  0.00  0.00    +0.139 C 
ATOM      2  N   UNL     1      -0.316  -2.126   3.637  0.00  0.00    -0.072 NA
ATOM      3  O   UNL     1      -0.619  -2.826   4.830  0.00  0.00    -0.367 OA
ATOM      4  C   UNL     1      -2.052  -2.891   4.907  0.00  0.00    +0.318 C 
ATOM      5  N   UNL     1      -2.513  -2.187   3.700  0.00  0.00    -0.291 N 
ATOM      6  H   UNL     1      -3.434  -2.038   3.434  0.00  0.00    +0.151 HD
ENDROOT
BRANCH   4   7
ATOM      7  C   UNL     1      -2.522  -4.347   4.898  0.00  0.00    +0.165 C 
ATOM      8  C   UNL     1      -1.996  -5.057   3.671  0.00  0.00    +0.012 C 
ATOM      9  C   UNL     1      -1.224  -6.069   4.125  0.00  0.00    -0.004 A 
ATOM     10  C   UNL     1      -0.445  -7.108   3.439  0.00  0.00    +0.013 A 
ATOM     11  C   UNL     1       0.244  -8.006   4.175  0.00  0.00    +0.046 A 
ATOM     12  C   UNL     1       0.232  -7.971   5.583  0.00  0.00    +0.122 A 
ATOM     13  C   UNL     1      -0.466  -7.041   6.284  0.00  0.00    +0.071 A 
ATOM     14  C   UNL     1      -1.222  -6.052   5.606  0.00  0.00    +0.046 A 
ATOM     15  N   UNL     1      -1.967  -5.065   6.051  0.00  0.00    -0.373 N 
ATOM     16  H   UNL     1      -2.123  -4.847   6.983  0.00  0.00    +0.160 HD
BRANCH  12  17
ATOM     17  O   UNL     1       0.944  -8.902   6.264  0.00  0.00    -0.495 OA
ATOM     18  C   UNL     1       1.664  -9.863   5.490  0.00  0.00    +0.277 C 
ENDBRANCH  12  17
ENDBRANCH   4   7
BRANCH   1  19
ATOM     19  C   UNL     1      -1.411  -1.020   1.720  0.00  0.00    +0.094 C 
BRANCH  19  20
ATOM     20  C   UNL     1       0.024  -0.743   1.267  0.00  0.00    +0.115 C 
BRANCH  20  22
ATOM     21  C   UNL     1      -0.018   1.461   0.010  0.00  0.00    +0.132 C 
ATOM     22  N   UNL     1       0.002  -0.004   0.002  0.00  0.00    -0.304 N 
ATOM     23  C   UNL     1       0.000  -0.672  -1.169  0.00  0.00    +0.220 C 
ATOM     24  O   UNL     1       0.017  -1.884  -1.175  0.00  0.00    -0.275 OA
BRANCH  23  25
ATOM     25  C   UNL     1      -0.023   0.089  -2.470  0.00  0.00    +0.134 C 
BRANCH  25  26
ATOM     26  C   UNL     1      -0.020  -0.884  -3.620  0.00  0.00    -0.003 A 
ATOM     27  C   UNL     1       1.172  -1.239  -4.223  0.00  0.00    +0.007 A 
ATOM     28  C   UNL     1       1.174  -2.132  -5.279  0.00  0.00    +0.000 A 
ATOM     29  C   UNL     1      -0.015  -2.670  -5.733  0.00  0.00    +0.003 A 
ATOM     30  C   UNL     1      -1.208  -2.317  -5.131  0.00  0.00    +0.038 A 
ATOM     31  C   UNL     1      -1.212  -1.427  -4.071  0.00  0.00    +0.127 A 
ATOM     32  F   UNL     1      -2.377  -1.085  -3.479  0.00  0.00    -0.205 F 
ENDBRANCH  25  26
ENDBRANCH  23  25
ENDBRANCH  20  22
ENDBRANCH  19  20
ENDBRANCH   1  19
TORSDOF 7
