REMARK  Name = ZINC64790096
REMARK  7 active torsions:
REMARK  status: ('A' for Active; 'I' for Inactive)
REMARK    1  A    between atoms: C_1  and  C_2
REMARK    2  A    between atoms: C_6  and  N_8
REMARK    3  A    between atoms: N_8  and  C_9
REMARK    4  A    between atoms: C_9  and  C_11
REMARK    5  A    between atoms: C_9  and  C_16
REMARK    6  A    between atoms: C_20  and  N_21
REMARK    7  A    between atoms: C_22  and  C_24
REMARK                            x       y       z     vdW  Elec       q    Type
REMARK                         _______ _______ _______ _____ _____    ______ ____
ROOT
ATOM      1  C   UNL     1      -0.558  -4.451   3.822  0.00  0.00    +0.010 A 
ATOM      2  C   UNL     1      -1.355  -5.591   3.928  0.00  0.00    -0.030 A 
ATOM      3  C   UNL     1      -1.553  -6.081   5.181  0.00  0.00    -0.005 A 
ATOM      4  S   UNL     1      -0.640  -4.974   6.221  0.00  0.00    -0.078 S 
ATOM      5  C   UNL     1      -0.020  -3.894   4.940  0.00  0.00    +0.078 A 
ATOM      6  C   UNL     1      -2.358  -7.277   5.575  0.00  0.00    +0.043 C 
ATOM      7  C   UNL     1      -3.244  -7.676   4.384  0.00  0.00    +0.005 C 
ATOM      8  C   UNL     1      -2.382  -7.703   3.119  0.00  0.00    +0.005 C 
ATOM      9  C   UNL     1      -1.989  -6.279   2.723  0.00  0.00    +0.036 C 
ENDROOT
BRANCH   5  10
ATOM     10  N   UNL     1       0.800  -2.770   5.057  0.00  0.00    -0.273 N 
ATOM     11  C   UNL     1       1.147  -2.312   6.276  0.00  0.00    +0.284 C 
ATOM     12  O   UNL     1       0.745  -2.879   7.276  0.00  0.00    -0.266 OA
ATOM     13  H   UNL     1       1.120  -2.319   4.260  0.00  0.00    +0.156 HD
BRANCH  11  14
ATOM     14  C   UNL     1       2.008  -1.132   6.398  0.00  0.00    +0.189 A 
ATOM     15  C   UNL     1       2.438  -0.570   7.566  0.00  0.00    +0.054 A 
ATOM     16  C   UNL     1       3.234   0.531   7.215  0.00  0.00    +0.042 A 
ATOM     17  C   UNL     1       3.256   0.592   5.865  0.00  0.00    +0.196 A 
ATOM     18  O   UNL     1       2.520  -0.415   5.377  0.00  0.00    -0.458 OA
ENDBRANCH  11  14
ENDBRANCH   5  10
BRANCH   1  19
ATOM     19  C   UNL     1      -0.287  -3.842   2.470  0.00  0.00    +0.141 C 
BRANCH  19  20
ATOM     20  C   UNL     1       1.129  -4.147   2.056  0.00  0.00    +0.014 A 
ATOM     21  C   UNL     1       1.582  -5.098   1.203  0.00  0.00    +0.013 A 
ATOM     22  C   UNL     1       2.941  -5.196   0.969  0.00  0.00    +0.008 A 
ATOM     23  C   UNL     1       3.780  -4.338   1.600  0.00  0.00    +0.045 A 
ATOM     24  S   UNL     1       2.644  -3.346   2.555  0.00  0.00    -0.099 S 
ENDBRANCH  19  20
BRANCH  19  25
ATOM     25  N   UNL     1      -0.472  -2.390   2.543  0.00  0.00    -0.319 N 
ATOM     26  H   UNL     1      -0.384  -1.932   3.393  0.00  0.00    +0.148 HD
BRANCH  25  32
ATOM     27  C   UNL     1      -1.409   1.853   0.535  0.00  0.00    +0.063 C 
ATOM     28  C   UNL     1      -1.230   0.363   0.399  0.00  0.00    +0.014 A 
ATOM     29  C   UNL     1      -1.369  -0.230  -0.840  0.00  0.00    +0.021 A 
ATOM     30  C   UNL     1      -1.202  -1.604  -0.959  0.00  0.00    +0.005 A 
ATOM     31  C   UNL     1      -0.901  -2.333   0.177  0.00  0.00    +0.041 A 
ATOM     32  C   UNL     1      -0.775  -1.670   1.393  0.00  0.00    +0.097 A 
ATOM     33  N   UNL     1      -0.936  -0.357   1.465  0.00  0.00    -0.347 N 
ATOM     34  H   UNL     1      -0.840   0.085   2.323  0.00  0.00    +0.167 HD
ENDBRANCH  25  32
ENDBRANCH  19  25
ENDBRANCH   1  19
TORSDOF 6
