REMARK  Name = ZINC14889246
REMARK  8 active torsions:
REMARK  status: ('A' for Active; 'I' for Inactive)
REMARK    1  A    between atoms: C_1  and  C_2
REMARK    2  A    between atoms: C_4  and  C_9
REMARK    3  A    between atoms: C_16  and  C_19
REMARK    4  A    between atoms: C_19  and  N_20
REMARK    5  A    between atoms: C_21  and  C_23
REMARK    6  A    between atoms: C_26  and  C_28
REMARK    7  A    between atoms: C_28  and  O_29
REMARK    8  A    between atoms: O_29  and  C_30
REMARK                            x       y       z     vdW  Elec       q    Type
REMARK                         _______ _______ _______ _____ _____    ______ ____
ROOT
ATOM      1  C   UNL     1       1.184   1.786   0.000  0.00  0.00    +0.027 A 
ATOM      2  C   UNL     1      -0.013   1.076   0.008  0.00  0.00    +0.050 A 
ATOM      3  C   UNL     1      -1.220   1.748   0.017  0.00  0.00    +0.124 A 
ATOM      4  C   UNL     1      -1.237   3.135   0.035  0.00  0.00    +0.045 A 
ATOM      5  C   UNL     1      -0.055   3.844   0.031  0.00  0.00    +0.001 A 
ATOM      6  C   UNL     1       1.167   3.189   0.008  0.00  0.00    +0.132 A 
ATOM      7  O   UNL     1       2.201   4.074  -0.014  0.00  0.00    -0.486 OA
ATOM      8  C   UNL     1       1.736   5.355   0.442  0.00  0.00    +0.195 C 
ATOM      9  C   UNL     1       0.238   5.331   0.058  0.00  0.00    +0.085 C 
ATOM     10  F   UNL     1      -2.380   1.057   0.015  0.00  0.00    -0.205 F 
ENDROOT
BRANCH   1  14
ATOM     11  C   UNL     1       4.179  -1.742   1.873  0.00  0.00    +0.047 C 
ATOM     12  C   UNL     1       3.920  -0.636   0.883  0.00  0.00    -0.015 A 
ATOM     13  C   UNL     1       2.718   0.041   0.904  0.00  0.00    +0.014 A 
ATOM     14  C   UNL     1       2.477   1.060  -0.015  0.00  0.00    -0.014 A 
ATOM     15  C   UNL     1       3.457   1.398  -0.947  0.00  0.00    +0.011 A 
ATOM     16  C   UNL     1       4.659   0.720  -0.958  0.00  0.00    +0.039 A 
ATOM     17  C   UNL     1       4.891  -0.296  -0.045  0.00  0.00    +0.126 A 
ATOM     18  F   UNL     1       6.069  -0.958  -0.059  0.00  0.00    -0.205 F 
ENDBRANCH   1  14
BRANCH   8  19
ATOM     19  C   UNL     1       2.465   6.487  -0.285  0.00  0.00    +0.149 C 
BRANCH  19  20
ATOM     20  N   UNL     1       3.879   6.484   0.098  0.00  0.00    -0.305 N 
ATOM     21  C   UNL     1       4.720   7.399  -0.423  0.00  0.00    +0.279 C 
ATOM     22  O   UNL     1       4.305   8.228  -1.211  0.00  0.00    -0.267 OA
ATOM     23  H   UNL     1       4.209   5.823   0.727  0.00  0.00    +0.149 HD
BRANCH  21  24
ATOM     24  C   UNL     1       6.135   7.396  -0.039  0.00  0.00    +0.190 A 
ATOM     25  C   UNL     1       7.091   8.262  -0.489  0.00  0.00    +0.055 A 
ATOM     26  C   UNL     1       8.293   7.896   0.135  0.00  0.00    +0.048 A 
ATOM     27  C   UNL     1       8.023   6.835   0.928  0.00  0.00    +0.131 A 
ATOM     28  O   UNL     1       6.721   6.541   0.825  0.00  0.00    -0.453 OA
BRANCH  27  29
ATOM     29  C   UNL     1       9.021   6.109   1.792  0.00  0.00    +0.233 C 
BRANCH  29  30
ATOM     30  O   UNL     1       9.060   6.714   3.087  0.00  0.00    -0.375 OA
ATOM     31  C   UNL     1       9.981   6.096   3.989  0.00  0.00    +0.194 C 
ENDBRANCH  29  30
ENDBRANCH  27  29
ENDBRANCH  21  24
ENDBRANCH  19  20
ENDBRANCH   8  19
TORSDOF 6
