REMARK  Name = ZINC00911195
REMARK  12 active torsions:
REMARK  status: ('A' for Active; 'I' for Inactive)
REMARK    1  A    between atoms: C_1  and  C_2
REMARK    2  A    between atoms: C_2  and  C_3
REMARK    3  A    between atoms: C_3  and  C_4
REMARK    4  A    between atoms: C_3  and  C_5
REMARK    5  A    between atoms: C_3  and  N_6
REMARK    6  A    between atoms: C_7  and  C_11
REMARK    7  A    between atoms: C_11  and  C_13
REMARK    8  A    between atoms: C_11  and  N_70
REMARK    9  A    between atoms: C_18  and  O_25
REMARK   10  A    between atoms: O_25  and  C_26
REMARK   11  A    between atoms: N_29  and  C_32
REMARK   12  A    between atoms: C_35  and  O_38
REMARK                            x       y       z     vdW  Elec       q    Type
REMARK                         _______ _______ _______ _____ _____    ______ ____
ROOT
ATOM      1  C   UNL     1       4.731   1.038   0.098  0.00  0.00    +0.039 C 
ENDROOT
BRANCH   1   2
ATOM      2  C   UNL     1       3.556   1.944   0.360  0.00  0.00    +0.011 A 
ATOM      3  C   UNL     1       2.347   1.410   0.670  0.00  0.00    +0.017 A 
ATOM      4  C   UNL     1       1.226   2.316   0.919  0.00  0.00    -0.001 A 
ATOM      5  C   UNL     1      -0.044   1.823   1.242  0.00  0.00    +0.013 A 
ATOM      6  C   UNL     1      -1.072   2.692   1.464  0.00  0.00    +0.046 A 
ATOM      7  C   UNL     1      -0.866   4.068   1.383  0.00  0.00    +0.122 A 
ATOM      8  C   UNL     1       0.382   4.575   1.065  0.00  0.00    +0.072 A 
ATOM      9  C   UNL     1       1.439   3.706   0.830  0.00  0.00    +0.053 A 
ATOM     10  N   UNL     1       2.693   4.184   0.511  0.00  0.00    -0.322 N 
ATOM     11  H   UNL     1       2.842   5.170   0.448  0.00  0.00    +0.169 HD
ATOM     12  C   UNL     1       3.716   3.342   0.284  0.00  0.00    +0.251 A 
ATOM     13  O   UNL     1       4.811   3.800   0.004  0.00  0.00    -0.268 OA
BRANCH   7  14
ATOM     14  O   UNL     1      -1.899   4.918   1.612  0.00  0.00    -0.495 OA
ATOM     15  C   UNL     1      -3.162   4.332   1.936  0.00  0.00    +0.277 C 
ENDBRANCH   7  14
ENDBRANCH   1   2
BRANCH   1  21
ATOM     16  C   UNL     1       4.313   1.148  -2.285  0.00  0.00    -0.058 C 
ATOM     17  C   UNL     1       4.922   1.557  -3.628  0.00  0.00    +0.086 C 
ATOM     18  N   UNL     1       6.130   0.758  -3.879  0.00  0.00    -0.333 N 
ATOM     19  C   UNL     1       7.121   0.958  -2.812  0.00  0.00    +0.086 C 
ATOM     20  C   UNL     1       6.511   0.549  -1.470  0.00  0.00    -0.058 C 
ATOM     21  N   UNL     1       5.312   1.375  -1.220  0.00  0.00    +0.391 N 
ATOM     22  H   UNL     1       5.582   2.366  -1.221  0.00  0.00    -0.080 HD
BRANCH  18  23
ATOM     23  C   UNL     1       6.675   1.054  -5.133  0.00  0.00    +0.030 A 
ATOM     24  C   UNL     1       7.994   1.478  -5.234  0.00  0.00    +0.026 A 
ATOM     25  C   UNL     1       8.533   1.765  -6.473  0.00  0.00    +0.047 A 
ATOM     26  C   UNL     1       7.755   1.639  -7.614  0.00  0.00    +0.117 A 
ATOM     27  C   UNL     1       6.437   1.220  -7.514  0.00  0.00    +0.047 A 
ATOM     28  C   UNL     1       5.898   0.928  -6.276  0.00  0.00    +0.026 A 
BRANCH  26  29
ATOM     29  O   UNL     1       8.286   1.927  -8.833  0.00  0.00    -0.507 OA
ATOM     30  H   UNL     1       8.178   2.850  -9.101  0.00  0.00    +0.292 HD
ENDBRANCH  26  29
ENDBRANCH  18  23
ENDBRANCH   1  21
BRANCH   1  32
ATOM     31  N   UNL     1       6.127   0.380   2.128  0.00  0.00    -0.225 N 
ATOM     32  C   UNL     1       5.776   1.249   1.163  0.00  0.00    +0.143 A 
ATOM     33  N   UNL     1       6.524   2.313   1.325  0.00  0.00    -0.115 NA
ATOM     34  N   UNL     1       7.288   2.111   2.343  0.00  0.00    -0.023 NA
ATOM     35  N   UNL     1       7.053   0.942   2.829  0.00  0.00    -0.043 NA
BRANCH  31  36
ATOM     36  C   UNL     1       5.562  -0.955   2.344  0.00  0.00    +0.061 C 
ATOM     37  C   UNL     1       4.049  -0.843   2.541  0.00  0.00    +0.036 C 
ATOM     38  C   UNL     1       5.855  -1.835   1.128  0.00  0.00    +0.036 C 
BRANCH  36  40
ATOM     39  C   UNL     1       5.604  -2.974   3.815  0.00  0.00    +0.006 C 
ATOM     40  C   UNL     1       6.194  -1.580   3.590  0.00  0.00    +0.026 C 
ENDBRANCH  36  40
ENDBRANCH  31  36
ENDBRANCH   1  32
TORSDOF 8
