REMARK  Name = ZINC13507534
REMARK  11 active torsions:
REMARK  status: ('A' for Active; 'I' for Inactive)
REMARK    1  A    between atoms: C_1  and  C_2
REMARK    2  A    between atoms: C_5  and  N_9
REMARK    3  A    between atoms: C_6  and  C_8
REMARK    4  A    between atoms: N_9  and  C_10
REMARK    5  A    between atoms: C_10  and  C_12
REMARK    6  A    between atoms: C_10  and  C_18
REMARK    7  A    between atoms: C_15  and  C_17
REMARK    8  A    between atoms: N_20  and  C_21
REMARK    9  A    between atoms: C_27  and  C_29
REMARK   10  A    between atoms: C_29  and  N_30
REMARK   11  A    between atoms: C_31  and  C_33
REMARK                            x       y       z     vdW  Elec       q    Type
REMARK                         _______ _______ _______ _____ _____    ______ ____
ROOT
ATOM      1  N   UNL     1       1.059  -2.804  -0.895  0.00  0.00    -0.251 N 
ATOM      2  C   UNL     1       1.706  -3.350  -1.944  0.00  0.00    +0.238 C 
ATOM      3  O   UNL     1       2.889  -3.136  -2.105  0.00  0.00    -0.273 OA
ENDROOT
BRANCH   1   8
ATOM      4  C   UNL     1      -4.474  -3.805  -0.141  0.00  0.00    +0.044 C 
ATOM      5  C   UNL     1      -3.004  -3.539  -0.341  0.00  0.00    -0.050 A 
ATOM      6  C   UNL     1      -2.067  -4.365   0.251  0.00  0.00    +0.005 A 
ATOM      7  C   UNL     1      -0.719  -4.128   0.065  0.00  0.00    +0.024 A 
ATOM      8  C   UNL     1      -0.305  -3.051  -0.709  0.00  0.00    +0.041 A 
ATOM      9  C   UNL     1      -1.249  -2.224  -1.303  0.00  0.00    -0.029 A 
ATOM     10  C   UNL     1      -2.596  -2.470  -1.117  0.00  0.00    +0.008 A 
ATOM     11  C   UNL     1      -0.805  -1.058  -2.148  0.00  0.00    +0.045 C 
ENDBRANCH   1   8
BRANCH   1  12
ATOM     12  C   UNL     1       1.785  -1.954   0.051  0.00  0.00    +0.233 C 
BRANCH  12  13
ATOM     13  C   UNL     1       1.062  -0.640   0.203  0.00  0.00    +0.135 A 
ATOM     14  C   UNL     1       1.617   0.581   0.097  0.00  0.00    +0.047 A 
ATOM     15  C   UNL     1       0.583   1.521   0.309  0.00  0.00    +0.045 A 
ATOM     16  C   UNL     1      -0.543   0.818   0.531  0.00  0.00    +0.102 A 
ATOM     17  O   UNL     1      -0.247  -0.490   0.466  0.00  0.00    -0.462 OA
ATOM     18  C   UNL     1      -1.906   1.401   0.801  0.00  0.00    +0.086 C 
ENDBRANCH  12  13
BRANCH  12  19
ATOM     19  C   UNL     1       1.862  -2.642   1.390  0.00  0.00    +0.242 C 
ATOM     20  O   UNL     1       1.254  -3.675   1.576  0.00  0.00    -0.273 OA
ATOM     21  N   UNL     1       2.606  -2.110   2.380  0.00  0.00    -0.311 N 
ATOM     22  H   UNL     1       3.092  -1.284   2.231  0.00  0.00    +0.149 HD
BRANCH  21  23
ATOM     23  C   UNL     1       2.680  -2.779   3.681  0.00  0.00    +0.073 C 
ATOM     24  C   UNL     1       1.491  -2.351   4.543  0.00  0.00    +0.022 C 
ATOM     25  C   UNL     1       1.569  -3.050   5.902  0.00  0.00    +0.002 C 
ATOM     26  C   UNL     1       2.873  -2.661   6.602  0.00  0.00    +0.000 C 
ATOM     27  C   UNL     1       4.062  -3.089   5.739  0.00  0.00    +0.002 C 
ATOM     28  C   UNL     1       3.984  -2.390   4.380  0.00  0.00    +0.022 C 
ENDBRANCH  21  23
ENDBRANCH  12  19
ENDBRANCH   1  12
BRANCH   2  29
ATOM     29  C   UNL     1       0.959  -4.225  -2.917  0.00  0.00    +0.201 C 
BRANCH  29  30
ATOM     30  N   UNL     1       1.878  -4.691  -3.959  0.00  0.00    -0.300 N 
ATOM     31  C   UNL     1       1.428  -5.493  -4.944  0.00  0.00    +0.280 C 
ATOM     32  O   UNL     1       0.259  -5.831  -4.968  0.00  0.00    -0.267 OA
ATOM     33  H   UNL     1       2.809  -4.422  -3.940  0.00  0.00    +0.150 HD
BRANCH  31  34
ATOM     34  C   UNL     1       2.347  -5.959  -5.987  0.00  0.00    +0.189 A 
ATOM     35  C   UNL     1       2.025  -6.771  -7.037  0.00  0.00    +0.054 A 
ATOM     36  C   UNL     1       3.202  -6.958  -7.779  0.00  0.00    +0.042 A 
ATOM     37  C   UNL     1       4.179  -6.261  -7.157  0.00  0.00    +0.196 A 
ATOM     38  O   UNL     1       3.659  -5.657  -6.081  0.00  0.00    -0.458 OA
ENDBRANCH  31  34
ENDBRANCH  29  30
ENDBRANCH   2  29
TORSDOF 8
