REMARK  Name = ZINC36592672
REMARK  13 active torsions:
REMARK  status: ('A' for Active; 'I' for Inactive)
REMARK    1  A    between atoms: C_1  and  C_2
REMARK    2  A    between atoms: C_5  and  S_8
REMARK    3  A    between atoms: S_8  and  C_11
REMARK    4  A    between atoms: C_11  and  N_12
REMARK    5  A    between atoms: C_13  and  C_15
REMARK    6  A    between atoms: C_15  and  C_17
REMARK    7  A    between atoms: C_15  and  N_26
REMARK    8  A    between atoms: C_20  and  N_23
REMARK    9  A    between atoms: N_26  and  C_35
REMARK   10  A    between atoms: C_27  and  C_29
REMARK   11  A    between atoms: C_35  and  C_36
REMARK   12  A    between atoms: C_35  and  C_37
REMARK   13  A    between atoms: C_35  and  C_38
REMARK                            x       y       z     vdW  Elec       q    Type
REMARK                         _______ _______ _______ _____ _____    ______ ____
ROOT
ATOM      1  C   UNL     1       2.049  -7.893   3.692  0.00  0.00    +0.193 C 
ENDROOT
BRANCH   1   2
ATOM      2  C   UNL     1       1.228  -6.741   3.171  0.00  0.00    -0.018 A 
ATOM      3  C   UNL     1       0.570  -5.906   4.055  0.00  0.00    +0.008 A 
ATOM      4  C   UNL     1      -0.183  -4.850   3.577  0.00  0.00    +0.033 A 
ATOM      5  C   UNL     1      -0.278  -4.629   2.216  0.00  0.00    +0.126 A 
ATOM      6  C   UNL     1       0.381  -5.463   1.332  0.00  0.00    +0.033 A 
ATOM      7  C   UNL     1       1.137  -6.517   1.810  0.00  0.00    +0.008 A 
BRANCH   5   8
ATOM      8  N   UNL     1      -1.085  -3.498   1.704  0.00  0.00    +0.056 N 
ATOM      9  O   UNL     1      -1.661  -2.768   2.477  0.00  0.00    -0.126 OA
ATOM     10  O   UNL     1      -1.168  -3.305   0.513  0.00  0.00    -0.126 OA
ENDBRANCH   5   8
ENDBRANCH   1   2
BRANCH   1  12
ATOM     11  N   UNL     1       0.778  -9.445   2.245  0.00  0.00    -0.294 N 
ATOM     12  C   UNL     1       1.309  -9.184   3.456  0.00  0.00    +0.239 C 
ATOM     13  O   UNL     1       1.192  -9.989   4.356  0.00  0.00    -0.273 OA
ATOM     14  H   UNL     1       0.872  -8.801   1.526  0.00  0.00    +0.150 HD
BRANCH  11  15
ATOM     15  C   UNL     1       0.059 -10.701   2.016  0.00  0.00    +0.278 C 
BRANCH  15  16
ATOM     16  S   UNL     1      -1.718 -10.432   2.257  0.00  0.00    +0.013 S 
ATOM     17  O   UNL     1      -1.946  -9.717   3.464  0.00  0.00    -0.168 OA
ATOM     18  O   UNL     1      -2.436 -11.626   1.977  0.00  0.00    -0.168 OA
BRANCH  16  23
ATOM     19  C   UNL     1      -3.322  -6.607  -2.124  0.00  0.00    +0.044 C 
ATOM     20  C   UNL     1      -2.921  -7.562  -1.030  0.00  0.00    -0.050 A 
ATOM     21  C   UNL     1      -2.974  -8.926  -1.250  0.00  0.00    +0.005 A 
ATOM     22  C   UNL     1      -2.607  -9.803  -0.246  0.00  0.00    +0.027 A 
ATOM     23  C   UNL     1      -2.186  -9.315   0.977  0.00  0.00    +0.090 A 
ATOM     24  C   UNL     1      -2.132  -7.952   1.197  0.00  0.00    +0.027 A 
ATOM     25  C   UNL     1      -2.495  -7.075   0.191  0.00  0.00    +0.005 A 
ENDBRANCH  16  23
ENDBRANCH  15  16
ENDBRANCH  11  15
ENDBRANCH   1  12
BRANCH   1  26
ATOM     26  N   UNL     1       2.280  -7.718   5.128  0.00  0.00    -0.277 N 
ATOM     27  C   UNL     1       1.403  -8.223   6.018  0.00  0.00    +0.249 C 
ATOM     28  O   UNL     1       0.222  -8.288   5.739  0.00  0.00    -0.270 OA
BRANCH  27  29
ATOM     29  C   UNL     1       1.878  -8.699   7.335  0.00  0.00    +0.055 A 
ATOM     30  C   UNL     1       1.077  -9.537   8.120  0.00  0.00    +0.016 A 
ATOM     31  C   UNL     1       1.568  -9.955   9.344  0.00  0.00    +0.020 A 
ATOM     32  C   UNL     1       2.822  -9.536   9.750  0.00  0.00    +0.111 A 
ATOM     33  N   UNL     1       3.555  -8.745   8.989  0.00  0.00    -0.263 NA
ATOM     34  C   UNL     1       3.134  -8.325   7.814  0.00  0.00    +0.123 A 
ENDBRANCH  27  29
BRANCH  26  35
ATOM     35  C   UNL     1       3.463  -6.993   5.597  0.00  0.00    +0.030 C 
ATOM     36  C   UNL     1       3.885  -5.968   4.542  0.00  0.00    +0.031 C 
ATOM     37  C   UNL     1       3.135  -6.271   6.906  0.00  0.00    +0.031 C 
ATOM     38  C   UNL     1       4.607  -7.982   5.833  0.00  0.00    +0.031 C 
ENDBRANCH  26  35
ENDBRANCH   1  26
TORSDOF 9
