REMARK  Name = ZINC08594867
REMARK  13 active torsions:
REMARK  status: ('A' for Active; 'I' for Inactive)
REMARK    1  A    between atoms: C_1  and  C_2
REMARK    2  A    between atoms: C_7  and  C_8
REMARK    3  A    between atoms: C_8  and  S_9
REMARK    4  A    between atoms: S_9  and  C_10
REMARK    5  A    between atoms: C_15  and  C_32
REMARK    6  A    between atoms: C_17  and  C_21
REMARK    7  A    between atoms: C_18  and  C_20
REMARK    8  A    between atoms: N_23  and  C_24
REMARK    9  A    between atoms: C_29  and  O_30
REMARK   10  A    between atoms: O_30  and  C_31
REMARK   11  A    between atoms: C_32  and  C_33
REMARK   12  A    between atoms: C_33  and  C_34
REMARK   13  A    between atoms: C_33  and  C_35
REMARK                            x       y       z     vdW  Elec       q    Type
REMARK                         _______ _______ _______ _____ _____    ______ ____
ROOT
ATOM      1  C   UNL     1      -1.961   0.685   4.528  0.00  0.00    +0.211 A 
ATOM      2  N   UNL     1      -0.747   1.065   4.952  0.00  0.00    -0.187 NA
ATOM      3  C   UNL     1      -0.872   1.826   6.005  0.00  0.00    +0.219 A 
ATOM      4  N   UNL     1      -2.193   1.947   6.284  0.00  0.00    -0.224 N 
ATOM      5  N   UNL     1      -2.875   1.211   5.316  0.00  0.00    -0.141 NA
ATOM      6  C   UNL     1      -2.715   2.723   7.406  0.00  0.00    +0.147 C 
ATOM      7  C   UNL     1      -1.614   3.572   7.983  0.00  0.00    +0.056 C 
ATOM      8  C   UNL     1      -0.321   3.409   7.666  0.00  0.00    +0.018 C 
ATOM      9  N   UNL     1       0.099   2.453   6.775  0.00  0.00    -0.287 N 
ATOM     10  C   UNL     1       0.705   4.306   8.310  0.00  0.00    +0.061 C 
ATOM     11  H   UNL     1       1.037   2.224   6.686  0.00  0.00    +0.155 HD
ENDROOT
BRANCH   7  12
ATOM     12  C   UNL     1      -1.960   4.590   8.903  0.00  0.00    +0.248 C 
ATOM     13  O   UNL     1      -2.099   4.324  10.083  0.00  0.00    -0.270 OA
ATOM     14  N   UNL     1      -2.135   5.856   8.473  0.00  0.00    -0.279 N 
ATOM     15  H   UNL     1      -1.949   6.084   7.549  0.00  0.00    +0.155 HD
BRANCH  14  16
ATOM     16  C   UNL     1      -2.587   6.841   9.360  0.00  0.00    +0.076 A 
ATOM     17  C   UNL     1      -3.321   6.483  10.482  0.00  0.00    +0.027 A 
ATOM     18  C   UNL     1      -3.764   7.457  11.356  0.00  0.00    +0.002 A 
ATOM     19  C   UNL     1      -3.479   8.788  11.117  0.00  0.00    +0.004 A 
ATOM     20  C   UNL     1      -2.748   9.152  10.001  0.00  0.00    +0.047 A 
ATOM     21  C   UNL     1      -2.294   8.182   9.123  0.00  0.00    +0.141 A 
BRANCH  21  22
ATOM     22  O   UNL     1      -1.571   8.538   8.028  0.00  0.00    -0.493 OA
ATOM     23  C   UNL     1      -1.310   9.931   7.848  0.00  0.00    +0.277 C 
ENDBRANCH  21  22
ENDBRANCH  14  16
ENDBRANCH   7  12
BRANCH   1  24
ATOM     24  S   UNL     1      -2.282  -0.348   3.137  0.00  0.00    -0.080 S 
BRANCH  24  25
ATOM     25  C   UNL     1      -0.633  -0.735   2.488  0.00  0.00    +0.112 C 
BRANCH  25  32
ATOM     26  C   UNL     1      -0.866   0.431  -0.145  0.00  0.00    +0.044 C 
ATOM     27  C   UNL     1      -0.876  -1.067   0.019  0.00  0.00    -0.046 A 
ATOM     28  C   UNL     1      -0.992  -1.883  -1.091  0.00  0.00    +0.003 A 
ATOM     29  C   UNL     1      -1.002  -3.257  -0.940  0.00  0.00    +0.000 A 
ATOM     30  C   UNL     1      -0.896  -3.815   0.320  0.00  0.00    +0.000 A 
ATOM     31  C   UNL     1      -0.779  -2.999   1.430  0.00  0.00    +0.005 A 
ATOM     32  C   UNL     1      -0.765  -1.625   1.279  0.00  0.00    -0.034 A 
ENDBRANCH  25  32
ENDBRANCH  24  25
ENDBRANCH   1  24
BRANCH   6  33
ATOM     33  C   UNL     1      -3.242   1.771   8.482  0.00  0.00    +0.035 C 
BRANCH  33  34
ATOM     34  C   UNL     1      -2.149   0.769   8.857  0.00  0.00    -0.015 C 
ATOM     35  C   UNL     1      -1.151   1.434   9.807  0.00  0.00    +0.007 C 
ATOM     36  C   UNL     1      -2.781  -0.442   9.547  0.00  0.00    +0.007 C 
ENDBRANCH  33  34
ENDBRANCH   6  33
TORSDOF 8
