REMARK  Name = ZINC22983873
REMARK  4 active torsions:
REMARK  status: ('A' for Active; 'I' for Inactive)
REMARK    1  A    between atoms: C_3  and  N_8
REMARK    2  A    between atoms: C_9  and  C_11
REMARK    3  A    between atoms: C_11  and  N_12
REMARK    4  A    between atoms: C_19  and  C_22
REMARK                            x       y       z     vdW  Elec       q    Type
REMARK                         _______ _______ _______ _____ _____    ______ ____
ROOT
ATOM      1  N   UNL     1      -1.229   1.770   0.021  0.00  0.00    -0.290 N 
ATOM      2  C   UNL     1      -0.031   1.132   0.003  0.00  0.00    +0.203 A 
ATOM      3  N   UNL     1       1.091   1.801  -0.003  0.00  0.00    -0.230 NA
ATOM      4  C   UNL     1       1.095   3.132   0.014  0.00  0.00    +0.116 A 
ATOM      5  C   UNL     1      -0.095   3.877   0.039  0.00  0.00    +0.080 A 
ATOM      6  C   UNL     1      -1.306   3.113   0.045  0.00  0.00    +0.263 A 
ATOM      7  O   UNL     1      -2.389   3.671   0.066  0.00  0.00    -0.267 OA
ATOM      8  C   UNL     1       0.083   5.324   0.055  0.00  0.00    +0.004 A 
ATOM      9  C   UNL     1       1.341   5.826   0.045  0.00  0.00    +0.056 A 
ATOM     10  S   UNL     1       2.366   4.369   0.013  0.00  0.00    -0.076 S 
ENDROOT
BRANCH   8  11
ATOM     11  C   UNL     1      -1.091   6.229   0.081  0.00  0.00    -0.016 A 
ATOM     12  C   UNL     1      -2.128   6.057  -0.836  0.00  0.00    +0.010 A 
ATOM     13  C   UNL     1      -3.220   6.900  -0.804  0.00  0.00    +0.020 A 
ATOM     14  C   UNL     1      -3.284   7.920   0.129  0.00  0.00    +0.041 A 
ATOM     15  C   UNL     1      -2.255   8.098   1.039  0.00  0.00    +0.020 A 
ATOM     16  C   UNL     1      -1.161   7.258   1.019  0.00  0.00    +0.010 A 
ATOM     17 CL   UNL     1      -4.658   8.980   0.160  0.00  0.00    -0.084 Cl
ENDBRANCH   8  11
BRANCH   1  18
ATOM     18  C   UNL     1      -2.463   0.980   0.021  0.00  0.00    +0.222 C 
BRANCH  18  20
ATOM     19  N   UNL     1      -3.989  -0.027   1.687  0.00  0.00    -0.282 N 
ATOM     20  C   UNL     1      -2.874   0.691   1.441  0.00  0.00    +0.237 C 
ATOM     21  O   UNL     1      -2.203   1.103   2.363  0.00  0.00    -0.274 OA
ATOM     22  H   UNL     1      -4.635  -0.342   0.855  0.00  0.00    +0.155 HD
BRANCH  19  25
ATOM     23  C   UNL     1      -4.387   0.107   5.338  0.00  0.00    +0.022 A 
ATOM     24  C   UNL     1      -4.036   0.493   4.054  0.00  0.00    +0.028 A 
ATOM     25  C   UNL     1      -4.323  -0.372   3.002  0.00  0.00    +0.071 A 
ATOM     26  C   UNL     1      -4.952  -1.581   3.276  0.00  0.00    +0.150 A 
ATOM     27  N   UNL     1      -5.265  -1.911   4.514  0.00  0.00    -0.242 NA
ATOM     28  C   UNL     1      -5.005  -1.113   5.532  0.00  0.00    +0.112 A 
ATOM     29 CL   UNL     1      -5.325  -2.670   1.976  0.00  0.00    -0.060 Cl
ENDBRANCH  19  25
ENDBRANCH  18  20
ENDBRANCH   1  18
TORSDOF 4
