REMARK  Name = ZINC16853453
REMARK  8 active torsions:
REMARK  status: ('A' for Active; 'I' for Inactive)
REMARK    1  A    between atoms: C_1  and  C_2
REMARK    2  A    between atoms: C_5  and  C_9
REMARK    3  A    between atoms: C_6  and  C_8
REMARK    4  A    between atoms: C_9  and  C_10
REMARK    5  A    between atoms: C_11  and  C_23
REMARK    6  A    between atoms: C_13  and  S_18
REMARK    7  A    between atoms: S_18  and  C_19
REMARK    8  A    between atoms: C_19  and  C_20
REMARK                            x       y       z     vdW  Elec       q    Type
REMARK                         _______ _______ _______ _____ _____    ______ ____
ROOT
ATOM      1  C   UNL     1       3.194   1.012   1.224  0.00  0.00    +0.047 A 
ATOM      2  C   UNL     1       2.556   0.048   1.992  0.00  0.00    +0.082 A 
ATOM      3  N   UNL     1       2.684   0.070   3.325  0.00  0.00    -0.223 NA
ATOM      4  C   UNL     1       3.396   1.000   3.927  0.00  0.00    +0.170 A 
ATOM      5  N   UNL     1       4.037   1.972   3.219  0.00  0.00    -0.302 N 
ATOM      6  H   UNL     1       4.556   2.647   3.684  0.00  0.00    +0.171 HD
ATOM      7  C   UNL     1       3.951   1.998   1.873  0.00  0.00    +0.256 A 
ATOM      8  O   UNL     1       4.522   2.865   1.231  0.00  0.00    -0.267 OA
ENDROOT
BRANCH   2   9
ATOM      9  C   UNL     1       1.743  -1.005   1.339  0.00  0.00    +0.001 A 
ATOM     10  C   UNL     1       1.965  -2.348   1.641  0.00  0.00    +0.010 A 
ATOM     11  C   UNL     1       1.201  -3.324   1.035  0.00  0.00    +0.001 A 
ATOM     12  C   UNL     1       0.224  -2.973   0.121  0.00  0.00    +0.000 A 
ATOM     13  C   UNL     1       0.003  -1.642  -0.187  0.00  0.00    +0.001 A 
ATOM     14  C   UNL     1       0.757  -0.657   0.417  0.00  0.00    +0.010 A 
ENDBRANCH   2   9
BRANCH   1  15
ATOM     15  C   UNL     1       3.070   1.002  -0.278  0.00  0.00    +0.078 C 
BRANCH  15  20
ATOM     16  C   UNL     1       8.300   0.311  -2.638  0.00  0.00    +0.044 C 
ATOM     17  C   UNL     1       6.936   0.491  -2.022  0.00  0.00    -0.050 A 
ATOM     18  C   UNL     1       6.445   1.763  -1.790  0.00  0.00    +0.003 A 
ATOM     19  C   UNL     1       5.197   1.928  -1.220  0.00  0.00    +0.004 A 
ATOM     20  C   UNL     1       4.434   0.822  -0.893  0.00  0.00    -0.040 A 
ATOM     21  C   UNL     1       4.923  -0.449  -1.131  0.00  0.00    -0.047 A 
ATOM     22  C   UNL     1       6.174  -0.614  -1.695  0.00  0.00    +0.007 A 
ATOM     23  C   UNL     1       4.092  -1.654  -0.774  0.00  0.00    +0.044 C 
ENDBRANCH  15  20
ENDBRANCH   1  15
BRANCH   4  24
ATOM     24  S   UNL     1       3.523   0.986   5.684  0.00  0.00    -0.078 S 
BRANCH  24  25
ATOM     25  C   UNL     1       2.513  -0.467   6.061  0.00  0.00    +0.172 C 
BRANCH  25  26
ATOM     26  C   UNL     1       2.477  -0.681   7.553  0.00  0.00    +0.221 C 
ATOM     27  O   UNL     1       3.075   0.075   8.288  0.00  0.00    -0.275 OA
ATOM     28  N   UNL     1       1.779  -1.712   8.069  0.00  0.00    -0.329 N 
ATOM     29  H   UNL     1       1.300  -2.317   7.481  0.00  0.00    +0.145 HD
ATOM     30  H   UNL     1       1.756  -1.849   9.029  0.00  0.00    +0.145 HD
ENDBRANCH  25  26
ENDBRANCH  24  25
ENDBRANCH   4  24
TORSDOF 6
