REMARK  Name = ZINC61999328
REMARK  3 active torsions:
REMARK  status: ('A' for Active; 'I' for Inactive)
REMARK    1  A    between atoms: C_1  and  C_2
REMARK    2  A    between atoms: C_22  and  C_30
REMARK    3  A    between atoms: C_30  and  C_32
REMARK                            x       y       z     vdW  Elec       q    Type
REMARK                         _______ _______ _______ _____ _____    ______ ____
ROOT
ATOM      1  C   UNL     1       0.491   1.425  -0.007  0.00  0.00    +0.046 C 
ATOM      2  C   UNL     1       0.385  -0.078  -0.012  0.00  0.00    -0.028 A 
ATOM      3  C   UNL     1       0.328  -0.760  -1.210  0.00  0.00    +0.025 A 
ATOM      4  C   UNL     1       0.232  -2.140  -1.224  0.00  0.00    +0.042 A 
ATOM      5  C   UNL     1       0.192  -2.840  -0.030  0.00  0.00    +0.027 A 
ATOM      6  C   UNL     1       0.249  -2.162   1.167  0.00  0.00    +0.006 A 
ATOM      7  C   UNL     1       0.352  -0.775   1.194  0.00  0.00    +0.042 A 
ATOM      8  N   UNL     1       0.401  -0.320   2.513  0.00  0.00    -0.283 N 
ATOM      9  C   UNL     1       0.343  -1.330   3.401  0.00  0.00    +0.244 C 
ATOM     10  O   UNL     1       0.366  -1.232   4.610  0.00  0.00    -0.273 OA
ATOM     11  C   UNL     1       0.230  -2.606   2.605  0.00  0.00    +0.145 C 
ATOM     12  C   UNL     1      -1.047  -3.369   2.935  0.00  0.00    +0.116 C 
ATOM     13  C   UNL     1      -1.864  -2.673   3.986  0.00  0.00    -0.008 A 
ATOM     14  C   UNL     1      -1.607  -2.280   5.281  0.00  0.00    +0.006 A 
ATOM     15  C   UNL     1      -2.589  -1.642   6.019  0.00  0.00    +0.000 A 
ATOM     16  C   UNL     1      -3.827  -1.400   5.453  0.00  0.00    +0.002 A 
ATOM     17  C   UNL     1      -4.089  -1.792   4.157  0.00  0.00    +0.023 A 
ATOM     18  C   UNL     1      -3.107  -2.435   3.407  0.00  0.00    +0.038 A 
ATOM     19  N   UNL     1      -3.129  -2.918   2.097  0.00  0.00    -0.284 N 
ATOM     20  C   UNL     1      -1.958  -3.481   1.743  0.00  0.00    +0.231 C 
ATOM     21  O   UNL     1      -1.689  -3.981   0.671  0.00  0.00    -0.274 OA
ATOM     22  C   UNL     1      -0.593  -4.759   3.415  0.00  0.00    +0.099 C 
ATOM     23  C   UNL     1       0.830  -4.885   2.818  0.00  0.00    +0.070 C 
ATOM     24  N   UNL     1       1.371  -3.493   2.896  0.00  0.00    -0.281 NA
ATOM     25  C   UNL     1       1.780  -3.328   4.311  0.00  0.00    +0.086 C 
ATOM     26  C   UNL     1       2.348  -4.697   4.734  0.00  0.00    +0.017 C 
ATOM     27  C   UNL     1       1.702  -5.728   3.763  0.00  0.00    +0.021 C 
ATOM     28 CL   UNL     1       0.160  -2.991  -2.736  0.00  0.00    -0.084 Cl
ATOM     29  H   UNL     1       0.469   0.615   2.761  0.00  0.00    +0.155 HD
ATOM     30  H   UNL     1      -3.899  -2.856   1.510  0.00  0.00    +0.155 HD
ENDROOT
BRANCH  22  31
ATOM     31  C   UNL     1      -0.550  -4.816   4.920  0.00  0.00    +0.169 C 
ATOM     32  O   UNL     1       0.468  -4.521   5.509  0.00  0.00    -0.292 OA
BRANCH  31  33
ATOM     33  C   UNL     1      -1.744  -5.229   5.675  0.00  0.00    +0.018 A 
ATOM     34  C   UNL     1      -2.918  -5.575   4.999  0.00  0.00    +0.011 A 
ATOM     35  C   UNL     1      -4.032  -5.962   5.713  0.00  0.00    +0.001 A 
ATOM     36  C   UNL     1      -3.990  -6.007   7.096  0.00  0.00    +0.000 A 
ATOM     37  C   UNL     1      -2.832  -5.666   7.773  0.00  0.00    +0.001 A 
ATOM     38  C   UNL     1      -1.708  -5.283   7.072  0.00  0.00    +0.011 A 
ENDBRANCH  31  33
ENDBRANCH  22  31
TORSDOF 2
