REMARK  Name = ZINC65266393
REMARK  6 active torsions:
REMARK  status: ('A' for Active; 'I' for Inactive)
REMARK    1  A    between atoms: C_1  and  C_2
REMARK    2  A    between atoms: C_5  and  C_7
REMARK    3  A    between atoms: N_23  and  C_24
REMARK    4  A    between atoms: C_24  and  C_25
REMARK    5  A    between atoms: C_24  and  C_26
REMARK    6  A    between atoms: C_24  and  C_27
REMARK                            x       y       z     vdW  Elec       q    Type
REMARK                         _______ _______ _______ _____ _____    ______ ____
ROOT
ATOM      1  C   UNL     1       1.279  -4.879  -1.654  0.00  0.00    +0.253 C 
ATOM      2  O   UNL     1       0.735  -5.951  -1.845  0.00  0.00    -0.269 OA
ATOM      3  N   UNL     1       2.581  -4.837  -1.306  0.00  0.00    -0.295 N 
ATOM      4  C   UNL     1       3.357  -3.616  -1.040  0.00  0.00    +0.111 C 
ATOM      5  C   UNL     1       4.801  -4.053  -0.703  0.00  0.00    +0.054 C 
ATOM      6  C   UNL     1       4.886  -5.461  -1.321  0.00  0.00    +0.103 C 
ATOM      7  C   UNL     1       3.460  -6.009  -1.123  0.00  0.00    +0.141 C 
ATOM      8  C   UNL     1       5.892  -6.307  -0.587  0.00  0.00    +0.099 C 
ATOM      9  N   UNL     1       6.214  -7.525  -1.164  0.00  0.00    -0.286 N 
ATOM     10  C   UNL     1       6.290  -7.584  -2.561  0.00  0.00    +0.145 A 
ATOM     11  C   UNL     1       5.796  -6.535  -3.339  0.00  0.00    +0.069 A 
ATOM     12  C   UNL     1       5.869  -6.620  -4.721  0.00  0.00    +0.028 A 
ATOM     13  C   UNL     1       6.443  -7.754  -5.282  0.00  0.00    +0.022 A 
ATOM     14  C   UNL     1       6.918  -8.751  -4.453  0.00  0.00    +0.113 A 
ATOM     15  N   UNL     1       6.832  -8.644  -3.140  0.00  0.00    -0.238 NA
ATOM     16  N   UNL     1       5.243  -5.396  -2.734  0.00  0.00    -0.328 N 
ATOM     17  N   UNL     1       6.427  -5.918   0.524  0.00  0.00    -0.370 N 
ATOM     18  H   UNL     1       5.100  -4.583  -3.244  0.00  0.00    +0.147 HD
ATOM     19  H   UNL     1       6.253  -5.024   0.860  0.00  0.00    +0.161 HD
ATOM     20  H   UNL     1       6.381  -8.309  -0.619  0.00  0.00    +0.155 HD
ENDROOT
BRANCH   1  25
ATOM     21  C   UNL     1      -0.633   0.327  -1.938  0.00  0.00    +0.051 C 
ATOM     22  C   UNL     1      -0.373  -1.157  -1.933  0.00  0.00    -0.013 A 
ATOM     23  C   UNL     1      -1.246  -2.157  -2.208  0.00  0.00    +0.011 A 
ATOM     24  C   UNL     1      -0.811  -3.459  -2.148  0.00  0.00    +0.021 A 
ATOM     25  C   UNL     1       0.520  -3.635  -1.802  0.00  0.00    +0.074 A 
ATOM     26  S   UNL     1       1.068  -1.952  -1.591  0.00  0.00    -0.089 S 
ENDBRANCH   1  25
BRANCH  17  27
ATOM     27  C   UNL     1       7.298  -6.825   1.275  0.00  0.00    +0.031 C 
ATOM     28  C   UNL     1       8.422  -7.324   0.365  0.00  0.00    +0.033 C 
ATOM     29  C   UNL     1       7.901  -6.082   2.469  0.00  0.00    +0.033 C 
ATOM     30  C   UNL     1       6.481  -8.017   1.777  0.00  0.00    +0.033 C 
ENDBRANCH  17  27
TORSDOF 2
