REMARK  Name = ZINC54108343
REMARK  1 active torsions:
REMARK  status: ('A' for Active; 'I' for Inactive)
REMARK    1  A    between atoms: C_5  and  N_11
REMARK                            x       y       z     vdW  Elec       q    Type
REMARK                         _______ _______ _______ _____ _____    ______ ____
ROOT
ATOM      1  N   UNL     1       5.985   1.879  -0.044  0.00  0.00    -0.226 NA
ATOM      2  C   UNL     1       6.945   1.460   0.750  0.00  0.00    +0.155 C 
ATOM      3  N   UNL     1       8.214   1.965   0.878  0.00  0.00    -0.317 N 
ATOM      4  C   UNL     1       9.244   1.166   1.522  0.00  0.00    +0.043 C 
ATOM      5  C   UNL     1      10.383   0.897   0.530  0.00  0.00    +0.026 C 
ATOM      6  C   UNL     1      10.976   2.228   0.065  0.00  0.00    +0.002 C 
ATOM      7  C   UNL     1      11.528   2.991   1.270  0.00  0.00    +0.000 C 
ATOM      8  C   UNL     1      10.397   3.256   2.266  0.00  0.00    +0.002 C 
ATOM      9  C   UNL     1       9.804   1.926   2.732  0.00  0.00    +0.026 C 
ATOM     10  C   UNL     1       8.709  -0.201   2.021  0.00  0.00    +0.102 C 
ATOM     11  S   UNL     1       6.894   0.106   1.915  0.00  0.00    -0.088 S 
ATOM     12  H   UNL     1       8.424   2.850   0.541  0.00  0.00    +0.149 HD
ENDROOT
BRANCH   1  17
ATOM     13  C   UNL     1      -0.017   1.389   0.010  0.00  0.00    +0.020 A 
ATOM     14  C   UNL     1       1.158   2.086   0.002  0.00  0.00    +0.011 A 
ATOM     15  C   UNL     1       2.363   1.357  -0.013  0.00  0.00    +0.002 A 
ATOM     16  C   UNL     1       3.605   2.007  -0.021  0.00  0.00    +0.037 A 
ATOM     17  C   UNL     1       4.768   1.253  -0.036  0.00  0.00    +0.067 A 
ATOM     18  C   UNL     1       4.704  -0.152  -0.043  0.00  0.00    +0.030 A 
ATOM     19  C   UNL     1       3.510  -0.796  -0.035  0.00  0.00    +0.030 A 
ATOM     20  C   UNL     1       2.310  -0.060  -0.020  0.00  0.00    +0.071 A 
ATOM     21  N   UNL     1       1.126  -0.679  -0.012  0.00  0.00    -0.255 NA
ATOM     22  C   UNL     1       0.002  -0.004   0.002  0.00  0.00    +0.111 A 
ENDBRANCH   1  17
TORSDOF 1
