REMARK  Name = ZINC09325577
REMARK  10 active torsions:
REMARK  status: ('A' for Active; 'I' for Inactive)
REMARK    1  A    between atoms: C_1  and  C_2
REMARK    2  A    between atoms: C_2  and  O_3
REMARK    3  A    between atoms: O_3  and  C_4
REMARK    4  A    between atoms: C_7  and  C_9
REMARK    5  A    between atoms: C_13  and  N_14
REMARK    6  A    between atoms: C_15  and  C_17
REMARK    7  A    between atoms: C_18  and  C_19
REMARK    8  A    between atoms: C_23  and  N_25
REMARK    9  A    between atoms: C_32  and  O_34
REMARK   10  A    between atoms: O_34  and  C_35
REMARK                            x       y       z     vdW  Elec       q    Type
REMARK                         _______ _______ _______ _____ _____    ______ ____
ROOT
ATOM      1  C   UNL     1       4.775  -7.146  -0.080  0.00  0.00    +0.069 A 
ATOM      2  C   UNL     1       4.529  -8.579  -0.087  0.00  0.00    -0.020 A 
ATOM      3  C   UNL     1       3.226  -8.935  -0.073  0.00  0.00    +0.013 A 
ATOM      4  S   UNL     1       2.334  -7.407  -0.050  0.00  0.00    -0.076 S 
ATOM      5  C   UNL     1       3.670  -6.304  -0.065  0.00  0.00    +0.085 A 
ATOM      6  C   UNL     1       2.676 -10.330  -0.070  0.00  0.00    +0.153 C 
ATOM      7  N   UNL     1       3.807 -11.244  -0.323  0.00  0.00    -0.262 N 
ATOM      8  C   UNL     1       5.075 -10.964   0.368  0.00  0.00    +0.116 C 
ATOM      9  C   UNL     1       5.636  -9.624  -0.113  0.00  0.00    +0.056 C 
ATOM     10  C   UNL     1       3.683 -12.296  -1.157  0.00  0.00    +0.403 C 
ATOM     11  O   UNL     1       4.629 -13.034  -1.349  0.00  0.00    -0.226 OA
ENDROOT
BRANCH   1  15
ATOM     12  C   UNL     1       8.009  -5.862  -1.268  0.00  0.00    +0.407 C 
ATOM     13  O   UNL     1       8.583  -5.646  -0.219  0.00  0.00    -0.226 OA
ATOM     14  N   UNL     1       6.755  -6.356  -1.260  0.00  0.00    -0.217 N 
ATOM     15  C   UNL     1       6.138  -6.609  -0.089  0.00  0.00    +0.255 C 
ATOM     16  O   UNL     1       6.713  -6.393   0.961  0.00  0.00    -0.270 OA
ATOM     17  H   UNL     1       6.296  -6.528  -2.097  0.00  0.00    +0.161 HD
BRANCH  12  18
ATOM     18  O   UNL     1       8.625  -5.609  -2.437  0.00  0.00    -0.450 OA
BRANCH  18  20
ATOM     19  C   UNL     1      10.507  -4.856  -3.787  0.00  0.00    +0.048 C 
ATOM     20  C   UNL     1       9.975  -5.079  -2.370  0.00  0.00    +0.230 C 
ENDBRANCH  18  20
ENDBRANCH  12  18
ENDBRANCH   1  15
BRANCH   5  21
ATOM     21  N   UNL     1       3.643  -4.920  -0.058  0.00  0.00    -0.276 N 
ATOM     22  C   UNL     1       2.463  -4.269  -0.043  0.00  0.00    +0.241 C 
ATOM     23  O   UNL     1       1.421  -4.898  -0.036  0.00  0.00    -0.270 OA
ATOM     24  H   UNL     1       4.473  -4.418  -0.064  0.00  0.00    +0.156 HD
BRANCH  22  25
ATOM     25  C   UNL     1       2.434  -2.806  -0.036  0.00  0.00    +0.068 C 
ATOM     26  C   UNL     1       1.253  -2.155  -0.021  0.00  0.00    +0.013 C 
BRANCH  26  27
ATOM     27  C   UNL     1       1.224  -0.683  -0.013  0.00  0.00    -0.023 A 
ATOM     28  C   UNL     1       2.420   0.044  -0.021  0.00  0.00    +0.008 A 
ATOM     29  C   UNL     1       2.384   1.422  -0.013  0.00  0.00    +0.003 A 
ATOM     30  C   UNL     1       1.170   2.087   0.002  0.00  0.00    +0.033 A 
ATOM     31  C   UNL     1      -0.017   1.375   0.010  0.00  0.00    +0.127 A 
ATOM     32  C   UNL     1       0.002  -0.004   0.002  0.00  0.00    +0.040 A 
BRANCH  31  33
ATOM     33  N   UNL     1      -1.310   2.095   0.020  0.00  0.00    +0.056 N 
ATOM     34  O   UNL     1      -2.355   1.471   0.021  0.00  0.00    -0.126 OA
ATOM     35  O   UNL     1      -1.328   3.313   0.026  0.00  0.00    -0.126 OA
ENDBRANCH  31  33
ENDBRANCH  26  27
ENDBRANCH  22  25
ENDBRANCH   5  21
BRANCH  10  36
ATOM     36  O   UNL     1       2.511 -12.529  -1.777  0.00  0.00    -0.454 OA
ATOM     37  C   UNL     1       2.450 -13.680  -2.661  0.00  0.00    +0.282 C 
ENDBRANCH  10  36
TORSDOF 8
