REMARK  Name = ZINC39653887
REMARK  9 active torsions:
REMARK  status: ('A' for Active; 'I' for Inactive)
REMARK    1  A    between atoms: C_1  and  C_2
REMARK    2  A    between atoms: C_2  and  O_3
REMARK    3  A    between atoms: O_3  and  C_4
REMARK    4  A    between atoms: C_7  and  C_10
REMARK    5  A    between atoms: C_10  and  C_11
REMARK    6  A    between atoms: C_11  and  N_12
REMARK    7  A    between atoms: C_13  and  C_15
REMARK    8  A    between atoms: C_26  and  C_28
REMARK    9  A    between atoms: C_31  and  C_36
REMARK                            x       y       z     vdW  Elec       q    Type
REMARK                         _______ _______ _______ _____ _____    ______ ____
ROOT
ATOM      1  C   UNL     1      -0.827 -10.170  -3.640  0.00  0.00    +0.100 C 
ATOM      2  C   UNL     1       0.340 -10.508  -4.595  0.00  0.00    +0.121 C 
ATOM      3  N   UNL     1      -0.145 -11.664  -5.385  0.00  0.00    -0.296 N 
ATOM      4  C   UNL     1      -1.572 -11.358  -5.647  0.00  0.00    +0.115 C 
ATOM      5  C   UNL     1      -2.080 -10.729  -4.335  0.00  0.00    -0.004 C 
ATOM      6  C   UNL     1      -2.739 -11.791  -3.461  0.00  0.00    -0.010 C 
ATOM      7  C   UNL     1      -4.013 -12.291  -4.147  0.00  0.00    -0.082 C 
ATOM      8  N   UNL     1      -4.931 -11.166  -4.359  0.00  0.00    +0.379 N 
ATOM      9  C   UNL     1      -4.325 -10.192  -5.275  0.00  0.00    -0.082 C 
ATOM     10  C   UNL     1      -3.064  -9.603  -4.637  0.00  0.00    -0.010 C 
ATOM     11  C   UNL     1       0.553 -12.748  -5.776  0.00  0.00    +0.250 C 
ATOM     12  O   UNL     1       1.698 -12.903  -5.398  0.00  0.00    -0.270 OA
ATOM     13  H   UNL     1      -5.794 -11.507  -4.755  0.00  0.00    -0.086 HD
ATOM     14  H   UNL     1      -5.123 -10.719  -3.475  0.00  0.00    -0.086 HD
ENDROOT
BRANCH  11  15
ATOM     15  C   UNL     1      -0.073 -13.749  -6.664  0.00  0.00    +0.075 A 
ATOM     16  C   UNL     1      -0.975 -13.344  -7.652  0.00  0.00    +0.016 A 
ATOM     17  C   UNL     1      -1.556 -14.281  -8.478  0.00  0.00    +0.007 A 
ATOM     18  C   UNL     1      -1.250 -15.624  -8.334  0.00  0.00    -0.012 A 
ATOM     19  C   UNL     1      -0.358 -16.036  -7.359  0.00  0.00    +0.162 A 
ATOM     20  C   UNL     1       0.238 -15.104  -6.525  0.00  0.00    +0.171 A 
ATOM     21  F   UNL     1       1.114 -15.505  -5.577  0.00  0.00    -0.202 F 
ATOM     22  F   UNL     1      -0.065 -17.348  -7.224  0.00  0.00    -0.202 F 
ATOM     23  C   UNL     1      -1.892 -16.641  -9.242  0.00  0.00    +0.047 C 
ENDBRANCH  11  15
BRANCH   1  25
ATOM     24  N   UNL     1      -1.590  -8.174  -2.394  0.00  0.00    -0.315 N 
ATOM     25  C   UNL     1      -0.946  -8.678  -3.465  0.00  0.00    +0.218 C 
ATOM     26  O   UNL     1      -0.462  -7.930  -4.288  0.00  0.00    -0.275 OA
ATOM     27  H   UNL     1      -1.977  -8.772  -1.736  0.00  0.00    +0.149 HD
BRANCH  24  28
ATOM     28  C   UNL     1      -1.706  -6.724  -2.223  0.00  0.00    +0.109 C 
BRANCH  28  29
ATOM     29  C   UNL     1      -2.477  -6.421  -0.937  0.00  0.00    +0.054 C 
BRANCH  29  33
ATOM     30  C   UNL     1      -2.814  -2.190  -0.440  0.00  0.00    +0.121 A 
ATOM     31  C   UNL     1      -3.791  -2.888  -1.136  0.00  0.00    +0.046 A 
ATOM     32  C   UNL     1      -3.679  -4.256  -1.295  0.00  0.00    +0.007 A 
ATOM     33  C   UNL     1      -2.596  -4.929  -0.762  0.00  0.00    -0.046 A 
ATOM     34  C   UNL     1      -1.622  -4.236  -0.067  0.00  0.00    +0.007 A 
ATOM     35  C   UNL     1      -1.726  -2.867   0.090  0.00  0.00    +0.046 A 
BRANCH  30  36
ATOM     36  O   UNL     1      -2.922  -0.845  -0.281  0.00  0.00    -0.492 OA
BRANCH  36  38
ATOM     37  C   UNL     1      -4.017   1.290  -0.575  0.00  0.00    +0.048 C 
ATOM     38  C   UNL     1      -4.069  -0.214  -0.853  0.00  0.00    +0.225 C 
ENDBRANCH  36  38
ENDBRANCH  30  36
ENDBRANCH  29  33
ENDBRANCH  28  29
ENDBRANCH  24  28
ENDBRANCH   1  25
TORSDOF 7
