REMARK  Name = ZINC41012259
REMARK  8 active torsions:
REMARK  status: ('A' for Active; 'I' for Inactive)
REMARK    1  A    between atoms: C_1  and  C_2
REMARK    2  A    between atoms: C_4  and  C_11
REMARK    3  A    between atoms: C_7  and  N_8
REMARK    4  A    between atoms: N_13  and  C_14
REMARK    5  A    between atoms: C_15  and  C_29
REMARK    6  A    between atoms: C_16  and  C_19
REMARK    7  A    between atoms: C_29  and  O_31
REMARK    8  A    between atoms: O_31  and  C_32
REMARK                            x       y       z     vdW  Elec       q    Type
REMARK                         _______ _______ _______ _____ _____    ______ ____
ROOT
ATOM      1  C   UNL     1      -0.026  -4.832  -3.709  0.00  0.00    +0.087 A 
ATOM      2  C   UNL     1       0.198  -6.182  -3.932  0.00  0.00    +0.095 A 
ATOM      3  C   UNL     1       0.020  -6.653  -5.294  0.00  0.00    +0.005 A 
ATOM      4  C   UNL     1      -0.348  -5.706  -6.195  0.00  0.00    +0.056 A 
ATOM      5  S   UNL     1      -0.455  -4.226  -5.213  0.00  0.00    -0.080 S 
ENDROOT
BRANCH   3   6
ATOM      6  C   UNL     1       0.227  -8.070  -5.675  0.00  0.00    -0.016 A 
ATOM      7  C   UNL     1       1.391  -8.738  -5.295  0.00  0.00    +0.009 A 
ATOM      8  C   UNL     1       1.571 -10.053  -5.658  0.00  0.00    +0.004 A 
ATOM      9  C   UNL     1       0.605 -10.725  -6.398  0.00  0.00    -0.044 A 
ATOM     10  C   UNL     1      -0.550 -10.072  -6.773  0.00  0.00    -0.044 A 
ATOM     11  C   UNL     1      -0.741  -8.747  -6.410  0.00  0.00    +0.012 A 
ATOM     12  C   UNL     1      -1.643 -10.746  -7.561  0.00  0.00    +0.035 C 
ATOM     13  C   UNL     1      -1.119 -12.014  -8.231  0.00  0.00    +0.005 C 
ATOM     14  C   UNL     1      -0.414 -12.867  -7.169  0.00  0.00    +0.005 C 
ATOM     15  C   UNL     1       0.878 -12.161  -6.764  0.00  0.00    +0.035 C 
ENDBRANCH   3   6
BRANCH   1  18
ATOM     16  C   UNL     1      -0.187  -2.820  -2.475  0.00  0.00    +0.249 C 
ATOM     17  O   UNL     1      -0.512  -2.234  -3.490  0.00  0.00    -0.270 OA
ATOM     18  N   UNL     1       0.075  -4.141  -2.514  0.00  0.00    -0.275 N 
ATOM     19  H   UNL     1       0.334  -4.608  -1.704  0.00  0.00    +0.156 HD
BRANCH  16  23
ATOM     20  C   UNL     1      -0.538   1.447   0.089  0.00  0.00    +0.046 C 
ATOM     21  C   UNL     1      -0.247  -0.031   0.040  0.00  0.00    -0.020 A 
ATOM     22  C   UNL     1      -0.349  -0.713  -1.155  0.00  0.00    +0.018 A 
ATOM     23  C   UNL     1      -0.079  -2.082  -1.199  0.00  0.00    +0.037 A 
ATOM     24  C   UNL     1       0.293  -2.751  -0.032  0.00  0.00    +0.015 A 
ATOM     25  C   UNL     1       0.392  -2.057   1.156  0.00  0.00    +0.034 A 
ATOM     26  C   UNL     1       0.127  -0.699   1.192  0.00  0.00    +0.129 A 
BRANCH  26  27
ATOM     27  N   UNL     1       0.240   0.041   2.469  0.00  0.00    +0.057 N 
ATOM     28  O   UNL     1       0.674   1.169   2.477  0.00  0.00    -0.126 OA
ATOM     29  O   UNL     1      -0.101  -0.484   3.503  0.00  0.00    -0.126 OA
ENDBRANCH  26  27
ENDBRANCH  16  23
ENDBRANCH   1  18
BRANCH   2  30
ATOM     30  C   UNL     1       0.594  -7.084  -2.851  0.00  0.00    +0.342 C 
ATOM     31  O   UNL     1      -0.255  -7.662  -2.199  0.00  0.00    -0.245 OA
BRANCH  30  32
ATOM     32  O   UNL     1       1.901  -7.276  -2.578  0.00  0.00    -0.464 OA
ATOM     33  C   UNL     1       2.216  -8.171  -1.509  0.00  0.00    +0.280 C 
ENDBRANCH  30  32
ENDBRANCH   2  30
TORSDOF 6
