REMARK  Name = ZINC22398422
REMARK  15 active torsions:
REMARK  status: ('A' for Active; 'I' for Inactive)
REMARK    1  A    between atoms: C_1  and  C_2
REMARK    2  A    between atoms: C_2  and  C_3
REMARK    3  A    between atoms: C_2  and  C_4
REMARK    4  A    between atoms: C_4  and  C_5
REMARK    5  A    between atoms: C_5  and  C_7
REMARK    6  A    between atoms: C_5  and  N_15
REMARK    7  A    between atoms: C_10  and  O_13
REMARK    8  A    between atoms: O_13  and  C_14
REMARK    9  A    between atoms: C_16  and  C_18
REMARK   10  A    between atoms: C_18  and  N_19
REMARK   11  A    between atoms: N_19  and  C_20
REMARK   12  A    between atoms: N_19  and  S_27
REMARK   13  A    between atoms: S_27  and  C_30
REMARK   14  A    between atoms: C_33  and  S_36
REMARK   15  A    between atoms: S_36  and  C_37
REMARK                            x       y       z     vdW  Elec       q    Type
REMARK                         _______ _______ _______ _____ _____    ______ ____
ROOT
ATOM      1  N   UNL     1       0.777   2.759  -0.588  0.00  0.00    -0.194 N 
ENDROOT
BRANCH   1   2
ATOM      2  C   UNL     1      -0.192   2.285  -1.476  0.00  0.00    +0.055 A 
ATOM      3  C   UNL     1      -1.359   3.010  -1.685  0.00  0.00    +0.025 A 
ATOM      4  C   UNL     1      -2.315   2.540  -2.563  0.00  0.00    +0.005 A 
ATOM      5  C   UNL     1      -2.113   1.349  -3.236  0.00  0.00    +0.038 A 
ATOM      6  C   UNL     1      -0.951   0.623  -3.031  0.00  0.00    +0.125 A 
ATOM      7  C   UNL     1       0.012   1.092  -2.156  0.00  0.00    +0.063 A 
ATOM      8  F   UNL     1      -0.757  -0.540  -3.689  0.00  0.00    -0.205 F 
ENDBRANCH   1   2
BRANCH   1   9
ATOM      9  S   UNL     1       1.497   4.226  -0.854  0.00  0.00    +0.075 S 
ATOM     10  O   UNL     1       0.551   5.021  -1.556  0.00  0.00    -0.150 OA
ATOM     11  O   UNL     1       2.062   4.632   0.385  0.00  0.00    -0.150 OA
BRANCH   9  12
ATOM     12  C   UNL     1       2.843   3.954  -1.957  0.00  0.00    +0.109 A 
ATOM     13  C   UNL     1       4.074   3.563  -1.461  0.00  0.00    +0.030 A 
ATOM     14  C   UNL     1       5.130   3.343  -2.323  0.00  0.00    +0.016 A 
ATOM     15  C   UNL     1       4.958   3.525  -3.690  0.00  0.00    +0.008 A 
ATOM     16  C   UNL     1       3.722   3.923  -4.184  0.00  0.00    +0.016 A 
ATOM     17  C   UNL     1       2.669   4.136  -3.317  0.00  0.00    +0.030 A 
BRANCH  15  18
ATOM     18  S   UNL     1       6.305   3.252  -4.793  0.00  0.00    -0.129 S 
ATOM     19  C   UNL     1       7.670   2.760  -3.705  0.00  0.00    +0.090 C 
ENDBRANCH  15  18
ENDBRANCH   9  12
ENDBRANCH   1   9
BRANCH   1  20
ATOM     20  C   UNL     1       1.156   1.958   0.579  0.00  0.00    +0.227 C 
BRANCH  20  22
ATOM     21  N   UNL     1       0.419   1.692   2.925  0.00  0.00    -0.307 N 
ATOM     22  C   UNL     1       0.205   2.242   1.713  0.00  0.00    +0.233 C 
ATOM     23  O   UNL     1      -0.752   2.966   1.536  0.00  0.00    -0.274 OA
ATOM     24  H   UNL     1       1.329   1.103   3.109  0.00  0.00    +0.149 HD
BRANCH  21  25
ATOM     25  C   UNL     1      -0.562   1.878   3.997  0.00  0.00    +0.103 C 
BRANCH  25  26
ATOM     26  C   UNL     1      -0.310   3.194   4.686  0.00  0.00    -0.027 A 
ATOM     27  C   UNL     1       0.986   3.604   4.937  0.00  0.00    +0.009 A 
ATOM     28  C   UNL     1       1.220   4.813   5.564  0.00  0.00    +0.046 A 
ATOM     29  C   UNL     1       0.152   5.611   5.950  0.00  0.00    +0.120 A 
ATOM     30  C   UNL     1      -1.147   5.194   5.702  0.00  0.00    +0.046 A 
ATOM     31  C   UNL     1      -1.376   3.987   5.070  0.00  0.00    +0.009 A 
BRANCH  29  32
ATOM     32  O   UNL     1       0.380   6.797   6.572  0.00  0.00    -0.495 OA
ATOM     33  C   UNL     1       1.743   7.162   6.796  0.00  0.00    +0.277 C 
ENDBRANCH  29  32
ENDBRANCH  25  26
BRANCH  25  34
ATOM     34  C   UNL     1      -0.433   0.739   5.010  0.00  0.00    +0.030 C 
BRANCH  34  36
ATOM     35  C   UNL     1       0.223  -0.927   3.267  0.00  0.00    +0.007 C 
ATOM     36  C   UNL     1      -0.811  -0.584   4.342  0.00  0.00    -0.015 C 
ATOM     37  C   UNL     1      -0.843  -1.696   5.392  0.00  0.00    +0.007 C 
ENDBRANCH  34  36
ENDBRANCH  25  34
ENDBRANCH  21  25
ENDBRANCH  20  22
ENDBRANCH   1  20
TORSDOF 11
