REMARK  Name = ZINC14474110
REMARK  2 active torsions:
REMARK  status: ('A' for Active; 'I' for Inactive)
REMARK    1  A    between atoms: C_4  and  O_25
REMARK    2  A    between atoms: C_5  and  C_7
REMARK                            x       y       z     vdW  Elec       q    Type
REMARK                         _______ _______ _______ _____ _____    ______ ____
ROOT
ATOM      1  C   UNL     1      -1.360   2.068   0.030  0.00  0.00    +0.108 C 
ATOM      2  C   UNL     1      -1.884   2.213  -1.383  0.00  0.00    +0.029 C 
ATOM      3  C   UNL     1      -2.203   0.935  -2.167  0.00  0.00    +0.033 C 
ATOM      4  C   UNL     1      -3.343   1.432  -3.083  0.00  0.00    -0.030 C 
ATOM      5  C   UNL     1      -3.955   2.477  -2.535  0.00  0.00    -0.023 C 
ATOM      6  C   UNL     1      -3.343   2.740  -1.210  0.00  0.00    +0.049 C 
ATOM      7  C   UNL     1      -3.238   4.106  -0.652  0.00  0.00    -0.018 A 
ATOM      8  C   UNL     1      -4.150   5.091  -0.969  0.00  0.00    +0.007 A 
ATOM      9  C   UNL     1      -4.036   6.355  -0.423  0.00  0.00    +0.022 A 
ATOM     10  C   UNL     1      -2.999   6.632   0.452  0.00  0.00    +0.061 A 
ATOM     11  C   UNL     1      -2.080   5.654   0.769  0.00  0.00    +0.080 A 
ATOM     12  C   UNL     1      -2.178   4.375   0.218  0.00  0.00    +0.051 A 
ATOM     13  N   UNL     1      -1.197   3.426   0.573  0.00  0.00    -0.335 N 
ATOM     14 CL   UNL     1      -0.785   6.019   1.867  0.00  0.00    -0.080 Cl
ATOM     15 CL   UNL     1      -2.855   8.215   1.150  0.00  0.00    -0.082 Cl
ATOM     16  H   UNL     1      -1.044   3.401   1.570  0.00  0.00    +0.147 HD
ENDROOT
BRANCH   1  21
ATOM     17  C   UNL     1       1.277  -0.606   0.421  0.00  0.00    +0.001 A 
ATOM     18  C   UNL     1       2.413   0.058  -0.003  0.00  0.00    +0.004 A 
ATOM     19  C   UNL     1       2.332   1.372  -0.419  0.00  0.00    +0.046 A 
ATOM     20  C   UNL     1       1.108   2.026  -0.411  0.00  0.00    +0.122 A 
ATOM     21  C   UNL     1      -0.030   1.358   0.015  0.00  0.00    +0.014 A 
ATOM     22  C   UNL     1       0.057   0.043   0.430  0.00  0.00    +0.009 A 
BRANCH  20  23
ATOM     23  O   UNL     1       1.025   3.320  -0.820  0.00  0.00    -0.506 OA
ATOM     24  H   UNL     1       1.229   3.965  -0.129  0.00  0.00    +0.292 HD
ENDBRANCH  20  23
ENDBRANCH   1  21
TORSDOF 2
