REMARK  Name = ZINC09079823
REMARK  10 active torsions:
REMARK  status: ('A' for Active; 'I' for Inactive)
REMARK    1  A    between atoms: C_1  and  N_2
REMARK    2  A    between atoms: N_2  and  C_3
REMARK    3  A    between atoms: N_2  and  C_4
REMARK    4  A    between atoms: C_7  and  C_10
REMARK    5  A    between atoms: C_10  and  C_12
REMARK    6  A    between atoms: C_10  and  S_28
REMARK    7  A    between atoms: C_12  and  N_13
REMARK    8  A    between atoms: N_13  and  S_14
REMARK    9  A    between atoms: S_14  and  C_17
REMARK   10  A    between atoms: S_28  and  C_31
REMARK                            x       y       z     vdW  Elec       q    Type
REMARK                         _______ _______ _______ _____ _____    ______ ____
ROOT
ATOM      1  C   UNL     1      -3.124   0.598   1.769  0.00  0.00    +0.181 C 
ENDROOT
BRANCH   1   5
ATOM      2  C   UNL     1       0.028  -1.599   3.640  0.00  0.00    +0.029 A 
ATOM      3  C   UNL     1      -1.260  -2.117   3.612  0.00  0.00    +0.023 A 
ATOM      4  C   UNL     1      -2.277  -1.405   3.007  0.00  0.00    +0.007 A 
ATOM      5  C   UNL     1      -2.013  -0.176   2.429  0.00  0.00    -0.022 A 
ATOM      6  C   UNL     1      -0.730   0.340   2.450  0.00  0.00    +0.007 A 
ATOM      7  C   UNL     1       0.290  -0.365   3.059  0.00  0.00    +0.023 A 
BRANCH   2   9
ATOM      8  C   UNL     1       0.760  -3.557   4.972  0.00  0.00    +0.129 C 
ATOM      9  N   UNL     1       1.058  -2.317   4.251  0.00  0.00    -0.336 N 
ATOM     10  C   UNL     1       2.438  -1.831   4.171  0.00  0.00    +0.129 C 
ENDBRANCH   2   9
ENDBRANCH   1   5
BRANCH   1  11
ATOM     11  S   UNL     1      -2.722   0.863   0.020  0.00  0.00    +0.005 S 
ATOM     12  O   UNL     1      -3.669   1.741  -0.572  0.00  0.00    -0.169 OA
ATOM     13  O   UNL     1      -2.393  -0.373  -0.599  0.00  0.00    -0.169 OA
BRANCH  11  14
ATOM     14  C   UNL     1      -1.213   1.773   0.036  0.00  0.00    +0.089 A 
ATOM     15  C   UNL     1      -0.003   1.105   0.029  0.00  0.00    +0.027 A 
ATOM     16  C   UNL     1       1.181   1.819   0.035  0.00  0.00    +0.002 A 
ATOM     17  C   UNL     1       1.155   3.201   0.054  0.00  0.00    +0.000 A 
ATOM     18  C   UNL     1      -0.056   3.869   0.066  0.00  0.00    +0.002 A 
ATOM     19  C   UNL     1      -1.239   3.155   0.060  0.00  0.00    +0.027 A 
ENDBRANCH  11  14
ENDBRANCH   1  11
BRANCH   1  20
ATOM     20  C   UNL     1      -3.286   1.951   2.466  0.00  0.00    +0.137 C 
BRANCH  20  21
ATOM     21  N   UNL     1      -4.367   2.704   1.824  0.00  0.00    -0.188 NA
ATOM     22  H   UNL     1      -4.702   2.428   0.957  0.00  0.00    +0.148 HD
BRANCH  21  23
ATOM     23  S   UNL     1      -5.016   4.027   2.580  0.00  0.00    +0.059 S 
ATOM     24  O   UNL     1      -6.008   4.548   1.707  0.00  0.00    -0.153 OA
ATOM     25  O   UNL     1      -5.307   3.630   3.914  0.00  0.00    -0.153 OA
BRANCH  23  26
ATOM     26  C   UNL     1      -3.747   5.244   2.683  0.00  0.00    +0.109 A 
ATOM     27  C   UNL     1      -3.588   6.162   1.659  0.00  0.00    +0.031 A 
ATOM     28  C   UNL     1      -2.595   7.120   1.733  0.00  0.00    +0.031 A 
ATOM     29  C   UNL     1      -1.756   7.160   2.835  0.00  0.00    +0.087 A 
ATOM     30  C   UNL     1      -1.915   6.235   3.867  0.00  0.00    +0.159 A 
ATOM     31  C   UNL     1      -2.917   5.281   3.787  0.00  0.00    +0.077 A 
ATOM     32  O   UNL     1      -0.971   6.508   4.801  0.00  0.00    -0.408 OA
ATOM     33  C   UNL     1      -0.237   7.556   4.394  0.00  0.00    +0.419 A 
ATOM     34  O   UNL     1       0.689   8.046   5.009  0.00  0.00    -0.223 OA
ATOM     35  N   UNL     1      -0.689   7.981   3.197  0.00  0.00    -0.288 N 
ATOM     36  H   UNL     1      -0.335   8.723   2.681  0.00  0.00    +0.172 HD
ENDBRANCH  23  26
ENDBRANCH  21  23
ENDBRANCH  20  21
ENDBRANCH   1  20
TORSDOF 8
