REMARK  Name = ZINC56770935
REMARK  8 active torsions:
REMARK  status: ('A' for Active; 'I' for Inactive)
REMARK    1  A    between atoms: C_1  and  C_2
REMARK    2  A    between atoms: C_7  and  N_8
REMARK    3  A    between atoms: C_9  and  C_11
REMARK    4  A    between atoms: N_20  and  C_21
REMARK    5  A    between atoms: C_21  and  C_23
REMARK    6  A    between atoms: C_21  and  C_24
REMARK    7  A    between atoms: C_24  and  C_25
REMARK    8  A    between atoms: C_28  and  O_31
REMARK                            x       y       z     vdW  Elec       q    Type
REMARK                         _______ _______ _______ _____ _____    ______ ____
ROOT
ATOM      1  C   UNL     1       0.045   0.035   4.882  0.00  0.00    +0.093 C 
ATOM      2  C   UNL     1       0.070  -0.969   6.037  0.00  0.00    +0.016 C 
ATOM      3  C   UNL     1       0.041  -0.216   7.369  0.00  0.00    +0.020 C 
ATOM      4  C   UNL     1       1.283   0.675   7.475  0.00  0.00    +0.109 C 
ATOM      5  N   UNL     1       1.344   1.544   6.292  0.00  0.00    -0.285 N 
ATOM      6  C   UNL     1       1.287   0.929   4.959  0.00  0.00    +0.122 C 
ATOM      7  C   UNL     1       1.450   2.881   6.427  0.00  0.00    +0.302 C 
ATOM      8  O   UNL     1       1.592   3.582   5.443  0.00  0.00    -0.253 OA
ATOM      9  N   UNL     1       1.399   3.441   7.652  0.00  0.00    -0.296 N 
ATOM     10  H   UNL     1       1.360   2.878   8.441  0.00  0.00    +0.151 HD
ENDROOT
BRANCH   1  12
ATOM     11  N   UNL     1       0.022  -0.025   2.409  0.00  0.00    -0.270 N 
ATOM     12  C   UNL     1       0.042  -0.708   3.571  0.00  0.00    +0.223 C 
ATOM     13  O   UNL     1       0.056  -1.921   3.561  0.00  0.00    -0.275 OA
ATOM     14  H   UNL     1       0.011   0.945   2.417  0.00  0.00    +0.156 HD
BRANCH  11  21
ATOM     15  C   UNL     1      -0.020   1.505   0.010  0.00  0.00    +0.047 C 
ATOM     16  C   UNL     1      -0.001  -0.002   0.002  0.00  0.00    -0.010 A 
ATOM     17  C   UNL     1       0.002  -0.696  -1.195  0.00  0.00    +0.008 A 
ATOM     18  C   UNL     1       0.019  -2.084  -1.156  0.00  0.00    +0.020 A 
ATOM     19  C   UNL     1       0.033  -2.725   0.067  0.00  0.00    +0.113 A 
ATOM     20  N   UNL     1       0.029  -2.036   1.192  0.00  0.00    -0.240 NA
ATOM     21  C   UNL     1       0.019  -0.713   1.196  0.00  0.00    +0.128 A 
ENDBRANCH  11  21
ENDBRANCH   1  12
BRANCH   9  22
ATOM     22  C   UNL     1       1.402   4.899   7.791  0.00  0.00    +0.076 C 
ATOM     23  C   UNL     1      -0.027   5.428   7.650  0.00  0.00    +0.028 C 
BRANCH  22  24
ATOM     24  C   UNL     1       1.953   5.279   9.167  0.00  0.00    +0.057 C 
BRANCH  24  25
ATOM     25  C   UNL     1       3.400   4.867   9.260  0.00  0.00    -0.045 A 
ATOM     26  C   UNL     1       3.730   3.607   9.725  0.00  0.00    +0.007 A 
ATOM     27  C   UNL     1       5.055   3.227   9.812  0.00  0.00    +0.045 A 
ATOM     28  C   UNL     1       6.055   4.109   9.431  0.00  0.00    +0.117 A 
ATOM     29  C   UNL     1       5.721   5.372   8.964  0.00  0.00    +0.045 A 
ATOM     30  C   UNL     1       4.394   5.746   8.874  0.00  0.00    +0.007 A 
BRANCH  28  31
ATOM     31  O   UNL     1       7.359   3.738   9.515  0.00  0.00    -0.507 OA
ATOM     32  H   UNL     1       7.701   3.316   8.715  0.00  0.00    +0.292 HD
ENDBRANCH  28  31
ENDBRANCH  24  25
ENDBRANCH  22  24
ENDBRANCH   9  22
TORSDOF 6
