REMARK  Name = ZINC12034429
REMARK  10 active torsions:
REMARK  status: ('A' for Active; 'I' for Inactive)
REMARK    1  A    between atoms: C_1  and  C_2
REMARK    2  A    between atoms: C_5  and  C_11
REMARK    3  A    between atoms: C_11  and  C_12
REMARK    4  A    between atoms: N_14  and  C_15
REMARK    5  A    between atoms: C_15  and  C_16
REMARK    6  A    between atoms: C_21  and  C_27
REMARK    7  A    between atoms: C_29  and  O_35
REMARK    8  A    between atoms: C_32  and  O_33
REMARK    9  A    between atoms: O_33  and  C_34
REMARK   10  A    between atoms: O_35  and  C_36
REMARK                            x       y       z     vdW  Elec       q    Type
REMARK                         _______ _______ _______ _____ _____    ______ ____
ROOT
ATOM      1  C   UNL     1       0.002  -0.004   0.002  0.00  0.00    +0.195 C 
ATOM      2  C   UNL     1      -0.019   1.543   0.011  0.00  0.00    +0.085 C 
ATOM      3  C   UNL     1       1.461   1.876  -0.002  0.00  0.00    -0.000 A 
ATOM      4  C   UNL     1       2.146   3.036   0.275  0.00  0.00    +0.016 A 
ATOM      5  C   UNL     1       3.538   3.058   0.191  0.00  0.00    -0.012 A 
ATOM      6  C   UNL     1       4.223   1.899  -0.175  0.00  0.00    +0.032 A 
ATOM      7  C   UNL     1       3.528   0.743  -0.455  0.00  0.00    +0.083 A 
ATOM      8  C   UNL     1       2.135   0.719  -0.374  0.00  0.00    +0.143 A 
ATOM      9  O   UNL     1       1.267  -0.302  -0.613  0.00  0.00    -0.485 OA
ATOM     10 CL   UNL     1       4.390  -0.694  -0.909  0.00  0.00    -0.080 Cl
ENDROOT
BRANCH   5  11
ATOM     11  C   UNL     1       4.285   4.304   0.488  0.00  0.00    +0.027 A 
ATOM     12  C   UNL     1       3.912   5.503  -0.115  0.00  0.00    +0.057 A 
ATOM     13  C   UNL     1       4.612   6.664   0.167  0.00  0.00    +0.121 A 
ATOM     14  C   UNL     1       5.685   6.634   1.047  0.00  0.00    +0.049 A 
ATOM     15  C   UNL     1       6.059   5.447   1.648  0.00  0.00    +0.050 A 
ATOM     16  C   UNL     1       5.362   4.281   1.378  0.00  0.00    +0.128 A 
BRANCH  16  17
ATOM     17  O   UNL     1       5.729   3.115   1.973  0.00  0.00    -0.494 OA
ATOM     18  C   UNL     1       6.839   3.167   2.872  0.00  0.00    +0.277 C 
ENDBRANCH  16  17
BRANCH  13  19
ATOM     19  O   UNL     1       4.249   7.835  -0.421  0.00  0.00    -0.495 OA
ATOM     20  C   UNL     1       5.015   8.994  -0.086  0.00  0.00    +0.277 C 
ENDBRANCH  13  19
ENDBRANCH   5  11
BRANCH   1  21
ATOM     21  C   UNL     1      -1.152  -0.557  -0.836  0.00  0.00    +0.149 C 
BRANCH  21  24
ATOM     22  C   UNL     1      -2.116  -2.726  -1.388  0.00  0.00    +0.215 C 
ATOM     23  O   UNL     1      -2.939  -2.154  -2.070  0.00  0.00    -0.276 OA
ATOM     24  N   UNL     1      -1.178  -2.018  -0.729  0.00  0.00    -0.312 N 
ATOM     25  H   UNL     1      -0.519  -2.476  -0.183  0.00  0.00    +0.149 HD
BRANCH  22  26
ATOM     26  C   UNL     1      -2.142  -4.229  -1.277  0.00  0.00    +0.118 C 
BRANCH  26  30
ATOM     27  C   UNL     1      -5.845  -6.261  -2.444  0.00  0.00    +0.028 C 
ATOM     28  C   UNL     1      -4.486  -6.843  -2.840  0.00  0.00    +0.071 C 
ATOM     29  C   UNL     1      -3.402  -6.296  -1.906  0.00  0.00    +0.044 C 
ATOM     30  C   UNL     1      -3.297  -4.782  -2.115  0.00  0.00    +0.082 C 
ATOM     31  N   UNL     1      -3.047  -4.509  -3.532  0.00  0.00    -0.323 N 
ATOM     32  C   UNL     1      -3.490  -5.337  -4.490  0.00  0.00    +0.131 C 
ATOM     33  S   UNL     1      -3.171  -4.945  -6.126  0.00  0.00    -0.019 S 
ATOM     34  N   UNL     1      -4.172  -6.459  -4.217  0.00  0.00    -0.324 N 
ATOM     35  H   UNL     1      -2.551  -3.714  -3.783  0.00  0.00    +0.148 HD
ATOM     36  H   UNL     1      -4.463  -7.028  -4.947  0.00  0.00    +0.148 HD
ENDBRANCH  26  30
ENDBRANCH  22  26
ENDBRANCH  21  24
ENDBRANCH   1  21
TORSDOF 7
