REMARK  Name = ZINC52637652
REMARK  7 active torsions:
REMARK  status: ('A' for Active; 'I' for Inactive)
REMARK    1  A    between atoms: C_1  and  C_2
REMARK    2  A    between atoms: C_2  and  C_3
REMARK    3  A    between atoms: C_2  and  C_4
REMARK    4  A    between atoms: C_4  and  N_5
REMARK    5  A    between atoms: C_11  and  C_14
REMARK    6  A    between atoms: C_15  and  C_28
REMARK    7  A    between atoms: C_17  and  C_20
REMARK                            x       y       z     vdW  Elec       q    Type
REMARK                         _______ _______ _______ _____ _____    ______ ____
ROOT
ATOM      1  C   UNL     1      -1.305  -3.948   4.640  0.00  0.00    +0.113 A 
ATOM      2  C   UNL     1      -1.928  -2.950   5.371  0.00  0.00    +0.076 A 
ATOM      3  N   UNL     1      -1.460  -3.063   6.660  0.00  0.00    -0.337 N 
ATOM      4  C   UNL     1      -0.581  -4.108   6.680  0.00  0.00    +0.145 A 
ATOM      5  N   UNL     1      -0.502  -4.628   5.476  0.00  0.00    -0.225 NA
ATOM      6  H   UNL     1      -1.708  -2.506   7.414  0.00  0.00    +0.167 HD
ENDROOT
BRANCH   1  13
ATOM      7  N   UNL     1       0.416  -4.556   0.096  0.00  0.00    -0.299 N 
ATOM      8  C   UNL     1      -0.263  -4.858  -1.169  0.00  0.00    +0.211 C 
ATOM      9  N   UNL     1      -1.691  -4.954  -0.842  0.00  0.00    -0.326 N 
ATOM     10  C   UNL     1      -1.817  -4.720   0.533  0.00  0.00    +0.067 A 
ATOM     11  C   UNL     1      -0.560  -4.489   1.091  0.00  0.00    +0.122 A 
ATOM     12  N   UNL     1      -0.440  -4.248   2.390  0.00  0.00    -0.340 N 
ATOM     13  C   UNL     1      -1.495  -4.221   3.197  0.00  0.00    +0.068 A 
ATOM     14  C   UNL     1      -2.777  -4.448   2.703  0.00  0.00    +0.030 A 
ATOM     15  C   UNL     1      -2.943  -4.695   1.350  0.00  0.00    +0.028 A 
ATOM     16  H   UNL     1      -2.413  -5.144  -1.463  0.00  0.00    +0.148 HD
ATOM     17  H   UNL     1       0.442  -4.087   2.761  0.00  0.00    +0.167 HD
BRANCH   7  18
ATOM     18  C   UNL     1       1.857  -4.367   0.282  0.00  0.00    +0.111 C 
BRANCH  18  20
ATOM     19  C   UNL     1       4.049  -5.541   0.522  0.00  0.00    +0.009 C 
ATOM     20  C   UNL     1       2.532  -5.729   0.453  0.00  0.00    +0.000 C 
ATOM     21  C   UNL     1       2.040  -6.384   1.745  0.00  0.00    +0.009 C 
ENDBRANCH  18  20
ENDBRANCH   7  18
ENDBRANCH   1  13
BRANCH   4  22
ATOM     22  C   UNL     1       0.160  -4.582   7.867  0.00  0.00    +0.087 A 
ATOM     23  C   UNL     1      -0.016  -3.952   9.103  0.00  0.00    +0.137 A 
ATOM     24  C   UNL     1       0.680  -4.402  10.209  0.00  0.00    +0.039 A 
ATOM     25  C   UNL     1       1.549  -5.472  10.095  0.00  0.00    +0.006 A 
ATOM     26  C   UNL     1       1.729  -6.100   8.876  0.00  0.00    +0.039 A 
ATOM     27  C   UNL     1       1.036  -5.666   7.762  0.00  0.00    +0.137 A 
ATOM     28  F   UNL     1       1.209  -6.284   6.573  0.00  0.00    -0.205 F 
ATOM     29  F   UNL     1      -0.865  -2.907   9.215  0.00  0.00    -0.205 F 
ENDBRANCH   4  22
BRANCH   2  30
ATOM     30  C   UNL     1      -2.901  -1.961   4.867  0.00  0.00    +0.000 A 
ATOM     31  C   UNL     1      -2.645  -1.266   3.683  0.00  0.00    +0.010 A 
ATOM     32  C   UNL     1      -3.558  -0.343   3.218  0.00  0.00    +0.001 A 
ATOM     33  C   UNL     1      -4.726  -0.105   3.922  0.00  0.00    +0.000 A 
ATOM     34  C   UNL     1      -4.986  -0.790   5.096  0.00  0.00    +0.001 A 
ATOM     35  C   UNL     1      -4.084  -1.720   5.569  0.00  0.00    +0.010 A 
ENDBRANCH   2  30
TORSDOF 5
