REMARK  Name = ZINC15946347
REMARK  7 active torsions:
REMARK  status: ('A' for Active; 'I' for Inactive)
REMARK    1  A    between atoms: C_1  and  C_2
REMARK    2  A    between atoms: C_2  and  C_3
REMARK    3  A    between atoms: C_2  and  N_4
REMARK    4  A    between atoms: C_12  and  O_26
REMARK    5  A    between atoms: C_14  and  C_17
REMARK    6  A    between atoms: C_20  and  O_24
REMARK    7  A    between atoms: O_24  and  C_25
REMARK                            x       y       z     vdW  Elec       q    Type
REMARK                         _______ _______ _______ _____ _____    ______ ____
ROOT
ATOM      1  N   UNL     1       0.637  -0.213  -1.306  0.00  0.00    +0.384 N 
ATOM      2  C   UNL     1       0.579  -1.639  -1.655  0.00  0.00    -0.073 C 
ATOM      3  C   UNL     1       0.945  -1.837  -3.130  0.00  0.00    +0.018 C 
ATOM      4  C   UNL     1       2.272  -1.135  -3.382  0.00  0.00    -0.027 A 
ATOM      5  C   UNL     1       2.728  -0.212  -2.500  0.00  0.00    -0.021 A 
ATOM      6  S   UNL     1       4.271   0.332  -3.176  0.00  0.00    -0.080 S 
ATOM      7  C   UNL     1       4.313  -0.600  -4.548  0.00  0.00    +0.080 A 
ATOM      8  C   UNL     1       3.139  -1.363  -4.520  0.00  0.00    +0.067 A 
ATOM      9  C   UNL     1       2.915  -2.316  -5.638  0.00  0.00    +0.220 C 
ATOM     10  N   UNL     1       3.681  -2.208  -6.689  0.00  0.00    -0.223 NA
ATOM     11  C   UNL     1       4.697  -1.178  -6.869  0.00  0.00    +0.224 C 
ATOM     12  N   UNL     1       5.223  -0.702  -5.576  0.00  0.00    -0.313 N 
ATOM     13  C   UNL     1       2.044   0.224  -1.244  0.00  0.00    -0.035 C 
ATOM     14  H   UNL     1       6.158  -0.474  -5.456  0.00  0.00    +0.149 HD
ATOM     15  H   UNL     1       0.149   0.324  -2.006  0.00  0.00    -0.081 HD
ENDROOT
BRANCH  11  16
ATOM     16  C   UNL     1       4.093  -0.014  -7.611  0.00  0.00    -0.004 A 
ATOM     17  C   UNL     1       4.569   1.266  -7.393  0.00  0.00    +0.011 A 
ATOM     18  C   UNL     1       4.016   2.334  -8.071  0.00  0.00    +0.047 A 
ATOM     19  C   UNL     1       2.983   2.123  -8.973  0.00  0.00    +0.134 A 
ATOM     20  C   UNL     1       2.508   0.838  -9.191  0.00  0.00    +0.060 A 
ATOM     21  C   UNL     1       3.067  -0.229  -8.513  0.00  0.00    +0.026 A 
ATOM     22 BR   UNL     1       1.099   0.545 -10.418  0.00  0.00    -0.047 Br
BRANCH  19  23
ATOM     23  O   UNL     1       2.438   3.174  -9.641  0.00  0.00    -0.494 OA
ATOM     24  C   UNL     1       2.977   4.468  -9.367  0.00  0.00    +0.277 C 
ENDBRANCH  19  23
ENDBRANCH  11  16
BRANCH   1  26
ATOM     25  C   UNL     1       0.150   1.462   0.412  0.00  0.00    -0.014 C 
ATOM     26  C   UNL     1       0.002  -0.004   0.002  0.00  0.00    -0.074 C 
ATOM     27  C   UNL     1      -1.483  -0.360  -0.089  0.00  0.00    -0.014 C 
ENDBRANCH   1  26
BRANCH   9  28
ATOM     28  O   UNL     1       1.951  -3.262  -5.569  0.00  0.00    -0.492 OA
ATOM     29  H   UNL     1       1.896  -3.826  -6.353  0.00  0.00    +0.294 HD
ENDBRANCH   9  28
TORSDOF 4
