REMARK  Name = ZINC38546580
REMARK  7 active torsions:
REMARK  status: ('A' for Active; 'I' for Inactive)
REMARK    1  A    between atoms: C_1  and  C_2
REMARK    2  A    between atoms: C_2  and  N_3
REMARK    3  A    between atoms: N_6  and  C_9
REMARK    4  A    between atoms: C_9  and  C_11
REMARK    5  A    between atoms: C_9  and  C_18
REMARK    6  A    between atoms: C_22  and  N_23
REMARK    7  A    between atoms: C_24  and  C_26
REMARK                            x       y       z     vdW  Elec       q    Type
REMARK                         _______ _______ _______ _____ _____    ______ ____
ROOT
ATOM      1  C   UNL     1      -4.886  -4.092  -1.272  0.00  0.00    +0.006 A 
ATOM      2  C   UNL     1      -5.566  -4.711  -2.321  0.00  0.00    -0.030 A 
ATOM      3  C   UNL     1      -5.490  -6.068  -2.380  0.00  0.00    -0.005 A 
ATOM      4  S   UNL     1      -4.479  -6.499  -0.989  0.00  0.00    -0.078 S 
ATOM      5  C   UNL     1      -4.190  -4.845  -0.379  0.00  0.00    +0.078 A 
ATOM      6  C   UNL     1      -6.120  -6.973  -3.390  0.00  0.00    +0.043 C 
ATOM      7  C   UNL     1      -7.182  -6.173  -4.159  0.00  0.00    +0.005 C 
ATOM      8  C   UNL     1      -6.573  -4.835  -4.589  0.00  0.00    +0.005 C 
ATOM      9  C   UNL     1      -6.364  -3.939  -3.368  0.00  0.00    +0.036 C 
ENDROOT
BRANCH   5  10
ATOM     10  N   UNL     1      -3.445  -4.433   0.728  0.00  0.00    -0.273 N 
ATOM     11  C   UNL     1      -2.918  -5.349   1.564  0.00  0.00    +0.284 C 
ATOM     12  O   UNL     1      -3.092  -6.536   1.355  0.00  0.00    -0.266 OA
ATOM     13  H   UNL     1      -3.306  -3.488   0.894  0.00  0.00    +0.156 HD
BRANCH  11  14
ATOM     14  C   UNL     1      -2.136  -4.917   2.726  0.00  0.00    +0.189 A 
ATOM     15  C   UNL     1      -1.545  -5.735   3.646  0.00  0.00    +0.054 A 
ATOM     16  C   UNL     1      -0.905  -4.902   4.577  0.00  0.00    +0.042 A 
ATOM     17  C   UNL     1      -1.131  -3.627   4.189  0.00  0.00    +0.196 A 
ATOM     18  O   UNL     1      -1.868  -3.640   3.071  0.00  0.00    -0.458 OA
ENDBRANCH  11  14
ENDBRANCH   5  10
BRANCH   1  19
ATOM     19  C   UNL     1      -4.918  -2.592  -1.132  0.00  0.00    +0.120 C 
BRANCH  19  23
ATOM     20  N   UNL     1      -1.190  -0.608  -1.319  0.00  0.00    +0.381 N 
ATOM     21  C   UNL     1      -1.197  -2.074  -1.405  0.00  0.00    -0.063 C 
ATOM     22  C   UNL     1      -2.593  -2.555  -1.808  0.00  0.00    +0.067 C 
ATOM     23  N   UNL     1      -3.571  -2.102  -0.810  0.00  0.00    -0.295 NA
ATOM     24  C   UNL     1      -3.558  -0.636  -0.694  0.00  0.00    +0.067 C 
ATOM     25  C   UNL     1      -2.155  -0.171  -0.301  0.00  0.00    -0.063 C 
ATOM     26  H   UNL     1      -1.446  -0.217  -2.213  0.00  0.00    -0.082 HD
BRANCH  20  28
ATOM     27  C   UNL     1       1.138  -0.491  -2.070  0.00  0.00    -0.017 C 
ATOM     28  C   UNL     1       0.154  -0.146  -0.950  0.00  0.00    -0.082 C 
ENDBRANCH  20  28
ENDBRANCH  19  23
BRANCH  19  29
ATOM     29  C   UNL     1      -5.869  -2.211  -0.027  0.00  0.00    -0.026 A 
ATOM     30  C   UNL     1      -5.416  -2.130   1.277  0.00  0.00    +0.008 A 
ATOM     31  C   UNL     1      -6.287  -1.780   2.291  0.00  0.00    +0.038 A 
ATOM     32  C   UNL     1      -7.614  -1.510   2.001  0.00  0.00    +0.123 A 
ATOM     33  C   UNL     1      -8.066  -1.591   0.695  0.00  0.00    +0.038 A 
ATOM     34  C   UNL     1      -7.192  -1.937  -0.318  0.00  0.00    +0.008 A 
ATOM     35  F   UNL     1      -8.467  -1.169   2.992  0.00  0.00    -0.205 F 
ENDBRANCH  19  29
ENDBRANCH   1  19
TORSDOF 6
