REMARK  Name = ZINC20755828
REMARK  8 active torsions:
REMARK  status: ('A' for Active; 'I' for Inactive)
REMARK    1  A    between atoms: C_1  and  C_2
REMARK    2  A    between atoms: C_5  and  N_9
REMARK    3  A    between atoms: C_6  and  C_8
REMARK    4  A    between atoms: N_9  and  S_10
REMARK    5  A    between atoms: S_10  and  C_13
REMARK    6  A    between atoms: C_17  and  C_19
REMARK    7  A    between atoms: N_21  and  N_22
REMARK    8  A    between atoms: C_23  and  C_24
REMARK                            x       y       z     vdW  Elec       q    Type
REMARK                         _______ _______ _______ _____ _____    ______ ____
ROOT
ATOM      1  C   UNL     1      -0.019  -0.160   0.128  0.00  0.00    +0.109 A 
ATOM      2  C   UNL     1       1.160  -0.885   0.124  0.00  0.00    +0.029 A 
ATOM      3  C   UNL     1       2.379  -0.235   0.195  0.00  0.00    +0.003 A 
ATOM      4  C   UNL     1       2.427   1.142   0.271  0.00  0.00    +0.013 A 
ATOM      5  C   UNL     1       1.242   1.879   0.276  0.00  0.00    +0.040 A 
ATOM      6  C   UNL     1       0.015   1.217   0.204  0.00  0.00    +0.042 A 
ENDROOT
BRANCH   5   7
ATOM      7  C   UNL     1       1.286   3.354   0.357  0.00  0.00    +0.263 C 
ATOM      8  O   UNL     1       0.252   3.994   0.360  0.00  0.00    -0.268 OA
ATOM      9  N   UNL     1       2.472   3.990   0.426  0.00  0.00    -0.203 N 
ATOM     10  H   UNL     1       3.407   3.412   0.423  0.00  0.00    +0.178 HD
BRANCH   9  11
ATOM     11  N   UNL     1       2.513   5.389   0.503  0.00  0.00    -0.187 NA
ATOM     12  C   UNL     1       3.656   6.001   0.570  0.00  0.00    +0.142 C 
BRANCH  12  13
ATOM     13  C   UNL     1       3.699   7.473   0.650  0.00  0.00    +0.048 A 
ATOM     14  C   UNL     1       2.512   8.213   0.649  0.00  0.00    +0.133 A 
ATOM     15  C   UNL     1       2.561   9.591   0.730  0.00  0.00    +0.039 A 
ATOM     16  C   UNL     1       3.781  10.239   0.801  0.00  0.00    +0.004 A 
ATOM     17  C   UNL     1       4.960   9.515   0.797  0.00  0.00    +0.021 A 
ATOM     18  C   UNL     1       4.927   8.136   0.723  0.00  0.00    +0.052 A 
ATOM     19 CL   UNL     1       6.408   7.230   0.720  0.00  0.00    -0.083 Cl
ATOM     20  F   UNL     1       1.320   7.581   0.573  0.00  0.00    -0.205 F 
ENDBRANCH  12  13
ENDBRANCH   9  11
ENDBRANCH   5   7
BRANCH   1  21
ATOM     21  S   UNL     1      -1.566  -0.998   0.036  0.00  0.00    +0.072 S 
ATOM     22  O   UNL     1      -1.345  -2.314   0.524  0.00  0.00    -0.150 OA
ATOM     23  O   UNL     1      -2.534  -0.127   0.606  0.00  0.00    -0.150 OA
BRANCH  21  24
ATOM     24  N   UNL     1      -1.948  -1.145  -1.568  0.00  0.00    -0.216 N 
ATOM     25  H   UNL     1      -2.869  -0.687  -1.959  0.00  0.00    +0.174 HD
BRANCH  24  30
ATOM     26  C   UNL     1       1.485  -4.016  -5.051  0.00  0.00    +0.044 C 
ATOM     27  C   UNL     1       0.574  -3.252  -4.125  0.00  0.00    -0.050 A 
ATOM     28  C   UNL     1       0.407  -3.674  -2.819  0.00  0.00    +0.005 A 
ATOM     29  C   UNL     1      -0.429  -2.978  -1.968  0.00  0.00    +0.025 A 
ATOM     30  C   UNL     1      -1.102  -1.852  -2.426  0.00  0.00    +0.051 A 
ATOM     31  C   UNL     1      -0.936  -1.434  -3.740  0.00  0.00    -0.028 A 
ATOM     32  C   UNL     1      -0.095  -2.132  -4.584  0.00  0.00    +0.008 A 
ATOM     33  C   UNL     1      -1.669  -0.217  -4.243  0.00  0.00    +0.046 C 
ENDBRANCH  24  30
ENDBRANCH  21  24
ENDBRANCH   1  21
TORSDOF 6
