REMARK  Name = ZINC11395967
REMARK  11 active torsions:
REMARK  status: ('A' for Active; 'I' for Inactive)
REMARK    1  A    between atoms: C_1  and  C_2
REMARK    2  A    between atoms: C_2  and  O_3
REMARK    3  A    between atoms: O_3  and  C_4
REMARK    4  A    between atoms: C_4  and  C_6
REMARK    5  A    between atoms: C_7  and  C_21
REMARK    6  A    between atoms: C_12  and  C_14
REMARK    7  A    between atoms: C_21  and  S_22
REMARK    8  A    between atoms: S_22  and  C_23
REMARK    9  A    between atoms: N_27  and  C_28
REMARK   10  A    between atoms: C_31  and  C_35
REMARK   11  A    between atoms: C_33  and  C_34
REMARK                            x       y       z     vdW  Elec       q    Type
REMARK                         _______ _______ _______ _____ _____    ______ ____
ROOT
ATOM      1  C   UNL     1      -3.471   6.014  -5.639  0.00  0.00    +0.079 C 
ATOM      2  C   UNL     1      -2.941   6.569  -4.528  0.00  0.00    +0.034 C 
ATOM      3  N   UNL     1      -2.040   7.593  -4.612  0.00  0.00    -0.272 N 
ATOM      4  C   UNL     1      -1.623   8.121  -5.769  0.00  0.00    +0.304 C 
ATOM      5  O   UNL     1      -0.818   9.032  -5.743  0.00  0.00    -0.252 OA
ATOM      6  N   UNL     1      -2.066   7.677  -6.962  0.00  0.00    -0.288 N 
ATOM      7  C   UNL     1      -3.041   6.573  -6.980  0.00  0.00    +0.144 C 
ATOM      8  H   UNL     1      -1.684   7.957  -3.787  0.00  0.00    +0.156 HD
ATOM      9  H   UNL     1      -1.750   8.074  -7.788  0.00  0.00    +0.151 HD
ENDROOT
BRANCH   7  10
ATOM     10  C   UNL     1      -4.272   7.054  -7.704  0.00  0.00    -0.022 A 
ATOM     11  C   UNL     1      -4.739   8.338  -7.496  0.00  0.00    +0.007 A 
ATOM     12  C   UNL     1      -5.865   8.781  -8.164  0.00  0.00    +0.020 A 
ATOM     13  C   UNL     1      -6.532   7.935  -9.033  0.00  0.00    +0.041 A 
ATOM     14  C   UNL     1      -6.067   6.648  -9.236  0.00  0.00    +0.020 A 
ATOM     15  C   UNL     1      -4.938   6.208  -8.572  0.00  0.00    +0.007 A 
ATOM     16 CL   UNL     1      -7.950   8.489  -9.867  0.00  0.00    -0.084 Cl
ENDBRANCH   7  10
BRANCH   1  17
ATOM     17  C   UNL     1      -4.399   4.950  -5.554  0.00  0.00    +0.339 C 
ATOM     18  O   UNL     1      -4.845   4.617  -4.472  0.00  0.00    -0.245 OA
BRANCH  17  19
ATOM     19  O   UNL     1      -4.791   4.306  -6.672  0.00  0.00    -0.462 OA
BRANCH  19  21
ATOM     20  C   UNL     1      -6.053   2.635  -7.880  0.00  0.00    +0.048 C 
ATOM     21  C   UNL     1      -5.731   3.241  -6.512  0.00  0.00    +0.229 C 
ENDBRANCH  19  21
ENDBRANCH  17  19
ENDBRANCH   1  17
BRANCH   2  22
ATOM     22  C   UNL     1      -3.345   6.047  -3.173  0.00  0.00    +0.128 C 
BRANCH  22  23
ATOM     23  S   UNL     1      -4.605   7.133  -2.459  0.00  0.00    -0.080 S 
BRANCH  23  24
ATOM     24  C   UNL     1      -4.885   6.311  -0.926  0.00  0.00    +0.196 A 
ATOM     25  N   UNL     1      -4.290   5.218  -0.506  0.00  0.00    -0.122 NA
ATOM     26  N   UNL     1      -4.740   4.893   0.653  0.00  0.00    -0.137 NA
ATOM     27  C   UNL     1      -5.637   5.753   1.044  0.00  0.00    +0.230 A 
ATOM     28  N   UNL     1      -5.760   6.692   0.054  0.00  0.00    -0.277 N 
BRANCH  28  29
ATOM     29  C   UNL     1      -6.611   7.807   0.044  0.00  0.00    +0.053 A 
ATOM     30  C   UNL     1      -6.426   8.831   0.963  0.00  0.00    +0.027 A 
ATOM     31  C   UNL     1      -7.269   9.925   0.954  0.00  0.00    +0.005 A 
ATOM     32  C   UNL     1      -8.289  10.006   0.024  0.00  0.00    -0.050 A 
ATOM     33  C   UNL     1      -8.472   8.991  -0.896  0.00  0.00    +0.008 A 
ATOM     34  C   UNL     1      -7.635   7.891  -0.889  0.00  0.00    -0.026 A 
ATOM     35  C   UNL     1      -7.835   6.785  -1.892  0.00  0.00    +0.046 C 
ATOM     36  C   UNL     1      -9.203  11.204   0.013  0.00  0.00    +0.044 C 
ENDBRANCH  28  29
ENDBRANCH  23  24
ENDBRANCH  22  23
ENDBRANCH   2  22
TORSDOF 8
