REMARK  Name = ZINC63611425
REMARK  8 active torsions:
REMARK  status: ('A' for Active; 'I' for Inactive)
REMARK    1  A    between atoms: C_1  and  C_2
REMARK    2  A    between atoms: C_2  and  N_3
REMARK    3  A    between atoms: N_3  and  C_17
REMARK    4  A    between atoms: C_4  and  C_6
REMARK    5  A    between atoms: C_6  and  C_7
REMARK    6  A    between atoms: C_17  and  C_23
REMARK    7  A    between atoms: N_25  and  C_26
REMARK    8  A    between atoms: C_31  and  C_32
REMARK                            x       y       z     vdW  Elec       q    Type
REMARK                         _______ _______ _______ _____ _____    ______ ____
ROOT
ATOM      1  C   UNL     1       0.394  -0.478  -2.612  0.00  0.00    +0.114 C 
ATOM      2  C   UNL     1      -0.492  -1.714  -2.790  0.00  0.00    +0.035 C 
ATOM      3  C   UNL     1       0.297  -2.966  -2.406  0.00  0.00    +0.003 C 
ATOM      4  C   UNL     1       1.530  -3.089  -3.304  0.00  0.00    +0.000 C 
ATOM      5  C   UNL     1       2.415  -1.854  -3.126  0.00  0.00    +0.003 C 
ATOM      6  C   UNL     1       1.626  -0.601  -3.510  0.00  0.00    +0.035 C 
ENDROOT
BRANCH   1   7
ATOM      7  C   UNL     1      -0.384   0.756  -2.990  0.00  0.00    +0.241 C 
ATOM      8  O   UNL     1      -0.268   1.228  -4.102  0.00  0.00    -0.273 OA
ATOM      9  N   UNL     1      -1.208   1.335  -2.095  0.00  0.00    -0.283 N 
ATOM     10  H   UNL     1      -1.256   0.992  -1.188  0.00  0.00    +0.155 HD
BRANCH   9  11
ATOM     11  C   UNL     1      -1.992   2.430  -2.472  0.00  0.00    +0.036 A 
ATOM     12  C   UNL     1      -2.305   2.635  -3.809  0.00  0.00    +0.023 A 
ATOM     13  C   UNL     1      -3.080   3.717  -4.178  0.00  0.00    +0.002 A 
ATOM     14  C   UNL     1      -3.544   4.596  -3.217  0.00  0.00    +0.000 A 
ATOM     15  C   UNL     1      -3.235   4.395  -1.885  0.00  0.00    +0.005 A 
ATOM     16  C   UNL     1      -2.465   3.311  -1.508  0.00  0.00    -0.029 A 
ATOM     17  C   UNL     1      -2.135   3.089  -0.055  0.00  0.00    +0.045 C 
ENDBRANCH   9  11
ENDBRANCH   1   7
BRANCH   1  18
ATOM     18  N   UNL     1       0.817  -0.379  -1.213  0.00  0.00    -0.287 N 
ATOM     19  C   UNL     1       0.217  -1.135  -0.272  0.00  0.00    +0.219 C 
ATOM     20  O   UNL     1      -0.635  -1.936  -0.591  0.00  0.00    -0.275 OA
BRANCH  18  22
ATOM     21  C   UNL     1       3.218  -0.218  -0.778  0.00  0.00    +0.024 C 
ATOM     22  C   UNL     1       1.892   0.542  -0.837  0.00  0.00    +0.105 C 
ENDBRANCH  18  22
BRANCH  19  23
ATOM     23  C   UNL     1       0.606  -0.984   1.176  0.00  0.00    +0.124 C 
BRANCH  23  24
ATOM     24  C   UNL     1      -0.219  -1.951   2.029  0.00  0.00    +0.112 C 
ATOM     25  C   UNL     1       0.114  -1.768   3.493  0.00  0.00    +0.007 C 
ATOM     26  C   UNL     1       0.603  -2.955   3.917  0.00  0.00    -0.004 A 
ATOM     27  C   UNL     1       1.098  -3.419   5.219  0.00  0.00    +0.010 A 
ATOM     28  C   UNL     1       1.534  -4.693   5.339  0.00  0.00    +0.001 A 
ATOM     29  C   UNL     1       1.526  -5.580   4.254  0.00  0.00    +0.002 A 
ATOM     30  C   UNL     1       1.087  -5.228   3.027  0.00  0.00    +0.026 A 
ATOM     31  C   UNL     1       0.605  -3.911   2.787  0.00  0.00    +0.043 A 
ATOM     32  N   UNL     1       0.134  -3.337   1.705  0.00  0.00    -0.377 N 
ATOM     33  H   UNL     1       0.035  -3.759   0.837  0.00  0.00    +0.160 HD
ENDBRANCH  23  24
ENDBRANCH  19  23
ENDBRANCH   1  18
TORSDOF 6
