REMARK  Name = ZINC40982468
REMARK  14 active torsions:
REMARK  status: ('A' for Active; 'I' for Inactive)
REMARK    1  A    between atoms: C_1  and  C_2
REMARK    2  A    between atoms: C_2  and  C_3
REMARK    3  A    between atoms: C_3  and  S_4
REMARK    4  A    between atoms: S_4  and  C_5
REMARK    5  A    between atoms: C_10  and  C_20
REMARK    6  A    between atoms: C_23  and  O_28
REMARK    7  A    between atoms: C_24  and  O_26
REMARK    8  A    between atoms: O_26  and  C_27
REMARK    9  A    between atoms: O_28  and  C_29
REMARK   10  A    between atoms: C_29  and  C_30
REMARK   11  A    between atoms: N_32  and  C_33
REMARK   12  A    between atoms: N_32  and  C_35
REMARK   13  A    between atoms: C_33  and  C_34
REMARK   14  A    between atoms: C_35  and  C_36
REMARK                            x       y       z     vdW  Elec       q    Type
REMARK                         _______ _______ _______ _____ _____    ______ ____
ROOT
ATOM      1  C   UNL     1       1.641  -2.747   2.702  0.00  0.00    +0.210 A 
ATOM      2  N   UNL     1       2.143  -1.874   3.588  0.00  0.00    -0.187 NA
ATOM      3  C   UNL     1       2.725  -2.524   4.558  0.00  0.00    +0.219 A 
ATOM      4  N   UNL     1       2.611  -3.851   4.305  0.00  0.00    -0.220 N 
ATOM      5  N   UNL     1       1.903  -3.970   3.110  0.00  0.00    -0.141 NA
ATOM      6  C   UNL     1       3.157  -4.884   5.177  0.00  0.00    +0.176 C 
ATOM      7  C   UNL     1       3.536  -4.285   6.514  0.00  0.00    +0.041 C 
ATOM      8  C   UNL     1       3.632  -2.951   6.701  0.00  0.00    +0.020 C 
ATOM      9  N   UNL     1       3.372  -2.057   5.690  0.00  0.00    -0.287 N 
ATOM     10  C   UNL     1       4.037  -2.383   8.041  0.00  0.00    +0.052 C 
ATOM     11  C   UNL     1       3.545  -3.305   9.159  0.00  0.00    +0.014 C 
ATOM     12  C   UNL     1       4.155  -4.694   8.942  0.00  0.00    +0.080 C 
ATOM     13  C   UNL     1       3.785  -5.181   7.569  0.00  0.00    +0.163 C 
ATOM     14  O   UNL     1       3.700  -6.376   7.366  0.00  0.00    -0.292 OA
ATOM     15  H   UNL     1       3.634  -1.126   5.767  0.00  0.00    +0.155 HD
ENDROOT
BRANCH   6  16
ATOM     16  C   UNL     1       4.381  -5.484   4.536  0.00  0.00    -0.015 A 
ATOM     17  C   UNL     1       5.471  -4.685   4.247  0.00  0.00    +0.010 A 
ATOM     18  C   UNL     1       6.596  -5.231   3.658  0.00  0.00    +0.050 A 
ATOM     19  C   UNL     1       6.633  -6.583   3.357  0.00  0.00    +0.163 A 
ATOM     20  C   UNL     1       5.537  -7.388   3.649  0.00  0.00    +0.162 A 
ATOM     21  C   UNL     1       4.414  -6.835   4.243  0.00  0.00    +0.055 A 
BRANCH  20  22
ATOM     22  O   UNL     1       5.569  -8.716   3.356  0.00  0.00    -0.491 OA
ATOM     23  C   UNL     1       4.407  -9.480   3.683  0.00  0.00    +0.277 C 
ENDBRANCH  20  22
BRANCH  19  24
ATOM     24  O   UNL     1       7.740  -7.122   2.778  0.00  0.00    -0.479 OA
BRANCH  24  25
ATOM     25  C   UNL     1       8.827  -6.236   2.507  0.00  0.00    +0.324 C 
BRANCH  25  26
ATOM     26  C   UNL     1       9.955  -7.005   1.870  0.00  0.00    +0.253 C 
ATOM     27  O   UNL     1       9.840  -8.195   1.668  0.00  0.00    -0.272 OA
ATOM     28  N   UNL     1      11.093  -6.370   1.524  0.00  0.00    -0.299 N 
BRANCH  28  29
ATOM     29  C   UNL     1      11.233  -4.933   1.768  0.00  0.00    +0.104 C 
ATOM     30  C   UNL     1      11.831  -4.707   3.158  0.00  0.00    +0.024 C 
ENDBRANCH  28  29
BRANCH  28  31
ATOM     31  C   UNL     1      12.190  -7.118   0.905  0.00  0.00    +0.104 C 
ATOM     32  C   UNL     1      12.022  -7.104  -0.616  0.00  0.00    +0.024 C 
ENDBRANCH  28  31
ENDBRANCH  25  26
ENDBRANCH  24  25
ENDBRANCH  19  24
ENDBRANCH   6  16
BRANCH   1  33
ATOM     33  S   UNL     1       0.767  -2.325   1.232  0.00  0.00    -0.084 S 
BRANCH  33  34
ATOM     34  C   UNL     1       0.742  -0.511   1.242  0.00  0.00    +0.077 C 
BRANCH  34  36
ATOM     35  C   UNL     1      -0.019   1.526   0.010  0.00  0.00    +0.004 C 
ATOM     36  C   UNL     1       0.002  -0.004   0.002  0.00  0.00    +0.008 C 
ENDBRANCH  34  36
ENDBRANCH  33  34
ENDBRANCH   1  33
TORSDOF 10
