REMARK  Name = ZINC10874298
REMARK  12 active torsions:
REMARK  status: ('A' for Active; 'I' for Inactive)
REMARK    1  A    between atoms: C_1  and  C_2
REMARK    2  A    between atoms: C_2  and  N_3
REMARK    3  A    between atoms: N_3  and  C_4
REMARK    4  A    between atoms: N_3  and  S_6
REMARK    5  A    between atoms: C_4  and  C_5
REMARK    6  A    between atoms: S_6  and  C_9
REMARK    7  A    between atoms: C_12  and  C_15
REMARK    8  A    between atoms: N_17  and  C_18
REMARK    9  A    between atoms: C_18  and  C_19
REMARK   10  A    between atoms: C_19  and  S_20
REMARK   11  A    between atoms: S_20  and  N_23
REMARK   12  A    between atoms: C_32  and  C_34
REMARK                            x       y       z     vdW  Elec       q    Type
REMARK                         _______ _______ _______ _____ _____    ______ ____
ROOT
ATOM      1  C   UNL     1      -6.598   1.466  -4.236  0.00  0.00    +0.244 C 
ATOM      2  O   UNL     1      -7.399   0.907  -3.512  0.00  0.00    -0.270 OA
ATOM      3  N   UNL     1      -5.534   2.098  -3.703  0.00  0.00    -0.310 N 
ATOM      4  H   UNL     1      -4.895   2.544  -4.281  0.00  0.00    +0.149 HD
ENDROOT
BRANCH   1   8
ATOM      5  C   UNL     1      -7.158   1.431  -8.447  0.00  0.00    +0.106 A 
ATOM      6  C   UNL     1      -8.071   0.793  -7.625  0.00  0.00    +0.029 A 
ATOM      7  C   UNL     1      -7.895   0.801  -6.257  0.00  0.00    +0.015 A 
ATOM      8  C   UNL     1      -6.793   1.454  -5.702  0.00  0.00    +0.037 A 
ATOM      9  C   UNL     1      -5.879   2.100  -6.535  0.00  0.00    +0.015 A 
ATOM     10  C   UNL     1      -6.064   2.080  -7.902  0.00  0.00    +0.029 A 
BRANCH   5  11
ATOM     11  S   UNL     1      -7.389   1.416 -10.193  0.00  0.00    +0.061 S 
ATOM     12  O   UNL     1      -6.108   1.616 -10.774  0.00  0.00    -0.153 OA
ATOM     13  O   UNL     1      -8.191   0.280 -10.487  0.00  0.00    -0.153 OA
BRANCH  11  14
ATOM     14  N   UNL     1      -8.296   2.747 -10.578  0.00  0.00    -0.177 NA
BRANCH  14  16
ATOM     15  C   UNL     1      -7.474   4.141 -12.411  0.00  0.00    +0.022 C 
ATOM     16  C   UNL     1      -7.637   4.016 -10.895  0.00  0.00    +0.106 C 
ENDBRANCH  14  16
BRANCH  14  17
ATOM     17  C   UNL     1      -9.758   2.655 -10.602  0.00  0.00    +0.106 C 
ATOM     18  C   UNL     1     -10.320   3.115  -9.255  0.00  0.00    +0.022 C 
ENDBRANCH  14  17
ENDBRANCH  11  14
ENDBRANCH   5  11
ENDBRANCH   1   8
BRANCH   3  19
ATOM     19  C   UNL     1      -5.341   2.110  -2.251  0.00  0.00    +0.129 C 
BRANCH  19  20
ATOM     20  C   UNL     1      -4.068   2.887  -1.912  0.00  0.00    +0.207 C 
BRANCH  20  21
ATOM     21  S   UNL     1      -3.829   2.902  -0.114  0.00  0.00    +0.047 S 
ATOM     22  O   UNL     1      -3.530   1.593   0.351  0.00  0.00    -0.155 OA
ATOM     23  O   UNL     1      -4.844   3.678   0.508  0.00  0.00    -0.155 OA
BRANCH  21  24
ATOM     24  N   UNL     1      -2.435   3.764   0.123  0.00  0.00    -0.204 N 
ATOM     25  C   UNL     1      -2.483   5.142   0.373  0.00  0.00    +0.055 A 
ATOM     26  C   UNL     1      -3.672   5.828   0.152  0.00  0.00    +0.028 A 
ATOM     27  C   UNL     1      -3.741   7.186   0.391  0.00  0.00    +0.040 A 
ATOM     28  C   UNL     1      -2.628   7.861   0.862  0.00  0.00    +0.124 A 
ATOM     29  C   UNL     1      -1.446   7.179   1.086  0.00  0.00    +0.043 A 
ATOM     30  C   UNL     1      -1.368   5.818   0.842  0.00  0.00    -0.022 A 
ATOM     31  C   UNL     1      -0.064   5.107   1.091  0.00  0.00    +0.039 C 
ATOM     32  C   UNL     1      -0.296   3.606   1.260  0.00  0.00    +0.029 C 
ATOM     33  C   UNL     1      -1.127   3.096   0.075  0.00  0.00    +0.095 C 
ATOM     34  C   UNL     1      -1.314   1.582   0.186  0.00  0.00    +0.030 C 
ATOM     35  F   UNL     1      -2.697   9.189   1.104  0.00  0.00    -0.205 F 
ENDBRANCH  21  24
ENDBRANCH  20  21
ENDBRANCH  19  20
ENDBRANCH   3  19
TORSDOF 9
