REMARK  Name = ZINC20969016
REMARK  11 active torsions:
REMARK  status: ('A' for Active; 'I' for Inactive)
REMARK    1  A    between atoms: C_1  and  C_2
REMARK    2  A    between atoms: C_2  and  C_3
REMARK    3  A    between atoms: C_2  and  C_4
REMARK    4  A    between atoms: C_4  and  N_5
REMARK    5  A    between atoms: C_6  and  N_29
REMARK    6  A    between atoms: C_7  and  N_14
REMARK    7  A    between atoms: N_14  and  C_15
REMARK    8  A    between atoms: C_15  and  C_16
REMARK    9  A    between atoms: C_16  and  C_17
REMARK   10  A    between atoms: C_16  and  C_18
REMARK   11  A    between atoms: C_19  and  C_21
REMARK                            x       y       z     vdW  Elec       q    Type
REMARK                         _______ _______ _______ _____ _____    ______ ____
ROOT
ATOM      1  N   UNL     1      -1.486  -1.757  -0.845  0.00  0.00    -0.280 N 
ATOM      2  C   UNL     1      -1.338  -2.492   0.308  0.00  0.00    +0.127 A 
ATOM      3  C   UNL     1      -0.247  -2.258   1.121  0.00  0.00    +0.140 A 
ATOM      4  C   UNL     1       0.682  -1.271   0.742  0.00  0.00    +0.277 A 
ATOM      5  O   UNL     1       1.655  -1.043   1.442  0.00  0.00    -0.266 OA
ATOM      6  N   UNL     1       0.490  -0.579  -0.398  0.00  0.00    -0.273 N 
ATOM      7  H   UNL     1       1.209   0.197  -0.698  0.00  0.00    +0.173 HD
ATOM      8  C   UNL     1      -0.576  -0.825  -1.180  0.00  0.00    +0.331 A 
ATOM      9  O   UNL     1      -0.723  -0.189  -2.206  0.00  0.00    -0.246 OA
ENDROOT
BRANCH   3  10
ATOM     10  N   UNL     1      -0.068  -2.995   2.309  0.00  0.00    -0.259 N 
ATOM     11  C   UNL     1      -0.056  -2.362   3.499  0.00  0.00    +0.271 C 
ATOM     12  O   UNL     1      -0.132  -1.149   3.543  0.00  0.00    -0.268 OA
BRANCH  11  13
ATOM     13  C   UNL     1       0.048  -3.143   4.752  0.00  0.00    +0.146 A 
ATOM     14  C   UNL     1      -0.068  -2.496   5.982  0.00  0.00    +0.072 A 
ATOM     15  C   UNL     1       0.032  -3.242   7.148  0.00  0.00    +0.025 A 
ATOM     16  C   UNL     1       0.244  -4.607   7.043  0.00  0.00    +0.041 A 
ATOM     17  C   UNL     1       0.350  -5.184   5.786  0.00  0.00    +0.130 A 
ATOM     18  N   UNL     1       0.246  -4.455   4.696  0.00  0.00    -0.229 NA
ATOM     19 CL   UNL     1       0.616  -6.894   5.649  0.00  0.00    -0.062 Cl
ATOM     20 CL   UNL     1      -0.334  -0.782   6.053  0.00  0.00    -0.081 Cl
ENDBRANCH  11  13
BRANCH  10  21
ATOM     21  C   UNL     1       0.107  -4.448   2.251  0.00  0.00    +0.117 C 
BRANCH  21  22
ATOM     22  C   UNL     1       1.598  -4.785   2.300  0.00  0.00    +0.001 C 
ATOM     23  C   UNL     1       1.776  -6.304   2.353  0.00  0.00    +0.009 C 
ATOM     24  C   UNL     1       2.287  -4.234   1.050  0.00  0.00    +0.009 C 
ENDBRANCH  21  22
ENDBRANCH  10  21
ENDBRANCH   3  10
BRANCH   2  25
ATOM     25  N   UNL     1      -2.266  -3.448   0.647  0.00  0.00    -0.343 N 
ATOM     26  H   UNL     1      -2.141  -4.032   1.570  0.00  0.00    +0.144 HD
ATOM     27  H   UNL     1      -3.133  -3.629  -0.006  0.00  0.00    +0.144 HD
ENDBRANCH   2  25
BRANCH   1  28
ATOM     28  C   UNL     1      -2.639  -1.995  -1.717  0.00  0.00    +0.131 C 
BRANCH  28  30
ATOM     29  C   UNL     1      -3.408   0.375  -1.524  0.00  0.00    +0.009 C 
ATOM     30  C   UNL     1      -3.796  -1.087  -1.293  0.00  0.00    +0.003 C 
ATOM     31  C   UNL     1      -5.038  -1.423  -2.121  0.00  0.00    +0.009 C 
ENDBRANCH  28  30
ENDBRANCH   1  28
TORSDOF 7
