REMARK  Name = ZINC05411492
REMARK  9 active torsions:
REMARK  status: ('A' for Active; 'I' for Inactive)
REMARK    1  A    between atoms: C_7  and  C_11
REMARK    2  A    between atoms: C_11  and  C_12
REMARK    3  A    between atoms: C_12  and  C_14
REMARK    4  A    between atoms: C_12  and  N_17
REMARK    5  A    between atoms: C_18  and  C_20
REMARK    6  A    between atoms: C_20  and  C_22
REMARK    7  A    between atoms: C_20  and  N_33
REMARK    8  A    between atoms: C_22  and  C_23
REMARK    9  A    between atoms: C_34  and  C_36
REMARK                            x       y       z     vdW  Elec       q    Type
REMARK                         _______ _______ _______ _____ _____    ______ ____
ROOT
ATOM      1  C   UNL     1       2.795   1.149  -3.890  0.00  0.00    +0.163 C 
ENDROOT
BRANCH   1   3
ATOM      2  N   UNL     1       3.561   2.548  -1.999  0.00  0.00    -0.302 N 
ATOM      3  C   UNL     1       3.398   2.412  -3.330  0.00  0.00    +0.234 C 
ATOM      4  O   UNL     1       3.736   3.305  -4.077  0.00  0.00    -0.274 OA
ATOM      5  H   UNL     1       3.290   1.833  -1.401  0.00  0.00    +0.150 HD
BRANCH   2   6
ATOM      6  C   UNL     1       4.147   3.775  -1.454  0.00  0.00    +0.163 C 
BRANCH   6   7
ATOM      7  C   UNL     1       5.650   3.670  -1.482  0.00  0.00    +0.231 C 
ATOM      8  O   UNL     1       6.179   2.668  -1.914  0.00  0.00    -0.274 OA
ATOM      9  N   UNL     1       6.405   4.689  -1.027  0.00  0.00    -0.328 N 
ATOM     10  H   UNL     1       5.982   5.490  -0.681  0.00  0.00    +0.145 HD
ATOM     11  H   UNL     1       7.373   4.620  -1.044  0.00  0.00    +0.145 HD
ENDBRANCH   6   7
BRANCH   6  12
ATOM     12  C   UNL     1       3.675   3.969  -0.012  0.00  0.00    +0.069 C 
BRANCH  12  19
ATOM     13  C   UNL     1      -0.013   1.076   0.008  0.00  0.00    +0.001 A 
ATOM     14  C   UNL     1      -1.227   1.748   0.017  0.00  0.00    +0.002 A 
ATOM     15  C   UNL     1      -1.268   3.125   0.031  0.00  0.00    +0.026 A 
ATOM     16  C   UNL     1      -0.082   3.852   0.024  0.00  0.00    +0.047 A 
ATOM     17  C   UNL     1       1.146   3.166   0.008  0.00  0.00    +0.003 A 
ATOM     18  C   UNL     1       1.164   1.770   0.000  0.00  0.00    +0.010 A 
ATOM     19  C   UNL     1       2.186   4.198   0.004  0.00  0.00    -0.020 A 
ATOM     20  C   UNL     1       1.560   5.385   0.016  0.00  0.00    +0.087 A 
ATOM     21  N   UNL     1       0.205   5.198   0.028  0.00  0.00    -0.360 N 
ATOM     22  H   UNL     1      -0.456   5.909   0.038  0.00  0.00    +0.165 HD
ENDBRANCH  12  19
ENDBRANCH   6  12
ENDBRANCH   2   6
ENDBRANCH   1   3
BRANCH   1  23
ATOM     23  N   UNL     1       3.149   1.026  -5.306  0.00  0.00    -0.302 N 
ATOM     24  C   UNL     1       2.775   1.981  -6.180  0.00  0.00    +0.234 C 
ATOM     25  O   UNL     1       2.145   2.942  -5.794  0.00  0.00    -0.274 OA
ATOM     26  H   UNL     1       3.653   0.256  -5.614  0.00  0.00    +0.150 HD
BRANCH  24  27
ATOM     27  C   UNL     1       3.139   1.853  -7.637  0.00  0.00    +0.159 C 
ATOM     28  C   UNL     1       4.593   2.320  -7.867  0.00  0.00    +0.041 C 
ATOM     29  C   UNL     1       4.388   3.806  -8.253  0.00  0.00    +0.098 C 
ATOM     30  C   UNL     1       2.980   3.855  -8.804  0.00  0.00    +0.214 C 
ATOM     31  O   UNL     1       2.526   4.761  -9.470  0.00  0.00    -0.276 OA
ATOM     32  N   UNL     1       2.305   2.748  -8.449  0.00  0.00    -0.304 N 
ATOM     33  H   UNL     1       1.386   2.564  -8.697  0.00  0.00    +0.149 HD
ENDBRANCH  24  27
ENDBRANCH   1  23
BRANCH   1  34
ATOM     34  C   UNL     1       1.273   1.204  -3.747  0.00  0.00    +0.069 C 
BRANCH  34  35
ATOM     35  C   UNL     1       0.679  -0.107  -4.194  0.00  0.00    -0.020 A 
ATOM     36  C   UNL     1       0.193  -0.390  -5.413  0.00  0.00    +0.087 A 
ATOM     37  N   UNL     1      -0.260  -1.681  -5.447  0.00  0.00    -0.360 N 
ATOM     38  H   UNL     1      -0.653  -2.113  -6.221  0.00  0.00    +0.165 HD
ATOM     39  C   UNL     1      -0.079  -2.272  -4.217  0.00  0.00    +0.047 A 
ATOM     40  C   UNL     1       0.517  -1.313  -3.378  0.00  0.00    +0.003 A 
ATOM     41  C   UNL     1       0.821  -1.637  -2.055  0.00  0.00    +0.010 A 
ATOM     42  C   UNL     1       0.537  -2.887  -1.580  0.00  0.00    +0.001 A 
ATOM     43  C   UNL     1      -0.051  -3.837  -2.403  0.00  0.00    +0.002 A 
ATOM     44  C   UNL     1      -0.359  -3.538  -3.713  0.00  0.00    +0.026 A 
ENDBRANCH  34  35
ENDBRANCH   1  34
TORSDOF 9
