REMARK  Name = ZINC36367429
REMARK  12 active torsions:
REMARK  status: ('A' for Active; 'I' for Inactive)
REMARK    1  A    between atoms: C_1  and  C_2
REMARK    2  A    between atoms: C_5  and  O_40
REMARK    3  A    between atoms: C_7  and  C_37
REMARK    4  A    between atoms: C_7  and  C_38
REMARK    5  A    between atoms: C_12  and  C_36
REMARK    6  A    between atoms: C_18  and  C_35
REMARK    7  A    between atoms: C_21  and  C_34
REMARK    8  A    between atoms: C_25  and  C_29
REMARK    9  A    between atoms: C_25  and  C_30
REMARK   10  A    between atoms: C_30  and  O_32
REMARK   11  A    between atoms: O_32  and  C_33
REMARK   12  A    between atoms: C_38  and  O_39
REMARK                            x       y       z     vdW  Elec       q    Type
REMARK                         _______ _______ _______ _____ _____    ______ ____
ROOT
ATOM      1  C   UNL     1      -0.608   1.312  -0.987  0.00  0.00    +0.012 C 
ATOM      2  C   UNL     1      -0.774  -0.225  -1.152  0.00  0.00    -0.025 C 
ATOM      3  C   UNL     1      -0.850  -0.510  -2.647  0.00  0.00    +0.010 C 
ATOM      4  C   UNL     1       0.469  -0.152  -3.332  0.00  0.00    +0.032 C 
ATOM      5  C   UNL     1       1.576  -1.018  -2.742  0.00  0.00    +0.123 C 
ATOM      6  C   UNL     1       1.723  -0.787  -1.243  0.00  0.00    +0.020 C 
ATOM      7  C   UNL     1       0.409  -0.901  -0.482  0.00  0.00    +0.006 C 
ATOM      8  C   UNL     1       0.124  -2.357  -0.123  0.00  0.00    +0.005 C 
ATOM      9  C   UNL     1      -1.151  -2.463   0.721  0.00  0.00    +0.008 C 
ATOM     10  C   UNL     1      -2.343  -1.976  -0.101  0.00  0.00    -0.019 C 
ATOM     11  C   UNL     1      -2.115  -0.529  -0.487  0.00  0.00    +0.006 C 
ATOM     12  C   UNL     1      -3.273  -0.065  -1.380  0.00  0.00    +0.031 C 
ATOM     13  C   UNL     1      -4.545  -0.253  -0.606  0.00  0.00    -0.026 C 
ATOM     14  C   UNL     1      -4.694  -1.141   0.339  0.00  0.00    -0.063 C 
ATOM     15  C   UNL     1      -3.638  -2.139   0.707  0.00  0.00    -0.005 C 
ATOM     16  C   UNL     1      -3.395  -2.175   2.201  0.00  0.00    +0.012 C 
ATOM     17  C   UNL     1      -4.485  -1.470   3.019  0.00  0.00    +0.015 C 
ATOM     18  C   UNL     1      -5.862  -1.756   2.471  0.00  0.00    +0.033 C 
ATOM     19  C   UNL     1      -5.999  -1.140   1.076  0.00  0.00    +0.029 C 
ATOM     20  C   UNL     1      -7.232  -1.664   0.390  0.00  0.00    +0.027 C 
ATOM     21  C   UNL     1      -8.482  -1.235   1.166  0.00  0.00    +0.072 C 
ATOM     22  C   UNL     1      -8.380  -1.383   2.678  0.00  0.00    +0.092 C 
ATOM     23  C   UNL     1      -7.000  -1.083   3.227  0.00  0.00    +0.141 C 
ATOM     24  O   UNL     1      -6.802  -0.377   4.178  0.00  0.00    -0.297 OA
ATOM     25  C   UNL     1      -8.810   0.225   0.825  0.00  0.00    +0.023 C 
ATOM     26  C   UNL     1      -6.154  -3.253   2.517  0.00  0.00    +0.020 C 
ATOM     27  C   UNL     1      -4.136  -3.523   0.259  0.00  0.00    +0.016 C 
ATOM     28  C   UNL     1      -2.502  -2.885  -1.328  0.00  0.00    +0.012 C 
ATOM     29  C   UNL     1       2.730  -1.836  -0.724  0.00  0.00    +0.016 C 
ENDROOT
BRANCH  21  30
ATOM     30  C   UNL     1      -9.641  -2.089   0.686  0.00  0.00    +0.313 C 
ATOM     31  O   UNL     1      -9.462  -2.925  -0.168  0.00  0.00    -0.250 OA
BRANCH  30  32
ATOM     32  O   UNL     1     -10.864  -1.915   1.209  0.00  0.00    -0.468 OA
ATOM     33  C   UNL     1     -11.908  -2.754   0.710  0.00  0.00    +0.280 C 
ENDBRANCH  30  32
ENDBRANCH  21  30
BRANCH   5  34
ATOM     34  O   UNL     1       1.296  -2.398  -2.995  0.00  0.00    -0.391 OA
ATOM     35  H   UNL     1       1.233  -2.620  -3.934  0.00  0.00    +0.210 HD
ENDBRANCH   5  34
BRANCH   6  36
ATOM     36  C   UNL     1       2.385   0.578  -1.000  0.00  0.00    +0.165 C 
BRANCH  36  37
ATOM     37  O   UNL     1       3.723   0.554  -1.502  0.00  0.00    -0.394 OA
ATOM     38  H   UNL     1       4.203   1.385  -1.383  0.00  0.00    +0.209 HD
ENDBRANCH  36  37
ENDBRANCH   6  36
TORSDOF 5
