REMARK  Name = ZINC16741814
REMARK  5 active torsions:
REMARK  status: ('A' for Active; 'I' for Inactive)
REMARK    1  A    between atoms: C_1  and  C_2
REMARK    2  A    between atoms: C_16  and  C_18
REMARK    3  A    between atoms: C_28  and  S_30
REMARK    4  A    between atoms: S_30  and  C_31
REMARK    5  A    between atoms: C_31  and  C_32
REMARK                            x       y       z     vdW  Elec       q    Type
REMARK                         _______ _______ _______ _____ _____    ______ ____
ROOT
ATOM      1  C   UNL     1       2.476   3.921  -0.002  0.00  0.00    +0.044 C 
ATOM      2  C   UNL     1       1.170   3.170   0.007  0.00  0.00    -0.050 A 
ATOM      3  C   UNL     1       1.170   1.782   0.001  0.00  0.00    +0.007 A 
ATOM      4  C   UNL     1      -0.013   1.076   0.008  0.00  0.00    +0.047 A 
ATOM      5  C   UNL     1      -1.227   1.757   0.017  0.00  0.00    +0.139 A 
ATOM      6  C   UNL     1      -1.217   3.162   0.030  0.00  0.00    +0.065 A 
ATOM      7  C   UNL     1      -0.011   3.860   0.022  0.00  0.00    +0.018 A 
ATOM      8  C   UNL     1      -2.515   3.866   0.045  0.00  0.00    +0.199 A 
ATOM      9  O   UNL     1      -2.582   5.083   0.051  0.00  0.00    -0.287 OA
ATOM     10  C   UNL     1      -3.717   3.029   0.036  0.00  0.00    +0.072 A 
ATOM     11  C   UNL     1      -3.599   1.678   0.029  0.00  0.00    +0.199 A 
ATOM     12  O   UNL     1      -2.390   1.082   0.020  0.00  0.00    -0.450 OA
ATOM     13  C   UNL     1      -4.961   1.091   0.032  0.00  0.00    +0.289 C 
ATOM     14  O   UNL     1      -5.205  -0.100   0.027  0.00  0.00    -0.266 OA
ATOM     15  N   UNL     1      -5.888   2.064   0.042  0.00  0.00    -0.230 N 
ATOM     16  C   UNL     1      -5.188   3.355   0.045  0.00  0.00    +0.151 C 
ATOM     17  C   UNL     1      -7.266   1.882   0.047  0.00  0.00    +0.192 A 
ATOM     18  N   UNL     1      -8.242   2.775   0.057  0.00  0.00    -0.125 NA
ATOM     19  N   UNL     1      -9.457   2.437   0.060  0.00  0.00    -0.133 NA
ATOM     20  C   UNL     1      -9.831   1.165   0.055  0.00  0.00    +0.160 A 
ATOM     21  S   UNL     1      -8.226   0.371   0.036  0.00  0.00    -0.024 S 
ENDROOT
BRANCH  16  22
ATOM     22  C   UNL     1      -5.553   4.147  -1.185  0.00  0.00    -0.022 A 
ATOM     23  C   UNL     1      -5.703   3.505  -2.400  0.00  0.00    +0.008 A 
ATOM     24  C   UNL     1      -6.042   4.229  -3.527  0.00  0.00    +0.038 A 
ATOM     25  C   UNL     1      -6.222   5.599  -3.441  0.00  0.00    +0.123 A 
ATOM     26  C   UNL     1      -6.067   6.242  -2.224  0.00  0.00    +0.038 A 
ATOM     27  C   UNL     1      -5.733   5.515  -1.097  0.00  0.00    +0.008 A 
ATOM     28  F   UNL     1      -6.550   6.309  -4.543  0.00  0.00    -0.205 F 
ENDBRANCH  16  22
BRANCH  20  29
ATOM     29  S   UNL     1     -11.445   0.458   0.059  0.00  0.00    -0.092 S 
BRANCH  29  30
ATOM     30  C   UNL     1     -12.553   1.895   0.071  0.00  0.00    +0.111 C 
BRANCH  30  31
ATOM     31  C   UNL     1     -13.985   1.424   0.075  0.00  0.00    -0.037 A 
ATOM     32  C   UNL     1     -14.648   1.220  -1.121  0.00  0.00    +0.004 A 
ATOM     33  C   UNL     1     -15.960   0.785  -1.117  0.00  0.00    +0.000 A 
ATOM     34  C   UNL     1     -16.611   0.563   0.082  0.00  0.00    +0.000 A 
ATOM     35  C   UNL     1     -15.949   0.771   1.277  0.00  0.00    +0.000 A 
ATOM     36  C   UNL     1     -14.636   1.203   1.274  0.00  0.00    +0.004 A 
ENDBRANCH  30  31
ENDBRANCH  29  30
ENDBRANCH  20  29
TORSDOF 4
