REMARK  Name = ZINC14961696
REMARK  9 active torsions:
REMARK  status: ('A' for Active; 'I' for Inactive)
REMARK    1  A    between atoms: C_1  and  C_2
REMARK    2  A    between atoms: C_4  and  C_9
REMARK    3  A    between atoms: C_9  and  C_10
REMARK    4  A    between atoms: C_10  and  C_12
REMARK    5  A    between atoms: C_10  and  N_52
REMARK    6  A    between atoms: C_12  and  O_13
REMARK    7  A    between atoms: O_13  and  C_14
REMARK    8  A    between atoms: C_16  and  C_20
REMARK    9  A    between atoms: C_26  and  C_30
REMARK                            x       y       z     vdW  Elec       q    Type
REMARK                         _______ _______ _______ _____ _____    ______ ____
ROOT
ATOM      1  C   UNL     1      -7.993   2.225  -0.438  0.00  0.00    +0.139 A 
ATOM      2  C   UNL     1      -6.942   2.325   0.465  0.00  0.00    +0.057 A 
ATOM      3  C   UNL     1      -5.659   1.993   0.025  0.00  0.00    +0.004 A 
ATOM      4  C   UNL     1      -5.485   1.569  -1.290  0.00  0.00    +0.119 A 
ATOM      5  N   UNL     1      -6.511   1.484  -2.112  0.00  0.00    -0.259 NA
ATOM      6  C   UNL     1      -7.735   1.794  -1.732  0.00  0.00    +0.156 A 
ENDROOT
BRANCH   3   7
ATOM      7  C   UNL     1      -4.500   2.086   0.947  0.00  0.00    -0.016 A 
ATOM      8  C   UNL     1      -4.690   2.515   2.267  0.00  0.00    +0.010 A 
ATOM      9  C   UNL     1      -3.637   2.606   3.127  0.00  0.00    +0.028 A 
ATOM     10  C   UNL     1      -2.353   2.271   2.701  0.00  0.00    +0.066 A 
ATOM     11  C   UNL     1      -2.147   1.844   1.374  0.00  0.00    +0.023 A 
ATOM     12  C   UNL     1      -3.233   1.749   0.499  0.00  0.00    +0.020 A 
ATOM     13  C   UNL     1      -0.718   1.572   1.248  0.00  0.00    +0.067 A 
ATOM     14  N   UNL     1      -0.161   1.829   2.397  0.00  0.00    -0.178 NA
ATOM     15  N   UNL     1      -1.126   2.260   3.313  0.00  0.00    -0.277 N 
ATOM     16  H   UNL     1      -0.950   2.518   4.263  0.00  0.00    +0.189 HD
ATOM     17  C   UNL     1      -0.013   1.086   0.008  0.00  0.00    +0.068 C 
ENDBRANCH   3   7
BRANCH   1  18
ATOM     18  O   UNL     1      -9.260   2.541  -0.059  0.00  0.00    -0.492 OA
BRANCH  18  19
ATOM     19  C   UNL     1     -10.285   2.407  -1.044  0.00  0.00    +0.213 C 
BRANCH  19  20
ATOM     20  C   UNL     1     -11.632   2.805  -0.437  0.00  0.00    -0.033 C 
BRANCH  20  23
ATOM     21  H   UNL     1     -11.444   4.800  -0.907  0.00  0.00    -0.089 HD
ATOM     22  H   UNL     1     -12.465   4.505   0.372  0.00  0.00    -0.089 HD
ATOM     23  N   UNL     1     -11.591   4.232  -0.074  0.00  0.00    +0.382 N 
ATOM     24  H   UNL     1     -10.816   4.392   0.581  0.00  0.00    -0.089 HD
ENDBRANCH  20  23
BRANCH  20  25
ATOM     25  C   UNL     1     -12.747   2.543  -1.452  0.00  0.00    +0.022 C 
BRANCH  25  29
ATOM     26  C   UNL     1     -16.719   0.951   1.142  0.00  0.00    +0.045 C 
ATOM     27  C   UNL     1     -15.984   2.056   0.429  0.00  0.00    -0.036 A 
ATOM     28  C   UNL     1     -14.760   1.803  -0.162  0.00  0.00    +0.008 A 
ATOM     29  C   UNL     1     -14.083   2.818  -0.812  0.00  0.00    -0.048 A 
ATOM     30  C   UNL     1     -14.634   4.085  -0.880  0.00  0.00    +0.004 A 
ATOM     31  C   UNL     1     -15.860   4.337  -0.293  0.00  0.00    +0.016 A 
ATOM     32  C   UNL     1     -16.535   3.323   0.361  0.00  0.00    +0.021 A 
ATOM     33 BR   UNL     1     -18.213   3.668   1.164  0.00  0.00    -0.050 Br
ENDBRANCH  25  29
ENDBRANCH  20  25
ENDBRANCH  19  20
ENDBRANCH  18  19
ENDBRANCH   1  18
TORSDOF 7
