REMARK  Name = ZINC25578638
REMARK  5 active torsions:
REMARK  status: ('A' for Active; 'I' for Inactive)
REMARK    1  A    between atoms: C_3  and  C_20
REMARK    2  A    between atoms: C_6  and  C_7
REMARK    3  A    between atoms: C_7  and  C_8
REMARK    4  A    between atoms: C_8  and  C_9
REMARK    5  A    between atoms: C_9  and  C_10
REMARK                            x       y       z     vdW  Elec       q    Type
REMARK                         _______ _______ _______ _____ _____    ______ ____
ROOT
ATOM      1  C   UNL     1      -3.511  -2.051  -2.838  0.00  0.00    +0.081 A 
ATOM      2  C   UNL     1      -4.239  -1.090  -3.531  0.00  0.00    +0.259 A 
ATOM      3  O   UNL     1      -4.554   0.074  -2.947  0.00  0.00    -0.267 OA
ATOM      4  N   UNL     1      -4.623  -1.342  -4.798  0.00  0.00    -0.296 N 
ATOM      5  H   UNL     1      -5.130  -0.676  -5.288  0.00  0.00    +0.172 HD
ATOM      6  C   UNL     1      -4.312  -2.497  -5.386  0.00  0.00    +0.173 A 
ATOM      7  N   UNL     1      -3.616  -3.437  -4.748  0.00  0.00    -0.296 N 
ATOM      8  C   UNL     1      -3.199  -3.244  -3.482  0.00  0.00    +0.259 A 
ATOM      9  O   UNL     1      -2.494  -4.192  -2.848  0.00  0.00    -0.267 OA
ATOM     10  N   UNL     1      -4.717  -2.722  -6.673  0.00  0.00    -0.330 N 
ATOM     11  H   UNL     1      -5.225  -2.045  -7.147  0.00  0.00    +0.145 HD
ATOM     12  H   UNL     1      -4.497  -3.559  -7.111  0.00  0.00    +0.145 HD
ATOM     13  H   UNL     1      -3.405  -4.268  -5.202  0.00  0.00    +0.172 HD
ENDROOT
BRANCH   1  14
ATOM     14  C   UNL     1      -3.065  -1.803  -1.420  0.00  0.00    +0.046 C 
BRANCH  14  15
ATOM     15  C   UNL     1      -1.748  -1.024  -1.429  0.00  0.00    +0.010 C 
BRANCH  15  16
ATOM     16  C   UNL     1      -1.295  -0.772   0.011  0.00  0.00    +0.035 C 
BRANCH  16  22
ATOM     17  C   UNL     1      -0.017   1.380   0.010  0.00  0.00    +0.004 A 
ATOM     18  C   UNL     1       1.166   2.089   0.002  0.00  0.00    +0.015 A 
ATOM     19  C   UNL     1       2.385   1.407  -0.013  0.00  0.00    +0.063 A 
ATOM     20  C   UNL     1       2.397   0.009  -0.021  0.00  0.00    +0.015 A 
ATOM     21  C   UNL     1       1.206  -0.686  -0.013  0.00  0.00    +0.004 A 
ATOM     22  C   UNL     1       0.002  -0.004   0.002  0.00  0.00    -0.047 A 
BRANCH  19  23
ATOM     23  C   UNL     1       3.655   2.158  -0.022  0.00  0.00    +0.387 C 
ATOM     24  O   UNL     1       3.642   3.381  -0.015  0.00  0.00    -0.241 OA
ATOM     25  O   UNL     1       4.721   1.558  -0.035  0.00  0.00    -0.241 OA
ENDBRANCH  19  23
ENDBRANCH  16  22
ENDBRANCH  15  16
ENDBRANCH  14  15
ENDBRANCH   1  14
TORSDOF 5
