REMARK  Name = ZINC25261635
REMARK  10 active torsions:
REMARK  status: ('A' for Active; 'I' for Inactive)
REMARK    1  A    between atoms: C_1  and  C_2
REMARK    2  A    between atoms: C_2  and  C_3
REMARK    3  A    between atoms: C_3  and  C_5
REMARK    4  A    between atoms: C_3  and  C_6
REMARK    5  A    between atoms: C_6  and  C_8
REMARK    6  A    between atoms: C_6  and  N_32
REMARK    7  A    between atoms: N_10  and  N_11
REMARK    8  A    between atoms: C_12  and  C_14
REMARK    9  A    between atoms: N_23  and  C_25
REMARK   10  A    between atoms: C_25  and  C_26
REMARK                            x       y       z     vdW  Elec       q    Type
REMARK                         _______ _______ _______ _____ _____    ______ ____
ROOT
ATOM      1  N   UNL     1       4.847   1.544   0.143  0.00  0.00    -0.229 N 
ATOM      2  C   UNL     1       3.875   2.477   0.189  0.00  0.00    +0.281 C 
ATOM      3  O   UNL     1       4.166   3.656   0.225  0.00  0.00    -0.267 OA
ATOM      4  H   UNL     1       4.583   0.476   0.110  0.00  0.00    +0.173 HD
ENDROOT
BRANCH   2   5
ATOM      5  C   UNL     1       2.457   2.065   0.197  0.00  0.00    +0.155 A 
ATOM      6  C   UNL     1       1.389   3.076   0.248  0.00  0.00    +0.020 A 
ATOM      7  C   UNL     1       1.646   4.442   0.291  0.00  0.00    +0.011 A 
ATOM      8  C   UNL     1       0.590   5.328   0.338  0.00  0.00    +0.001 A 
ATOM      9  C   UNL     1      -0.722   4.872   0.342  0.00  0.00    +0.001 A 
ATOM     10  C   UNL     1      -0.998   3.522   0.306  0.00  0.00    +0.014 A 
ATOM     11  C   UNL     1       0.053   2.612   0.253  0.00  0.00    +0.050 A 
ATOM     12  C   UNL     1      -0.152   1.157   0.206  0.00  0.00    +0.275 A 
ATOM     13  O   UNL     1      -1.275   0.686   0.207  0.00  0.00    -0.266 OA
ATOM     14  N   UNL     1       0.933   0.357   0.162  0.00  0.00    -0.224 N 
ATOM     15  N   UNL     1       2.135   0.795   0.159  0.00  0.00    -0.163 NA
BRANCH  14  16
ATOM     16  C   UNL     1       0.723  -1.092   0.116  0.00  0.00    +0.182 C 
BRANCH  16  17
ATOM     17  C   UNL     1       0.629  -1.541  -1.319  0.00  0.00    -0.026 A 
ATOM     18  C   UNL     1      -0.599  -1.581  -1.952  0.00  0.00    +0.005 A 
ATOM     19  C   UNL     1      -0.684  -1.988  -3.271  0.00  0.00    +0.000 A 
ATOM     20  C   UNL     1       0.458  -2.364  -3.953  0.00  0.00    +0.000 A 
ATOM     21  C   UNL     1       1.685  -2.329  -3.319  0.00  0.00    +0.000 A 
ATOM     22  C   UNL     1       1.771  -1.917  -2.002  0.00  0.00    +0.005 A 
ENDBRANCH  16  17
ENDBRANCH  14  16
ENDBRANCH   2   5
BRANCH   1  25
ATOM     23  C   UNL     1       7.164   1.002   0.089  0.00  0.00    +0.250 C 
ATOM     24  O   UNL     1       6.874  -0.175   0.053  0.00  0.00    -0.272 OA
ATOM     25  N   UNL     1       6.192   1.934   0.135  0.00  0.00    -0.233 N 
ATOM     26  H   UNL     1       6.455   3.002   0.168  0.00  0.00    +0.173 HD
BRANCH  23  27
ATOM     27  C   UNL     1       8.611   1.421   0.081  0.00  0.00    +0.165 C 
BRANCH  27  28
ATOM     28  N   UNL     1       9.449   0.296   0.502  0.00  0.00    -0.288 N 
ATOM     29  C   UNL     1       9.713   0.105   1.810  0.00  0.00    +0.298 C 
ATOM     30  O   UNL     1       9.185   0.812   2.647  0.00  0.00    -0.253 OA
ATOM     31  N   UNL     1      10.561  -0.871   2.191  0.00  0.00    -0.313 N 
ATOM     32  H   UNL     1       9.862  -0.394  -0.248  0.00  0.00    +0.151 HD
ATOM     33  H   UNL     1      10.777  -1.026   3.259  0.00  0.00    +0.146 HD
ATOM     34  H   UNL     1      11.039  -1.511   1.435  0.00  0.00    +0.146 HD
ENDBRANCH  27  28
BRANCH  27  35
ATOM     35  C   UNL     1       9.010   1.852  -1.332  0.00  0.00    +0.015 C 
ATOM     36  C   UNL     1       8.918   0.652  -2.276  0.00  0.00    +0.010 C 
BRANCH  35  38
ATOM     37  C   UNL     1      10.801   2.927  -2.703  0.00  0.00    +0.004 C 
ATOM     38  C   UNL     1      10.445   2.381  -1.318  0.00  0.00    +0.002 C 
ENDBRANCH  35  38
ENDBRANCH  27  35
ENDBRANCH  23  27
ENDBRANCH   1  25
TORSDOF 8
