REMARK  Name = ZINC35134867
REMARK  5 active torsions:
REMARK  status: ('A' for Active; 'I' for Inactive)
REMARK    1  A    between atoms: C_1  and  C_2
REMARK    2  A    between atoms: C_2  and  C_4
REMARK    3  A    between atoms: C_2  and  N_7
REMARK    4  A    between atoms: C_8  and  C_10
REMARK    5  A    between atoms: C_12  and  N_18
REMARK                            x       y       z     vdW  Elec       q    Type
REMARK                         _______ _______ _______ _____ _____    ______ ____
ROOT
ATOM      1  C   UNL     1       2.769  -1.089   2.371  0.00  0.00    +0.040 A 
ATOM      2  C   UNL     1       4.160  -1.199   2.360  0.00  0.00    +0.047 A 
ATOM      3  C   UNL     1       4.822  -1.656   3.480  0.00  0.00    +0.147 A 
ATOM      4  C   UNL     1       4.110  -2.006   4.615  0.00  0.00    +0.089 A 
ATOM      5  C   UNL     1       2.728  -1.900   4.632  0.00  0.00    +0.062 A 
ATOM      6  C   UNL     1       2.055  -1.438   3.519  0.00  0.00    +0.034 A 
ATOM      7 CL   UNL     1       1.843  -2.341   6.059  0.00  0.00    -0.082 Cl
ATOM      8 CL   UNL     1       4.951  -2.580   6.021  0.00  0.00    -0.080 Cl
ENDROOT
BRANCH   1  10
ATOM      9  N   UNL     1       0.711  -0.489   1.189  0.00  0.00    -0.308 N 
ATOM     10  C   UNL     1       2.054  -0.600   1.174  0.00  0.00    +0.244 C 
ATOM     11  O   UNL     1       2.677  -0.297   0.175  0.00  0.00    -0.270 OA
ATOM     12  H   UNL     1       0.213  -0.731   1.986  0.00  0.00    +0.149 HD
BRANCH   9  14
ATOM     13  C   UNL     1      -0.019   1.526   0.010  0.00  0.00    +0.028 C 
ATOM     14  C   UNL     1       0.002  -0.004   0.002  0.00  0.00    +0.073 C 
BRANCH  14  15
ATOM     15  C   UNL     1      -1.433  -0.534   0.013  0.00  0.00    +0.009 C 
ATOM     16  C   UNL     1      -1.813  -1.567  -1.049  0.00  0.00    +0.005 C 
ATOM     17  C   UNL     1      -2.342  -0.135  -1.152  0.00  0.00    +0.005 C 
ENDBRANCH  14  15
ENDBRANCH   9  14
ENDBRANCH   1  10
BRANCH   3  18
ATOM     18  N   UNL     1       6.298  -1.774   3.469  0.00  0.00    +0.058 N 
ATOM     19  O   UNL     1       6.921  -1.469   2.479  0.00  0.00    -0.126 OA
ATOM     20  O   UNL     1       6.880  -2.174   4.450  0.00  0.00    -0.126 OA
ENDBRANCH   3  18
TORSDOF 4
