REMARK  Name = ZINC13062675
REMARK  10 active torsions:
REMARK  status: ('A' for Active; 'I' for Inactive)
REMARK    1  A    between atoms: C_1  and  C_2
REMARK    2  A    between atoms: C_2  and  C_4
REMARK    3  A    between atoms: C_2  and  N_12
REMARK    4  A    between atoms: C_13  and  C_15
REMARK    5  A    between atoms: C_15  and  C_17
REMARK    6  A    between atoms: C_15  and  O_18
REMARK    7  A    between atoms: O_18  and  C_19
REMARK    8  A    between atoms: C_19  and  C_21
REMARK    9  A    between atoms: C_30  and  N_33
REMARK   10  A    between atoms: C_34  and  C_36
REMARK                            x       y       z     vdW  Elec       q    Type
REMARK                         _______ _______ _______ _____ _____    ______ ____
ROOT
ATOM      1  O   UNL     1       4.239  -1.376  -1.860  0.00  0.00    -0.452 OA
ENDROOT
BRANCH   1   2
ATOM      2  C   UNL     1       2.880  -1.158  -2.243  0.00  0.00    +0.258 C 
ATOM      3  C   UNL     1       2.825  -0.115  -3.361  0.00  0.00    +0.062 C 
BRANCH   2   5
ATOM      4  N   UNL     1       0.764  -0.485  -1.153  0.00  0.00    -0.306 N 
ATOM      5  C   UNL     1       2.096  -0.663  -1.055  0.00  0.00    +0.254 C 
ATOM      6  O   UNL     1       2.664  -0.425  -0.010  0.00  0.00    -0.272 OA
ATOM      7  H   UNL     1       0.309  -0.676  -1.988  0.00  0.00    +0.149 HD
BRANCH   4   9
ATOM      8  C   UNL     1       0.009   1.526   0.016  0.00  0.00    +0.033 C 
ATOM      9  C   UNL     1       0.002  -0.004   0.002  0.00  0.00    +0.102 C 
BRANCH   9  10
ATOM     10  C   UNL     1      -1.418  -0.499  -0.091  0.00  0.00    -0.009 A 
ATOM     11  C   UNL     1      -1.976  -0.770  -1.327  0.00  0.00    +0.008 A 
ATOM     12  C   UNL     1      -3.278  -1.224  -1.413  0.00  0.00    +0.020 A 
ATOM     13  C   UNL     1      -4.025  -1.408  -0.263  0.00  0.00    +0.042 A 
ATOM     14  C   UNL     1      -3.468  -1.137   0.974  0.00  0.00    +0.040 A 
ATOM     15  C   UNL     1      -2.162  -0.688   1.060  0.00  0.00    +0.047 A 
ATOM     16 CL   UNL     1      -1.460  -0.353   2.612  0.00  0.00    -0.083 Cl
ATOM     17 CL   UNL     1      -5.661  -1.977  -0.372  0.00  0.00    -0.083 Cl
ENDBRANCH   9  10
ENDBRANCH   4   9
ENDBRANCH   2   5
ENDBRANCH   1   2
BRANCH   1  18
ATOM     18  C   UNL     1       4.910  -2.338  -2.513  0.00  0.00    +0.314 C 
ATOM     19  O   UNL     1       4.361  -2.974  -3.381  0.00  0.00    -0.250 OA
BRANCH  18  20
ATOM     20  C   UNL     1       6.348  -2.624  -2.164  0.00  0.00    +0.070 C 
ATOM     21  C   UNL     1       7.188  -1.366  -2.393  0.00  0.00    +0.021 C 
ATOM     22  C   UNL     1       8.648  -1.657  -2.038  0.00  0.00    -0.008 C 
ATOM     23  C   UNL     1       8.743  -2.072  -0.569  0.00  0.00    +0.007 C 
ATOM     24  C   UNL     1       7.902  -3.330  -0.339  0.00  0.00    -0.008 C 
ATOM     25  C   UNL     1       6.442  -3.039  -0.694  0.00  0.00    +0.021 C 
ATOM     26  C   UNL     1       8.427  -4.462  -1.224  0.00  0.00    +0.029 C 
ATOM     27  C   UNL     1       8.332  -4.047  -2.694  0.00  0.00    +0.036 C 
ATOM     28  C   UNL     1       9.172  -2.789  -2.924  0.00  0.00    +0.029 C 
ATOM     29  C   UNL     1       6.872  -3.756  -3.049  0.00  0.00    +0.043 C 
BRANCH  27  30
ATOM     30  N   UNL     1       8.834  -5.131  -3.541  0.00  0.00    -0.310 N 
ATOM     31  C   UNL     1      10.104  -5.559  -3.405  0.00  0.00    +0.210 C 
ATOM     32  O   UNL     1      10.832  -5.047  -2.581  0.00  0.00    -0.276 OA
ATOM     33  C   UNL     1      10.621  -6.675  -4.277  0.00  0.00    +0.109 C 
ATOM     34  H   UNL     1       8.252  -5.541  -4.200  0.00  0.00    +0.149 HD
ENDBRANCH  27  30
ENDBRANCH  18  20
ENDBRANCH   1  18
TORSDOF 7
