REMARK  Name = ZINC58972589
REMARK  11 active torsions:
REMARK  status: ('A' for Active; 'I' for Inactive)
REMARK    1  A    between atoms: C_1  and  C_2
REMARK    2  A    between atoms: C_5  and  C_8
REMARK    3  A    between atoms: C_10  and  C_34
REMARK    4  A    between atoms: C_12  and  S_14
REMARK    5  A    between atoms: S_14  and  C_15
REMARK    6  A    between atoms: C_15  and  C_16
REMARK    7  A    between atoms: C_16  and  C_17
REMARK    8  A    between atoms: C_17  and  C_18
REMARK    9  A    between atoms: N_24  and  C_26
REMARK   10  A    between atoms: C_26  and  C_27
REMARK   11  A    between atoms: C_32  and  C_33
REMARK                            x       y       z     vdW  Elec       q    Type
REMARK                         _______ _______ _______ _____ _____    ______ ____
ROOT
ATOM      1  C   UNL     1       0.121  -8.850  -2.264  0.00  0.00    +0.078 C 
ENDROOT
BRANCH   1   2
ATOM      2  S   UNL     1       0.097  -7.096  -2.726  0.00  0.00    -0.086 S 
BRANCH   2   7
ATOM      3  C   UNL     1       0.060  -4.255  -0.021  0.00  0.00    +0.076 A 
ATOM      4  C   UNL     1       0.070  -4.971   1.179  0.00  0.00    +0.060 A 
ATOM      5  C   UNL     1       0.088  -6.354   1.122  0.00  0.00    +0.148 A 
ATOM      6  N   UNL     1       0.096  -6.953  -0.058  0.00  0.00    -0.218 NA
ATOM      7  C   UNL     1       0.086  -6.249  -1.181  0.00  0.00    +0.189 A 
ATOM      8  N   UNL     1       0.063  -4.925  -1.172  0.00  0.00    -0.222 NA
BRANCH   3  13
ATOM      9  C   UNL     1      -0.018   1.503   0.010  0.00  0.00    +0.044 C 
ATOM     10  C   UNL     1       0.002  -0.004   0.002  0.00  0.00    -0.050 A 
ATOM     11  C   UNL     1       0.006  -0.686  -1.201  0.00  0.00    +0.004 A 
ATOM     12  C   UNL     1       0.024  -2.066  -1.215  0.00  0.00    +0.010 A 
ATOM     13  C   UNL     1       0.040  -2.772  -0.013  0.00  0.00    +0.001 A 
ATOM     14  C   UNL     1       0.037  -2.079   1.196  0.00  0.00    +0.010 A 
ATOM     15  C   UNL     1       0.023  -0.699   1.198  0.00  0.00    +0.004 A 
ENDBRANCH   3  13
BRANCH   5  16
ATOM     16  C   UNL     1       0.100  -7.168   2.390  0.00  0.00    +0.434 C 
ATOM     17  F   UNL     1      -1.215  -7.437   2.783  0.00  0.00    -0.164 F 
ATOM     18  F   UNL     1       0.775  -8.372   2.164  0.00  0.00    -0.164 F 
ATOM     19  F   UNL     1       0.751  -6.450   3.399  0.00  0.00    -0.164 F 
ENDBRANCH   5  16
ENDBRANCH   2   7
ENDBRANCH   1   2
BRANCH   1  20
ATOM     20  C   UNL     1       0.132  -9.710  -3.530  0.00  0.00    +0.020 C 
BRANCH  20  21
ATOM     21  C   UNL     1       0.152 -11.190  -3.140  0.00  0.00    +0.097 C 
BRANCH  21  22
ATOM     22  C   UNL     1       0.164 -12.037  -4.386  0.00  0.00    +0.218 C 
ATOM     23  O   UNL     1       0.156 -11.510  -5.479  0.00  0.00    -0.275 OA
ATOM     24  N   UNL     1       0.182 -13.381  -4.287  0.00  0.00    -0.269 N 
ATOM     25  C   UNL     1       0.193 -14.169  -5.446  0.00  0.00    +0.147 A 
ATOM     26  C   UNL     1       0.191 -13.693  -6.767  0.00  0.00    +0.065 A 
ATOM     27  C   UNL     1       0.204 -14.764  -7.594  0.00  0.00    +0.110 A 
ATOM     28  N   UNL     1       0.212 -15.877  -6.830  0.00  0.00    -0.265 N 
ATOM     29  N   UNL     1       0.211 -15.481  -5.486  0.00  0.00    -0.156 NA
ATOM     30  H   UNL     1       0.188 -13.803  -3.414  0.00  0.00    +0.156 HD
BRANCH  28  31
ATOM     31  C   UNL     1       0.227 -17.257  -7.321  0.00  0.00    +0.178 C 
BRANCH  31  32
ATOM     32  C   UNL     1       1.396 -17.992  -6.718  0.00  0.00    -0.023 A 
ATOM     33  C   UNL     1       2.590 -18.077  -7.410  0.00  0.00    +0.006 A 
ATOM     34  C   UNL     1       3.663 -18.751  -6.857  0.00  0.00    +0.000 A 
ATOM     35  C   UNL     1       3.541 -19.340  -5.612  0.00  0.00    +0.000 A 
ATOM     36  C   UNL     1       2.348 -19.255  -4.920  0.00  0.00    +0.004 A 
ATOM     37  C   UNL     1       1.277 -18.576  -5.471  0.00  0.00    -0.046 A 
ATOM     38  C   UNL     1      -0.023 -18.478  -4.714  0.00  0.00    +0.044 C 
ENDBRANCH  31  32
ENDBRANCH  28  31
ENDBRANCH  21  22
ENDBRANCH  20  21
ENDBRANCH   1  20
TORSDOF 9
