REMARK  Name = ZINC04619562
REMARK  6 active torsions:
REMARK  status: ('A' for Active; 'I' for Inactive)
REMARK    1  A    between atoms: C_1  and  C_2
REMARK    2  A    between atoms: N_10  and  C_11
REMARK    3  A    between atoms: C_11  and  C_12
REMARK    4  A    between atoms: N_14  and  N_15
REMARK    5  A    between atoms: C_16  and  C_17
REMARK    6  A    between atoms: C_19  and  N_23
REMARK                            x       y       z     vdW  Elec       q    Type
REMARK                         _______ _______ _______ _____ _____    ______ ____
ROOT
ATOM      1  C   UNL     1      -3.525   1.651   0.028  0.00  0.00    +0.252 C 
ATOM      2  O   UNL     1      -3.542   2.864   0.034  0.00  0.00    -0.272 OA
ATOM      3  N   UNL     1      -2.349   0.993   0.019  0.00  0.00    -0.206 N 
ATOM      4  H   UNL     1      -2.336   0.023   0.013  0.00  0.00    +0.177 HD
ENDROOT
BRANCH   3   5
ATOM      5  N   UNL     1      -1.145   1.710   0.017  0.00  0.00    -0.188 NA
ATOM      6  C   UNL     1      -0.013   1.076   0.008  0.00  0.00    +0.142 C 
BRANCH   6   7
ATOM      7  C   UNL     1       1.254   1.830  -0.000  0.00  0.00    +0.043 A 
ATOM      8  C   UNL     1       2.475   1.152  -0.010  0.00  0.00    +0.046 A 
ATOM      9  C   UNL     1       3.656   1.864  -0.022  0.00  0.00    +0.127 A 
ATOM     10  C   UNL     1       3.637   3.248  -0.015  0.00  0.00    +0.036 A 
ATOM     11  C   UNL     1       2.435   3.931  -0.000  0.00  0.00    +0.054 A 
ATOM     12  C   UNL     1       1.239   3.231   0.008  0.00  0.00    +0.188 A 
ATOM     13  O   UNL     1       0.058   3.901   0.023  0.00  0.00    -0.287 OA
BRANCH   9  14
ATOM     14  N   UNL     1       4.949   1.145  -0.039  0.00  0.00    +0.056 N 
ATOM     15  O   UNL     1       5.994   1.771  -0.045  0.00  0.00    -0.126 OA
ATOM     16  O   UNL     1       4.969  -0.073  -0.045  0.00  0.00    -0.126 OA
ENDBRANCH   9  14
ENDBRANCH   6   7
ENDBRANCH   3   5
BRANCH   1  17
ATOM     17  C   UNL     1      -4.820   0.879   0.030  0.00  0.00    +0.220 C 
BRANCH  17  27
ATOM     18  C   UNL     1      -6.208   2.035  -2.481  0.00  0.00    +0.086 C 
ATOM     19  C   UNL     1      -6.572   2.337  -1.050  0.00  0.00    +0.108 A 
ATOM     20  N   UNL     1      -7.530   3.134  -0.677  0.00  0.00    -0.233 NA
ATOM     21  C   UNL     1      -7.585   3.179   0.679  0.00  0.00    +0.089 A 
ATOM     22  C   UNL     1      -8.401   3.856   1.589  0.00  0.00    +0.030 A 
ATOM     23  C   UNL     1      -8.217   3.681   2.931  0.00  0.00    +0.002 A 
ATOM     24  C   UNL     1      -7.215   2.844   3.404  0.00  0.00    +0.002 A 
ATOM     25  C   UNL     1      -6.395   2.169   2.525  0.00  0.00    +0.028 A 
ATOM     26  C   UNL     1      -6.574   2.329   1.158  0.00  0.00    +0.069 A 
ATOM     27  N   UNL     1      -5.946   1.816   0.040  0.00  0.00    -0.319 N 
ENDBRANCH  17  27
ENDBRANCH   1  17
TORSDOF 5
