REMARK  Name = ZINC05993468
REMARK  7 active torsions:
REMARK  status: ('A' for Active; 'I' for Inactive)
REMARK    1  A    between atoms: C_1  and  C_2
REMARK    2  A    between atoms: C_2  and  C_4
REMARK    3  A    between atoms: C_2  and  S_16
REMARK    4  A    between atoms: N_6  and  C_7
REMARK    5  A    between atoms: S_16  and  C_17
REMARK    6  A    between atoms: C_20  and  C_23
REMARK    7  A    between atoms: N_21  and  N_22
REMARK                            x       y       z     vdW  Elec       q    Type
REMARK                         _______ _______ _______ _____ _____    ______ ____
ROOT
ATOM      1  C   UNL     1      -3.966   2.496  -1.645  0.00  0.00    +0.029 C 
ATOM      2  C   UNL     1      -3.704   2.126  -0.184  0.00  0.00    +0.137 C 
ENDROOT
BRANCH   2   3
ATOM      3  C   UNL     1      -2.396   1.385  -0.081  0.00  0.00    +0.230 C 
ATOM      4  O   UNL     1      -2.385   0.172  -0.088  0.00  0.00    -0.274 OA
ATOM      5  N   UNL     1      -1.239   2.069   0.019  0.00  0.00    -0.282 N 
ATOM      6  H   UNL     1      -1.253   3.035   0.105  0.00  0.00    +0.155 HD
BRANCH   5   7
ATOM      7  C   UNL     1      -0.016   1.385  -0.002  0.00  0.00    +0.072 A 
ATOM      8  C   UNL     1       0.075   0.144  -0.617  0.00  0.00    +0.029 A 
ATOM      9  C   UNL     1       1.283  -0.527  -0.642  0.00  0.00    +0.043 A 
ATOM     10  C   UNL     1       2.403   0.036  -0.055  0.00  0.00    +0.161 A 
ATOM     11  C   UNL     1       2.316   1.275   0.561  0.00  0.00    +0.195 A 
ATOM     12  C   UNL     1       1.107   1.951   0.589  0.00  0.00    +0.182 A 
ATOM     13  F   UNL     1       1.021   3.159   1.188  0.00  0.00    -0.200 F 
ATOM     14  F   UNL     1       3.410   1.823   1.134  0.00  0.00    -0.199 F 
ATOM     15  F   UNL     1       3.582  -0.623  -0.081  0.00  0.00    -0.202 F 
ENDBRANCH   5   7
ENDBRANCH   2   3
BRANCH   2  16
ATOM     16  S   UNL     1      -5.045   1.072   0.422  0.00  0.00    -0.072 S 
BRANCH  16  17
ATOM     17  C   UNL     1      -6.390   2.207   0.334  0.00  0.00    +0.209 A 
ATOM     18  N   UNL     1      -6.334   3.454  -0.074  0.00  0.00    -0.121 NA
ATOM     19  N   UNL     1      -7.501   3.988  -0.007  0.00  0.00    -0.123 NA
ATOM     20  C   UNL     1      -8.364   3.122   0.443  0.00  0.00    +0.255 A 
ATOM     21  N   UNL     1      -7.689   1.955   0.671  0.00  0.00    -0.220 N 
BRANCH  20  22
ATOM     22  C   UNL     1      -9.835   3.360   0.665  0.00  0.00    +0.454 C 
ATOM     23  F   UNL     1     -10.223   4.532   0.007  0.00  0.00    -0.163 F 
ATOM     24  F   UNL     1     -10.565   2.278   0.160  0.00  0.00    -0.163 F 
ATOM     25  F   UNL     1     -10.085   3.491   2.036  0.00  0.00    -0.163 F 
ENDBRANCH  20  22
BRANCH  21  26
ATOM     26  N   UNL     1      -8.205   0.781   1.141  0.00  0.00    -0.295 N 
ATOM     27  H   UNL     1      -8.167   0.747   2.149  0.00  0.00    +0.163 HD
ATOM     28  H   UNL     1      -9.148   0.643   0.810  0.00  0.00    +0.163 HD
ENDBRANCH  21  26
ENDBRANCH  16  17
ENDBRANCH   2  16
TORSDOF 6
