REMARK  Name = ZINC20543184
REMARK  3 active torsions:
REMARK  status: ('A' for Active; 'I' for Inactive)
REMARK    1  A    between atoms: C_5  and  C_7
REMARK    2  A    between atoms: N_15  and  C_17
REMARK    3  A    between atoms: C_17  and  C_18
REMARK                            x       y       z     vdW  Elec       q    Type
REMARK                         _______ _______ _______ _____ _____    ______ ____
ROOT
ATOM      1  C   UNL     1       2.428   3.936   0.000  0.00  0.00    +0.100 A 
ATOM      2  C   UNL     1       2.556   5.327  -0.098  0.00  0.00    +0.015 A 
ATOM      3  C   UNL     1       3.880   5.628  -0.070  0.00  0.00    +0.042 A 
ATOM      4  N   UNL     1       4.566   4.479   0.037  0.00  0.00    -0.281 N 
ATOM      5  H   UNL     1       5.665   4.497   0.075  0.00  0.00    +0.189 HD
ATOM      6  N   UNL     1       3.642   3.424   0.079  0.00  0.00    -0.173 NA
ATOM      7  C   UNL     1       4.407   7.039  -0.157  0.00  0.00    +0.070 C 
ATOM      8  C   UNL     1       3.268   7.936  -0.661  0.00  0.00    +0.091 C 
ATOM      9  N   UNL     1       2.053   7.680   0.125  0.00  0.00    -0.293 NA
ATOM     10  C   UNL     1       1.469   6.367  -0.199  0.00  0.00    +0.124 C 
ENDROOT
BRANCH   1  15
ATOM     11  C   UNL     1      -1.016   2.743  -0.921  0.00  0.00    +0.001 A 
ATOM     12  C   UNL     1      -1.223   1.753   0.024  0.00  0.00    +0.003 A 
ATOM     13  C   UNL     1      -0.244   1.464   0.956  0.00  0.00    +0.039 A 
ATOM     14  C   UNL     1       0.945   2.171   0.955  0.00  0.00    +0.133 A 
ATOM     15  C   UNL     1       1.155   3.173   0.008  0.00  0.00    +0.038 A 
ATOM     16  C   UNL     1       0.166   3.455  -0.932  0.00  0.00    +0.013 A 
ATOM     17  F   UNL     1       1.899   1.892   1.870  0.00  0.00    -0.205 F 
ENDBRANCH   1  15
BRANCH   9  18
ATOM     18  C   UNL     1       1.069   8.755  -0.063  0.00  0.00    +0.123 C 
BRANCH  18  19
ATOM     19  C   UNL     1       0.582   8.747  -1.489  0.00  0.00    +0.012 A 
ATOM     20  C   UNL     1       1.101   9.647  -2.401  0.00  0.00    +0.009 A 
ATOM     21  C   UNL     1       0.657   9.642  -3.710  0.00  0.00    +0.004 A 
ATOM     22  C   UNL     1      -0.307   8.738  -4.113  0.00  0.00    +0.049 A 
ATOM     23  C   UNL     1      -0.832   7.833  -3.205  0.00  0.00    +0.167 A 
ATOM     24  C   UNL     1      -0.382   7.835  -1.887  0.00  0.00    +0.171 A 
ATOM     25  O   UNL     1      -1.047   6.863  -1.197  0.00  0.00    -0.452 OA
ATOM     26  C   UNL     1      -2.194   6.534  -2.003  0.00  0.00    +0.466 C 
ATOM     27  O   UNL     1      -1.774   6.855  -3.342  0.00  0.00    -0.453 OA
ENDBRANCH  18  19
ENDBRANCH   9  18
TORSDOF 3
