REMARK  Name = ZINC04109065
REMARK  7 active torsions:
REMARK  status: ('A' for Active; 'I' for Inactive)
REMARK    1  A    between atoms: C_1  and  C_2
REMARK    2  A    between atoms: C_2  and  C_3
REMARK    3  A    between atoms: C_3  and  C_4
REMARK    4  A    between atoms: C_3  and  C_5
REMARK    5  A    between atoms: C_3  and  C_6
REMARK    6  A    between atoms: C_15  and  O_26
REMARK    7  A    between atoms: C_17  and  C_20
REMARK                            x       y       z     vdW  Elec       q    Type
REMARK                         _______ _______ _______ _____ _____    ______ ____
ROOT
ATOM      1  C   UNL     1      -0.726   1.578   1.271  0.00  0.00    -0.000 C 
ATOM      2  C   UNL     1      -0.013   1.086   0.008  0.00  0.00    +0.009 C 
ATOM      3  C   UNL     1      -0.749   1.591  -1.234  0.00  0.00    +0.037 C 
ATOM      4  C   UNL     1      -2.222   1.218  -1.118  0.00  0.00    -0.023 A 
ATOM      5  C   UNL     1      -2.762   0.890   0.079  0.00  0.00    -0.004 A 
ATOM      6  S   UNL     1      -4.465   0.539  -0.270  0.00  0.00    -0.078 S 
ATOM      7  C   UNL     1      -4.456   0.823  -1.957  0.00  0.00    +0.080 A 
ATOM      8  C   UNL     1      -3.134   1.184  -2.248  0.00  0.00    +0.068 A 
ATOM      9  C   UNL     1      -2.814   1.508  -3.662  0.00  0.00    +0.220 C 
ATOM     10  N   UNL     1      -3.712   1.229  -4.567  0.00  0.00    -0.221 NA
ATOM     11  C   UNL     1      -4.968   0.538  -4.305  0.00  0.00    +0.242 C 
ATOM     12  N   UNL     1      -5.431   0.757  -2.922  0.00  0.00    -0.312 N 
ATOM     13  C   UNL     1      -2.064   0.840   1.402  0.00  0.00    +0.046 C 
ATOM     14  H   UNL     1      -6.372   0.850  -2.706  0.00  0.00    +0.149 HD
ENDROOT
BRANCH  11  15
ATOM     15  C   UNL     1      -4.772  -0.939  -4.530  0.00  0.00    +0.083 A 
ATOM     16  C   UNL     1      -3.814  -1.372  -5.427  0.00  0.00    +0.027 A 
ATOM     17  C   UNL     1      -3.640  -2.733  -5.626  0.00  0.00    +0.003 A 
ATOM     18  C   UNL     1      -4.441  -3.611  -4.912  0.00  0.00    +0.020 A 
ATOM     19  C   UNL     1      -5.378  -3.105  -4.031  0.00  0.00    +0.111 A 
ATOM     20  N   UNL     1      -5.512  -1.804  -3.864  0.00  0.00    -0.256 NA
ENDBRANCH  11  15
BRANCH   1  21
ATOM     21  C   UNL     1       0.141   1.284   2.497  0.00  0.00    -0.032 C 
ATOM     22  C   UNL     1       0.380  -0.223   2.603  0.00  0.00    +0.011 C 
ATOM     23  C   UNL     1       1.483   2.006   2.357  0.00  0.00    +0.011 C 
BRANCH  21  25
ATOM     24  C   UNL     1       0.292   1.484   4.983  0.00  0.00    +0.004 C 
ATOM     25  C   UNL     1      -0.574   1.777   3.757  0.00  0.00    +0.003 C 
ENDBRANCH  21  25
ENDBRANCH   1  21
BRANCH   9  26
ATOM     26  O   UNL     1      -1.632   2.072  -4.001  0.00  0.00    -0.492 OA
ATOM     27  H   UNL     1      -1.532   2.238  -4.948  0.00  0.00    +0.294 HD
ENDBRANCH   9  26
TORSDOF 4
