REMARK  Name = ZINC00832353
REMARK  6 active torsions:
REMARK  status: ('A' for Active; 'I' for Inactive)
REMARK    1  A    between atoms: C_1  and  C_2
REMARK    2  A    between atoms: C_5  and  O_8
REMARK    3  A    between atoms: O_8  and  C_9
REMARK    4  A    between atoms: C_9  and  C_11
REMARK    5  A    between atoms: C_12  and  C_29
REMARK    6  A    between atoms: C_17  and  C_19
REMARK                            x       y       z     vdW  Elec       q    Type
REMARK                         _______ _______ _______ _____ _____    ______ ____
ROOT
ATOM      1  C   UNL     1       0.226  -4.737  -1.603  0.00  0.00    +0.078 C 
ATOM      2  C   UNL     1       1.025  -5.442  -2.432  0.00  0.00    +0.021 C 
ATOM      3  N   UNL     1       2.363  -5.565  -2.186  0.00  0.00    -0.273 N 
ATOM      4  C   UNL     1       2.978  -5.013  -1.132  0.00  0.00    +0.304 C 
ATOM      5  O   UNL     1       4.175  -5.179  -0.997  0.00  0.00    -0.252 OA
ATOM      6  N   UNL     1       2.314  -4.280  -0.218  0.00  0.00    -0.288 N 
ATOM      7  C   UNL     1       0.864  -4.087  -0.392  0.00  0.00    +0.145 C 
ATOM      8  C   UNL     1       0.431  -6.105  -3.648  0.00  0.00    +0.061 C 
ATOM      9  H   UNL     1       2.897  -6.081  -2.809  0.00  0.00    +0.156 HD
ATOM     10  H   UNL     1       2.780  -3.889   0.538  0.00  0.00    +0.151 HD
ENDROOT
BRANCH   7  11
ATOM     11  C   UNL     1       0.598  -2.606  -0.465  0.00  0.00    -0.005 A 
ATOM     12  C   UNL     1       1.510  -1.771  -1.085  0.00  0.00    +0.056 A 
ATOM     13  C   UNL     1       1.267  -0.409  -1.155  0.00  0.00    +0.167 A 
ATOM     14  C   UNL     1       0.103   0.117  -0.598  0.00  0.00    +0.167 A 
ATOM     15  C   UNL     1      -0.805  -0.724   0.022  0.00  0.00    +0.065 A 
ATOM     16  C   UNL     1      -0.557  -2.084   0.088  0.00  0.00    +0.027 A 
ATOM     17 BR   UNL     1      -1.799  -3.230   0.936  0.00  0.00    -0.050 Br
ATOM     18  O   UNL     1       0.098   1.468  -0.794  0.00  0.00    -0.453 OA
ATOM     19  C   UNL     1       1.458   1.815  -1.115  0.00  0.00    +0.466 C 
ATOM     20  O   UNL     1       1.990   0.612  -1.700  0.00  0.00    -0.453 OA
ENDBRANCH   7  11
BRANCH   1  21
ATOM     21  C   UNL     1      -1.160  -4.608  -1.857  0.00  0.00    +0.339 C 
ATOM     22  O   UNL     1      -1.957  -5.291  -1.241  0.00  0.00    -0.245 OA
BRANCH  21  23
ATOM     23  O   UNL     1      -1.597  -3.728  -2.781  0.00  0.00    -0.458 OA
BRANCH  23  28
ATOM     24  C   UNL     1      -2.533  -2.407  -7.041  0.00  0.00    +0.007 C 
ATOM     25  C   UNL     1      -3.197  -2.731  -5.702  0.00  0.00    -0.014 C 
ATOM     26  C   UNL     1      -2.658  -1.788  -4.624  0.00  0.00    +0.007 C 
ATOM     27  C   UNL     1      -3.322  -2.111  -3.284  0.00  0.00    +0.045 C 
ATOM     28  C   UNL     1      -3.011  -3.559  -2.897  0.00  0.00    +0.177 C 
ATOM     29  C   UNL     1      -3.551  -4.502  -3.975  0.00  0.00    +0.045 C 
ATOM     30  C   UNL     1      -2.887  -4.178  -5.315  0.00  0.00    +0.007 C 
ENDBRANCH  23  28
ENDBRANCH  21  23
ENDBRANCH   1  21
TORSDOF 4
