REMARK  Name = ZINC14475641
REMARK  8 active torsions:
REMARK  status: ('A' for Active; 'I' for Inactive)
REMARK    1  A    between atoms: C_1  and  O_2
REMARK    2  A    between atoms: O_2  and  C_3
REMARK    3  A    between atoms: C_6  and  N_9
REMARK    4  A    between atoms: N_9  and  S_10
REMARK    5  A    between atoms: S_10  and  C_13
REMARK    6  A    between atoms: C_26  and  C_29
REMARK    7  A    between atoms: C_31  and  N_36
REMARK    8  A    between atoms: C_34  and  O_35
REMARK                            x       y       z     vdW  Elec       q    Type
REMARK                         _______ _______ _______ _____ _____    ______ ____
ROOT
ATOM      1  C   UNL     1      -3.954  -5.142  -0.337  0.00  0.00    +0.109 A 
ATOM      2  C   UNL     1      -2.621  -5.140  -0.707  0.00  0.00    +0.030 A 
ATOM      3  C   UNL     1      -1.774  -6.117  -0.227  0.00  0.00    +0.025 A 
ATOM      4  C   UNL     1      -2.259  -7.103   0.630  0.00  0.00    +0.031 A 
ATOM      5  C   UNL     1      -3.589  -7.098   1.009  0.00  0.00    -0.018 A 
ATOM      6  C   UNL     1      -4.434  -6.112   0.519  0.00  0.00    +0.034 A 
ATOM      7  C   UNL     1      -4.157  -8.115   1.958  0.00  0.00    +0.049 C 
ATOM      8  C   UNL     1      -4.897  -7.366   3.055  0.00  0.00    -0.023 C 
ATOM      9  C   UNL     1      -4.175  -7.311   4.144  0.00  0.00    -0.030 C 
ATOM     10  C   UNL     1      -2.852  -8.022   3.952  0.00  0.00    +0.033 C 
ATOM     11  C   UNL     1      -3.084  -8.915   2.693  0.00  0.00    +0.029 C 
ATOM     12  C   UNL     1      -1.825  -9.187   1.926  0.00  0.00    +0.108 C 
ATOM     13  N   UNL     1      -1.390  -8.086   1.088  0.00  0.00    -0.336 N 
ATOM     14  H   UNL     1      -0.459  -8.047   0.818  0.00  0.00    +0.147 HD
ENDROOT
BRANCH  12  15
ATOM     15  C   UNL     1      -0.720  -9.473   2.909  0.00  0.00    +0.017 A 
ATOM     16  C   UNL     1       0.122  -8.457   3.319  0.00  0.00    +0.041 A 
ATOM     17  C   UNL     1       1.136  -8.719   4.221  0.00  0.00    +0.127 A 
ATOM     18  C   UNL     1       1.311  -9.998   4.716  0.00  0.00    +0.036 A 
ATOM     19  C   UNL     1       0.472 -11.018   4.310  0.00  0.00    +0.048 A 
ATOM     20  C   UNL     1      -0.550 -10.756   3.409  0.00  0.00    +0.122 A 
BRANCH  17  21
ATOM     21  N   UNL     1       2.036  -7.628   4.659  0.00  0.00    +0.056 N 
ATOM     22  O   UNL     1       1.884  -6.510   4.226  0.00  0.00    -0.126 OA
ATOM     23  O   UNL     1       2.923  -7.856   5.448  0.00  0.00    -0.126 OA
ENDBRANCH  17  21
BRANCH  20  24
ATOM     24  O   UNL     1      -1.379 -11.757   3.011  0.00  0.00    -0.506 OA
ATOM     25  H   UNL     1      -1.073 -12.234   2.228  0.00  0.00    +0.292 HD
ENDBRANCH  20  24
ENDBRANCH  12  15
BRANCH   1  26
ATOM     26  S   UNL     1      -5.039  -3.899  -0.955  0.00  0.00    +0.072 S 
ATOM     27  O   UNL     1      -6.361  -4.389  -0.776  0.00  0.00    -0.150 OA
ATOM     28  O   UNL     1      -4.535  -3.515  -2.227  0.00  0.00    -0.150 OA
BRANCH  26  29
ATOM     29  N   UNL     1      -4.886  -2.579   0.033  0.00  0.00    -0.216 N 
ATOM     30  H   UNL     1      -4.567  -1.737  -0.328  0.00  0.00    +0.174 HD
BRANCH  29  34
ATOM     31  C   UNL     1      -5.870  -2.874   4.072  0.00  0.00    +0.120 A 
ATOM     32  C   UNL     1      -4.689  -2.257   3.690  0.00  0.00    +0.047 A 
ATOM     33  C   UNL     1      -4.361  -2.159   2.352  0.00  0.00    +0.028 A 
ATOM     34  C   UNL     1      -5.216  -2.678   1.389  0.00  0.00    +0.048 A 
ATOM     35  C   UNL     1      -6.399  -3.296   1.772  0.00  0.00    +0.028 A 
ATOM     36  C   UNL     1      -6.722  -3.398   3.111  0.00  0.00    +0.047 A 
BRANCH  31  38
ATOM     37  C   UNL     1      -5.269  -2.408   6.326  0.00  0.00    +0.277 C 
ATOM     38  O   UNL     1      -6.192  -2.970   5.391  0.00  0.00    -0.495 OA
ENDBRANCH  31  38
ENDBRANCH  29  34
ENDBRANCH  26  29
ENDBRANCH   1  26
TORSDOF 7
