REMARK  Name = ZINC12241265
REMARK  8 active torsions:
REMARK  status: ('A' for Active; 'I' for Inactive)
REMARK    1  A    between atoms: C_1  and  C_2
REMARK    2  A    between atoms: C_2  and  O_3
REMARK    3  A    between atoms: O_3  and  C_4
REMARK    4  A    between atoms: C_6  and  N_32
REMARK    5  A    between atoms: C_19  and  C_20
REMARK    6  A    between atoms: C_19  and  N_69
REMARK    7  A    between atoms: C_25  and  C_26
REMARK    8  A    between atoms: C_33  and  C_35
REMARK                            x       y       z     vdW  Elec       q    Type
REMARK                         _______ _______ _______ _____ _____    ______ ____
ROOT
ATOM      1  C   UNL     1      -1.815   5.452   0.482  0.00  0.00    +0.153 C 
ATOM      2  C   UNL     1      -0.343   5.330   0.032  0.00  0.00    +0.133 C 
ATOM      3  C   UNL     1      -0.054   3.843   0.022  0.00  0.00    -0.021 A 
ATOM      4  C   UNL     1       1.153   3.165   0.008  0.00  0.00    +0.006 A 
ATOM      5  C   UNL     1       1.175   1.784   0.000  0.00  0.00    +0.000 A 
ATOM      6  C   UNL     1      -0.013   1.076   0.008  0.00  0.00    +0.000 A 
ATOM      7  C   UNL     1      -1.218   1.750   0.017  0.00  0.00    +0.004 A 
ATOM      8  C   UNL     1      -1.242   3.135   0.030  0.00  0.00    -0.034 A 
ATOM      9  C   UNL     1      -2.404   4.098   0.046  0.00  0.00    +0.021 C 
ATOM     10  C   UNL     1      -3.015   4.221  -1.348  0.00  0.00    -0.005 C 
ATOM     11  C   UNL     1      -4.204   5.183  -1.296  0.00  0.00    -0.077 C 
ATOM     12  C   UNL     1      -4.637   4.624   1.024  0.00  0.00    -0.077 C 
ATOM     13  C   UNL     1      -3.461   3.643   1.048  0.00  0.00    -0.005 C 
ATOM     14  N   UNL     1      -5.204   4.657  -0.342  0.00  0.00    +0.383 N 
ATOM     15  H   UNL     1      -5.459   3.702  -0.620  0.00  0.00    -0.081 HD
ENDROOT
BRANCH   2  16
ATOM     16  N   UNL     1      -0.173   5.889  -1.311  0.00  0.00    -0.299 N 
ATOM     17  C   UNL     1       1.043   6.298  -1.722  0.00  0.00    +0.280 C 
ATOM     18  O   UNL     1       2.001   6.202  -0.978  0.00  0.00    -0.267 OA
ATOM     19  H   UNL     1      -0.937   5.965  -1.905  0.00  0.00    +0.150 HD
BRANCH  17  20
ATOM     20  C   UNL     1       1.213   6.858  -3.067  0.00  0.00    +0.189 A 
ATOM     21  C   UNL     1       2.384   7.307  -3.607  0.00  0.00    +0.054 A 
ATOM     22  C   UNL     1       2.085   7.752  -4.905  0.00  0.00    +0.042 A 
ATOM     23  C   UNL     1       0.761   7.557  -5.097  0.00  0.00    +0.196 A 
ATOM     24  O   UNL     1       0.240   7.013  -3.990  0.00  0.00    -0.458 OA
ENDBRANCH  17  20
ENDBRANCH   2  16
BRANCH   1  25
ATOM     25  O   UNL     1      -1.902   5.617   1.899  0.00  0.00    -0.374 OA
BRANCH  25  27
ATOM     26  C   UNL     1      -2.002   7.036   3.852  0.00  0.00    +0.034 C 
ATOM     27  C   UNL     1      -1.907   6.981   2.326  0.00  0.00    +0.157 C 
ENDBRANCH  25  27
ENDBRANCH   1  25
BRANCH  14  28
ATOM     28  C   UNL     1      -6.416   5.502  -0.364  0.00  0.00    -0.039 C 
BRANCH  28  29
ATOM     29  C   UNL     1      -7.092   5.345  -1.702  0.00  0.00    -0.019 A 
ATOM     30  C   UNL     1      -7.021   6.210  -2.736  0.00  0.00    +0.107 A 
ATOM     31  N   UNL     1      -7.761   5.711  -3.749  0.00  0.00    -0.284 N 
ATOM     32  H   UNL     1      -7.893   6.137  -4.644  0.00  0.00    +0.188 HD
ATOM     33  N   UNL     1      -8.310   4.494  -3.329  0.00  0.00    -0.174 NA
ATOM     34  C   UNL     1      -7.906   4.266  -2.097  0.00  0.00    +0.094 A 
BRANCH  34  35
ATOM     35  C   UNL     1      -8.251   3.082  -1.270  0.00  0.00    +0.002 A 
ATOM     36  C   UNL     1      -7.316   2.553  -0.384  0.00  0.00    +0.010 A 
ATOM     37  C   UNL     1      -7.643   1.456   0.387  0.00  0.00    +0.001 A 
ATOM     38  C   UNL     1      -8.893   0.875   0.272  0.00  0.00    +0.000 A 
ATOM     39  C   UNL     1      -9.824   1.393  -0.611  0.00  0.00    +0.001 A 
ATOM     40  C   UNL     1      -9.508   2.493  -1.382  0.00  0.00    +0.010 A 
ENDBRANCH  34  35
ENDBRANCH  28  29
ENDBRANCH  14  28
TORSDOF 7
