REMARK  Name = ZINC65500600
REMARK  4 active torsions:
REMARK  status: ('A' for Active; 'I' for Inactive)
REMARK    1  A    between atoms: C_4  and  C_7
REMARK    2  A    between atoms: C_9  and  C_24
REMARK    3  A    between atoms: N_11  and  C_14
REMARK    4  A    between atoms: C_14  and  C_15
REMARK                            x       y       z     vdW  Elec       q    Type
REMARK                         _______ _______ _______ _____ _____    ______ ____
ROOT
ATOM      1  C   UNL     1       3.687  -1.008  -0.089  0.00  0.00    +0.069 C 
ATOM      2  C   UNL     1       4.112  -1.138   1.390  0.00  0.00    -0.040 C 
ATOM      3  N   UNL     1       4.869  -2.405   1.479  0.00  0.00    +0.393 N 
ATOM      4  C   UNL     1       4.910  -2.979   0.116  0.00  0.00    +0.006 C 
ATOM      5  N   UNL     1       3.730  -2.409  -0.589  0.00  0.00    -0.327 NA
ATOM      6  H   UNL     1       2.888  -2.907  -0.343  0.00  0.00    +0.120 HD
ATOM      7  H   UNL     1       4.402  -3.041   2.107  0.00  0.00    -0.079 HD
ENDROOT
BRANCH   1  11
ATOM      8  C   UNL     1      -0.269   0.574  -0.386  0.00  0.00    +0.000 A 
ATOM      9  C   UNL     1       0.822   1.405  -0.557  0.00  0.00    +0.000 A 
ATOM     10  C   UNL     1       2.102   0.893  -0.460  0.00  0.00    +0.005 A 
ATOM     11  C   UNL     1       2.291  -0.450  -0.193  0.00  0.00    -0.032 A 
ATOM     12  C   UNL     1       1.200  -1.281  -0.022  0.00  0.00    +0.005 A 
ATOM     13  C   UNL     1      -0.080  -0.769  -0.119  0.00  0.00    +0.000 A 
ENDBRANCH   1  11
BRANCH   2  14
ATOM     14  C   UNL     1       2.878  -1.194   2.291  0.00  0.00    +0.005 C 
ATOM     15  C   UNL     1       2.200   0.196   2.370  0.00  0.00    +0.032 C 
ATOM     16  C   UNL     1       1.811   0.283   3.867  0.00  0.00    +0.160 C 
ATOM     17  O   UNL     1       2.914  -0.359   4.541  0.00  0.00    -0.380 OA
ATOM     18  C   UNL     1       3.285  -1.501   3.745  0.00  0.00    +0.162 C 
ENDBRANCH   2  14
BRANCH   3  19
ATOM     19  C   UNL     1       6.235  -2.140   1.951  0.00  0.00    -0.043 C 
BRANCH  19  20
ATOM     20  C   UNL     1       6.969  -3.466   2.158  0.00  0.00    +0.139 C 
ATOM     21  C   UNL     1       8.432  -3.227   2.467  0.00  0.00    -0.023 C 
ATOM     22  C   UNL     1       9.091  -3.817   1.471  0.00  0.00    +0.064 C 
ATOM     23  C   UNL     1      10.586  -3.647   1.670  0.00  0.00    +0.057 C 
ATOM     24  C   UNL     1      10.727  -2.502   2.698  0.00  0.00    +0.011 C 
ATOM     25  C   UNL     1       9.380  -2.590   3.450  0.00  0.00    +0.035 C 
ATOM     26  N   UNL     1       8.207  -4.380   0.602  0.00  0.00    -0.159 NA
ATOM     27  N   UNL     1       7.018  -4.237   0.904  0.00  0.00    -0.181 NA
ENDBRANCH  19  20
ENDBRANCH   3  19
TORSDOF 4
