REMARK  Name = ZINC64197441
REMARK  9 active torsions:
REMARK  status: ('A' for Active; 'I' for Inactive)
REMARK    1  A    between atoms: C_1  and  C_2
REMARK    2  A    between atoms: C_2  and  C_3
REMARK    3  A    between atoms: C_2  and  C_4
REMARK    4  A    between atoms: C_4  and  C_6
REMARK    5  A    between atoms: C_4  and  N_15
REMARK    6  A    between atoms: C_16  and  C_18
REMARK    7  A    between atoms: C_18  and  S_19
REMARK    8  A    between atoms: S_19  and  C_20
REMARK    9  A    between atoms: N_25  and  C_26
REMARK                            x       y       z     vdW  Elec       q    Type
REMARK                         _______ _______ _______ _____ _____    ______ ____
ROOT
ATOM      1  N   UNL     1       0.538  -1.891  -1.249  0.00  0.00    -0.308 N 
ATOM      2  C   UNL     1       1.416  -2.683  -0.603  0.00  0.00    +0.223 C 
ATOM      3  O   UNL     1       2.353  -2.193  -0.010  0.00  0.00    -0.275 OA
ATOM      4  H   UNL     1      -0.212  -2.283  -1.724  0.00  0.00    +0.149 HD
ENDROOT
BRANCH   1   5
ATOM      5  C   UNL     1       0.715  -0.436  -1.234  0.00  0.00    +0.118 C 
BRANCH   5   6
ATOM      6  C   UNL     1       0.041   0.172  -2.465  0.00  0.00    +0.195 C 
ATOM      7  N   UNL     1       0.707  -0.296  -3.688  0.00  0.00    -0.362 N 
ATOM      8  C   UNL     1       1.178   0.750  -4.302  0.00  0.00    +0.060 A 
ATOM      9  C   UNL     1       1.928   0.920  -5.554  0.00  0.00    +0.027 A 
ATOM     10  C   UNL     1       2.291   2.157  -5.949  0.00  0.00    +0.002 A 
ATOM     11  C   UNL     1       1.981   3.311  -5.208  0.00  0.00    +0.002 A 
ATOM     12  C   UNL     1       1.297   3.267  -4.046  0.00  0.00    +0.027 A 
ATOM     13  C   UNL     1       0.849   1.972  -3.518  0.00  0.00    +0.060 A 
ATOM     14  N   UNL     1       0.187   1.633  -2.449  0.00  0.00    -0.362 N 
ATOM     15  H   UNL     1       0.782  -1.217  -3.983  0.00  0.00    +0.162 HD
ATOM     16  H   UNL     1      -0.148   2.236  -1.767  0.00  0.00    +0.162 HD
ENDBRANCH   5   6
BRANCH   5  18
ATOM     17  C   UNL     1      -1.378  -0.312   0.125  0.00  0.00    +0.009 C 
ATOM     18  C   UNL     1       0.081   0.141   0.033  0.00  0.00    +0.007 C 
ATOM     19  C   UNL     1       0.848  -0.356   1.260  0.00  0.00    +0.009 C 
ENDBRANCH   5  18
ENDBRANCH   1   5
BRANCH   2  20
ATOM     20  C   UNL     1       1.233  -4.179  -0.619  0.00  0.00    +0.168 C 
BRANCH  20  21
ATOM     21  S   UNL     1       2.566  -4.961   0.331  0.00  0.00    -0.103 S 
BRANCH  21  22
ATOM     22  C   UNL     1       2.205  -6.735   0.216  0.00  0.00    +0.294 C 
ATOM     23  N   UNL     1       2.141  -7.153  -1.190  0.00  0.00    -0.135 NA
ATOM     24  N   UNL     1       1.018  -7.592  -1.442  0.00  0.00    -0.066 NA
ATOM     25  N   UNL     1       0.162  -7.561  -0.340  0.00  0.00    -0.164 N 
ATOM     26  N   UNL     1       0.864  -7.022   0.757  0.00  0.00    -0.199 N 
ATOM     27  H   UNL     1      -0.761  -7.860  -0.331  0.00  0.00    +0.195 HD
BRANCH  26  28
ATOM     28  C   UNL     1       0.398  -6.810   2.058  0.00  0.00    +0.087 A 
ATOM     29  C   UNL     1       0.480  -5.547   2.629  0.00  0.00    +0.028 A 
ATOM     30  C   UNL     1       0.018  -5.339   3.914  0.00  0.00    +0.002 A 
ATOM     31  C   UNL     1      -0.525  -6.387   4.634  0.00  0.00    +0.003 A 
ATOM     32  C   UNL     1      -0.609  -7.647   4.070  0.00  0.00    +0.040 A 
ATOM     33  C   UNL     1      -0.155  -7.861   2.781  0.00  0.00    +0.146 A 
ATOM     34  F   UNL     1      -0.242  -9.091   2.228  0.00  0.00    -0.203 F 
ENDBRANCH  26  28
ENDBRANCH  21  22
ENDBRANCH  20  21
ENDBRANCH   2  20
TORSDOF 7
