REMARK  Name = ZINC07739854
REMARK  8 active torsions:
REMARK  status: ('A' for Active; 'I' for Inactive)
REMARK    1  A    between atoms: C_1  and  C_2
REMARK    2  A    between atoms: C_5  and  C_8
REMARK    3  A    between atoms: C_8  and  C_10
REMARK    4  A    between atoms: C_8  and  N_15
REMARK    5  A    between atoms: C_16  and  C_18
REMARK    6  A    between atoms: C_21  and  O_27
REMARK    7  A    between atoms: C_22  and  N_24
REMARK    8  A    between atoms: O_27  and  C_28
REMARK                            x       y       z     vdW  Elec       q    Type
REMARK                         _______ _______ _______ _____ _____    ______ ____
ROOT
ATOM      1  N   UNL     1      -3.479   1.643  -0.860  0.00  0.00    -0.300 N 
ATOM      2  C   UNL     1      -4.480   0.935  -1.419  0.00  0.00    +0.245 C 
ATOM      3  O   UNL     1      -4.582  -0.255  -1.193  0.00  0.00    -0.270 OA
ATOM      4  H   UNL     1      -3.397   2.593  -1.041  0.00  0.00    +0.150 HD
ENDROOT
BRANCH   2   5
ATOM      5  C   UNL     1      -5.452   1.604  -2.305  0.00  0.00    +0.039 A 
ATOM      6  C   UNL     1      -5.340   2.973  -2.562  0.00  0.00    +0.017 A 
ATOM      7  C   UNL     1      -6.247   3.592  -3.393  0.00  0.00    +0.049 A 
ATOM      8  C   UNL     1      -7.278   2.860  -3.969  0.00  0.00    +0.150 A 
ATOM      9  C   UNL     1      -7.396   1.499  -3.712  0.00  0.00    +0.168 A 
ATOM     10  C   UNL     1      -6.491   0.871  -2.885  0.00  0.00    +0.049 A 
BRANCH   9  11
ATOM     11  N   UNL     1      -8.497   0.724  -4.327  0.00  0.00    +0.060 N 
ATOM     12  O   UNL     1      -8.601  -0.469  -4.102  0.00  0.00    -0.126 OA
ATOM     13  O   UNL     1      -9.299   1.278  -5.057  0.00  0.00    -0.126 OA
ENDBRANCH   9  11
BRANCH   8  14
ATOM     14  O   UNL     1      -8.172   3.475  -4.784  0.00  0.00    -0.493 OA
ATOM     15  C   UNL     1      -7.992   4.875  -5.005  0.00  0.00    +0.277 C 
ENDBRANCH   8  14
ENDBRANCH   2   5
BRANCH   1  16
ATOM     16  C   UNL     1      -2.514   0.980   0.019  0.00  0.00    +0.140 C 
BRANCH  16  21
ATOM     17  C   UNL     1       2.451   3.937   0.000  0.00  0.00    +0.044 C 
ATOM     18  C   UNL     1       1.156   3.165   0.008  0.00  0.00    -0.050 A 
ATOM     19  C   UNL     1       1.175   1.783   0.000  0.00  0.00    +0.004 A 
ATOM     20  C   UNL     1      -0.013   1.076   0.008  0.00  0.00    +0.006 A 
ATOM     21  C   UNL     1      -1.219   1.751   0.017  0.00  0.00    -0.022 A 
ATOM     22  C   UNL     1      -1.238   3.133   0.029  0.00  0.00    +0.006 A 
ATOM     23  C   UNL     1      -0.050   3.840   0.022  0.00  0.00    +0.004 A 
ENDBRANCH  16  21
BRANCH  16  24
ATOM     24  C   UNL     1      -3.065   0.927   1.421  0.00  0.00    +0.014 A 
ATOM     25  C   UNL     1      -2.997  -0.078   2.328  0.00  0.00    +0.013 A 
ATOM     26  C   UNL     1      -3.581   0.097   3.568  0.00  0.00    +0.008 A 
ATOM     27  C   UNL     1      -4.205   1.269   3.841  0.00  0.00    +0.045 A 
ATOM     28  S   UNL     1      -3.970   2.175   2.321  0.00  0.00    -0.099 S 
ENDBRANCH  16  24
ENDBRANCH   1  16
TORSDOF 6
