REMARK  Name = ZINC45292476
REMARK  9 active torsions:
REMARK  status: ('A' for Active; 'I' for Inactive)
REMARK    1  A    between atoms: C_4  and  C_7
REMARK    2  A    between atoms: C_12  and  N_23
REMARK    3  A    between atoms: C_14  and  C_16
REMARK    4  A    between atoms: C_16  and  N_17
REMARK    5  A    between atoms: N_23  and  C_24
REMARK    6  A    between atoms: C_24  and  C_25
REMARK    7  A    between atoms: C_25  and  C_27
REMARK    8  A    between atoms: C_25  and  O_36
REMARK    9  A    between atoms: C_30  and  N_33
REMARK                            x       y       z     vdW  Elec       q    Type
REMARK                         _______ _______ _______ _____ _____    ______ ____
ROOT
ATOM      1  C   UNL     1       3.716  -0.655  -0.012  0.00  0.00    +0.002 A 
ATOM      2  C   UNL     1       4.643  -0.385  -0.961  0.00  0.00    +0.056 A 
ATOM      3  S   UNL     1       5.983  -1.490  -0.560  0.00  0.00    -0.076 S 
ATOM      4  C   UNL     1       5.278  -2.284   0.859  0.00  0.00    +0.114 A 
ATOM      5  C   UNL     1       4.016  -1.669   0.994  0.00  0.00    +0.055 A 
ATOM      6  C   UNL     1       3.227  -2.127   2.082  0.00  0.00    +0.131 A 
ATOM      7  N   UNL     1       3.708  -3.069   2.878  0.00  0.00    -0.216 NA
ATOM      8  C   UNL     1       4.904  -3.600   2.695  0.00  0.00    +0.146 A 
ATOM      9  N   UNL     1       5.678  -3.221   1.697  0.00  0.00    -0.223 NA
ENDROOT
BRANCH   1  13
ATOM     10  C   UNL     1       0.008   1.422   0.045  0.00  0.00    +0.000 A 
ATOM     11  C   UNL     1       0.858   1.500   1.133  0.00  0.00    +0.001 A 
ATOM     12  C   UNL     1       2.063   0.828   1.121  0.00  0.00    +0.008 A 
ATOM     13  C   UNL     1       2.423   0.069   0.008  0.00  0.00    -0.017 A 
ATOM     14  C   UNL     1       1.562  -0.006  -1.086  0.00  0.00    +0.008 A 
ATOM     15  C   UNL     1       0.359   0.670  -1.062  0.00  0.00    +0.001 A 
ENDBRANCH   1  13
BRANCH   6  16
ATOM     16  N   UNL     1       1.969  -1.596   2.308  0.00  0.00    -0.326 N 
ATOM     17  H   UNL     1       1.587  -0.970   1.673  0.00  0.00    +0.148 HD
BRANCH  16  18
ATOM     18  C   UNL     1       1.216  -1.978   3.505  0.00  0.00    +0.139 C 
BRANCH  18  19
ATOM     19  C   UNL     1      -0.131  -1.254   3.512  0.00  0.00    +0.161 C 
BRANCH  19  20
ATOM     20  C   UNL     1      -0.906  -1.647   4.744  0.00  0.00    -0.018 A 
ATOM     21  C   UNL     1      -0.696  -0.978   5.935  0.00  0.00    +0.008 A 
ATOM     22  C   UNL     1      -1.406  -1.338   7.065  0.00  0.00    +0.033 A 
ATOM     23  C   UNL     1      -2.327  -2.367   7.003  0.00  0.00    +0.126 A 
ATOM     24  C   UNL     1      -2.538  -3.036   5.811  0.00  0.00    +0.033 A 
ATOM     25  C   UNL     1      -1.831  -2.672   4.681  0.00  0.00    +0.008 A 
BRANCH  23  26
ATOM     26  N   UNL     1      -3.087  -2.754   8.213  0.00  0.00    +0.056 N 
ATOM     27  O   UNL     1      -2.903  -2.170   9.255  0.00  0.00    -0.126 OA
ATOM     28  O   UNL     1      -3.893  -3.654   8.159  0.00  0.00    -0.126 OA
ENDBRANCH  23  26
ENDBRANCH  19  20
BRANCH  19  29
ATOM     29  O   UNL     1       0.087   0.159   3.517  0.00  0.00    -0.386 OA
ATOM     30  H   UNL     1       0.586   0.477   4.282  0.00  0.00    +0.210 HD
ENDBRANCH  19  29
ENDBRANCH  18  19
ENDBRANCH  16  18
ENDBRANCH   6  16
BRANCH   8  31
ATOM     31  C   UNL     1       5.388  -4.668   3.641  0.00  0.00    +0.160 C 
BRANCH  31  32
ATOM     32  N   UNL     1       4.989  -5.988   3.135  0.00  0.00    -0.291 NA
ATOM     33  C   UNL     1       3.528  -6.143   3.162  0.00  0.00    +0.113 C 
ATOM     34  C   UNL     1       3.153  -7.505   2.573  0.00  0.00    +0.175 C 
ATOM     35  O   UNL     1       3.821  -8.536   3.305  0.00  0.00    -0.377 OA
ATOM     36  C   UNL     1       5.246  -8.416   3.299  0.00  0.00    +0.175 C 
ATOM     37  C   UNL     1       5.642  -7.063   3.896  0.00  0.00    +0.113 C 
ENDBRANCH  31  32
ENDBRANCH   8  31
TORSDOF 9
