REMARK  Name = ZINC09325581
REMARK  8 active torsions:
REMARK  status: ('A' for Active; 'I' for Inactive)
REMARK    1  A    between atoms: C_1  and  C_2
REMARK    2  A    between atoms: C_2  and  O_3
REMARK    3  A    between atoms: O_3  and  C_4
REMARK    4  A    between atoms: C_7  and  C_9
REMARK    5  A    between atoms: C_13  and  N_14
REMARK    6  A    between atoms: C_15  and  C_17
REMARK    7  A    between atoms: C_27  and  O_29
REMARK    8  A    between atoms: O_29  and  C_30
REMARK                            x       y       z     vdW  Elec       q    Type
REMARK                         _______ _______ _______ _____ _____    ______ ____
ROOT
ATOM      1  C   UNL     1       3.636   1.755  -0.023  0.00  0.00    +0.069 A 
ATOM      2  C   UNL     1       4.749   0.819  -0.041  0.00  0.00    -0.020 A 
ATOM      3  C   UNL     1       4.398  -0.486  -0.041  0.00  0.00    +0.013 A 
ATOM      4  S   UNL     1       2.629  -0.484  -0.018  0.00  0.00    -0.076 S 
ATOM      5  C   UNL     1       2.352   1.227  -0.014  0.00  0.00    +0.085 A 
ATOM      6  C   UNL     1       5.324  -1.665  -0.052  0.00  0.00    +0.153 C 
ATOM      7  N   UNL     1       6.684  -1.148  -0.300  0.00  0.00    -0.262 N 
ATOM      8  C   UNL     1       7.083   0.080   0.406  0.00  0.00    +0.116 C 
ATOM      9  C   UNL     1       6.211   1.246  -0.063  0.00  0.00    +0.056 C 
ATOM     10  C   UNL     1       7.529  -1.777  -1.141  0.00  0.00    +0.403 C 
ATOM     11  O   UNL     1       8.644  -1.332  -1.327  0.00  0.00    -0.226 OA
ENDROOT
BRANCH   1  15
ATOM     12  C   UNL     1       4.163   5.207  -1.172  0.00  0.00    +0.407 C 
ATOM     13  O   UNL     1       4.267   5.801  -0.117  0.00  0.00    -0.226 OA
ATOM     14  N   UNL     1       3.955   3.876  -1.179  0.00  0.00    -0.217 N 
ATOM     15  C   UNL     1       3.862   3.202  -0.016  0.00  0.00    +0.255 C 
ATOM     16  O   UNL     1       3.966   3.796   1.041  0.00  0.00    -0.270 OA
ATOM     17  H   UNL     1       3.872   3.402  -2.022  0.00  0.00    +0.161 HD
BRANCH  12  18
ATOM     18  O   UNL     1       4.255   5.880  -2.334  0.00  0.00    -0.450 OA
BRANCH  18  20
ATOM     19  C   UNL     1       4.556   7.900  -3.662  0.00  0.00    +0.048 C 
ATOM     20  C   UNL     1       4.480   7.312  -2.251  0.00  0.00    +0.230 C 
ENDBRANCH  18  20
ENDBRANCH  12  18
ENDBRANCH   1  15
BRANCH   5  21
ATOM     21  N   UNL     1       1.143   1.903   0.001  0.00  0.00    -0.275 N 
ATOM     22  C   UNL     1      -0.014   1.213   0.009  0.00  0.00    +0.255 C 
ATOM     23  O   UNL     1       0.002  -0.004   0.002  0.00  0.00    -0.269 OA
ATOM     24  H   UNL     1       1.130   2.873   0.007  0.00  0.00    +0.156 HD
BRANCH  22  25
ATOM     25  C   UNL     1      -1.292   1.928   0.019  0.00  0.00    +0.075 A 
ATOM     26  C   UNL     1      -2.581   1.415   0.022  0.00  0.00    +0.022 A 
ATOM     27  C   UNL     1      -3.613   2.318   0.033  0.00  0.00    +0.024 A 
ATOM     28  C   UNL     1      -3.331   3.649   0.039  0.00  0.00    +0.056 A 
ATOM     29  S   UNL     1      -1.597   3.686   0.038  0.00  0.00    -0.077 S 
ATOM     30 BR   UNL     1      -4.536   5.106   0.054  0.00  0.00    -0.043 Br
ENDBRANCH  22  25
ENDBRANCH   5  21
BRANCH  10  31
ATOM     31  O   UNL     1       7.138  -2.899  -1.773  0.00  0.00    -0.454 OA
ATOM     32  C   UNL     1       8.100  -3.523  -2.664  0.00  0.00    +0.282 C 
ENDBRANCH  10  31
TORSDOF 6
