REMARK  Name = ZINC33702871
REMARK  15 active torsions:
REMARK  status: ('A' for Active; 'I' for Inactive)
REMARK    1  A    between atoms: C_1  and  C_2
REMARK    2  A    between atoms: C_2  and  C_3
REMARK    3  A    between atoms: C_2  and  C_4
REMARK    4  A    between atoms: C_2  and  N_5
REMARK    5  A    between atoms: N_5  and  C_6
REMARK    6  A    between atoms: C_6  and  C_7
REMARK    7  A    between atoms: C_7  and  C_9
REMARK    8  A    between atoms: C_7  and  O_29
REMARK    9  A    between atoms: C_9  and  S_10
REMARK   10  A    between atoms: S_10  and  C_11
REMARK   11  A    between atoms: C_11  and  C_13
REMARK   12  A    between atoms: C_11  and  C_23
REMARK   13  A    between atoms: C_13  and  C_14
REMARK   14  A    between atoms: C_14  and  C_16
REMARK   15  A    between atoms: C_14  and  O_22
REMARK                            x       y       z     vdW  Elec       q    Type
REMARK                         _______ _______ _______ _____ _____    ______ ____
ROOT
ATOM      1  C   UNL     1      -0.735   2.019   1.269  0.00  0.00    +0.079 C 
ENDROOT
BRANCH   1   2
ATOM      2  C   UNL     1      -0.648   3.522   1.340  0.00  0.00    -0.034 A 
ATOM      3  C   UNL     1      -1.180   4.294   0.324  0.00  0.00    +0.005 A 
ATOM      4  C   UNL     1      -1.104   5.672   0.391  0.00  0.00    +0.000 A 
ATOM      5  C   UNL     1      -0.489   6.279   1.469  0.00  0.00    +0.000 A 
ATOM      6  C   UNL     1       0.047   5.507   2.483  0.00  0.00    +0.000 A 
ATOM      7  C   UNL     1      -0.032   4.129   2.418  0.00  0.00    +0.005 A 
ENDBRANCH   1   2
BRANCH   1   8
ATOM      8  S   UNL     1      -2.477   1.516   1.210  0.00  0.00    -0.150 S 
BRANCH   8   9
ATOM      9  C   UNL     1      -3.138   2.035   2.818  0.00  0.00    +0.099 C 
BRANCH   9  10
ATOM     10  C   UNL     1      -4.620   1.665   2.903  0.00  0.00    +0.107 C 
BRANCH  10  11
ATOM     11  O   UNL     1      -4.759   0.243   2.879  0.00  0.00    -0.393 OA
ATOM     12  H   UNL     1      -4.391  -0.330   2.015  0.00  0.00    +0.210 HD
ENDBRANCH  10  11
BRANCH  10  13
ATOM     13  C   UNL     1      -5.208   2.213   4.205  0.00  0.00    -0.049 C 
BRANCH  13  14
ATOM     14  N   UNL     1      -6.631   1.858   4.287  0.00  0.00    +0.384 N 
ATOM     15  H   UNL     1      -6.724   0.762   4.259  0.00  0.00    -0.085 HD
ATOM     16  H   UNL     1      -7.153   2.293   3.422  0.00  0.00    -0.085 HD
BRANCH  14  18
ATOM     17  C   UNL     1      -7.102   3.893   5.566  0.00  0.00    -0.011 C 
ATOM     18  C   UNL     1      -7.231   2.369   5.527  0.00  0.00    -0.077 C 
ATOM     19  C   UNL     1      -8.710   1.980   5.576  0.00  0.00    -0.011 C 
ATOM     20  C   UNL     1      -6.505   1.764   6.731  0.00  0.00    -0.011 C 
ENDBRANCH  14  18
ENDBRANCH  13  14
ENDBRANCH  10  13
ENDBRANCH   9  10
ENDBRANCH   8   9
ENDBRANCH   1   8
BRANCH   1  21
ATOM     21  C   UNL     1      -0.019   1.526   0.010  0.00  0.00    +0.055 C 
BRANCH  21  22
ATOM     22  C   UNL     1       0.002  -0.004   0.002  0.00  0.00    +0.146 C 
BRANCH  22  23
ATOM     23  C   UNL     1       0.597  -0.491  -1.294  0.00  0.00    -0.019 A 
ATOM     24  C   UNL     1       1.969  -0.599  -1.428  0.00  0.00    +0.006 A 
ATOM     25  C   UNL     1       2.514  -1.050  -2.615  0.00  0.00    +0.000 A 
ATOM     26  C   UNL     1       1.688  -1.384  -3.672  0.00  0.00    +0.000 A 
ATOM     27  C   UNL     1       0.317  -1.272  -3.540  0.00  0.00    +0.000 A 
ATOM     28  C   UNL     1      -0.229  -0.825  -2.351  0.00  0.00    +0.006 A 
ENDBRANCH  22  23
BRANCH  22  29
ATOM     29  O   UNL     1       0.792  -0.476   1.096  0.00  0.00    -0.387 OA
ATOM     30  H   UNL     1       0.923  -1.556   1.253  0.00  0.00    +0.210 HD
ENDBRANCH  22  29
ENDBRANCH  21  22
ENDBRANCH   1  21
TORSDOF 12
