REMARK  Name = ZINC36058194
REMARK  13 active torsions:
REMARK  status: ('A' for Active; 'I' for Inactive)
REMARK    1  A    between atoms: C_1  and  C_2
REMARK    2  A    between atoms: C_2  and  C_3
REMARK    3  A    between atoms: C_2  and  C_4
REMARK    4  A    between atoms: C_2  and  N_5
REMARK    5  A    between atoms: N_8  and  C_9
REMARK    6  A    between atoms: N_8  and  C_13
REMARK    7  A    between atoms: C_9  and  C_10
REMARK    8  A    between atoms: C_10  and  O_11
REMARK    9  A    between atoms: O_11  and  C_12
REMARK   10  A    between atoms: C_13  and  C_14
REMARK   11  A    between atoms: C_19  and  C_32
REMARK   12  A    between atoms: N_21  and  C_22
REMARK   13  A    between atoms: C_25  and  C_28
REMARK                            x       y       z     vdW  Elec       q    Type
REMARK                         _______ _______ _______ _____ _____    ______ ____
ROOT
ATOM      1  C   UNL     1       4.909  -1.223  -2.162  0.00  0.00    +0.237 C 
ATOM      2  O   UNL     1       4.439  -2.175  -1.577  0.00  0.00    -0.274 OA
ATOM      3  N   UNL     1       6.246  -1.085  -2.261  0.00  0.00    -0.254 N 
ATOM      4  C   UNL     1       7.085  -2.034  -1.693  0.00  0.00    +0.207 A 
ATOM      5  N   UNL     1       6.699  -3.104  -1.044  0.00  0.00    -0.214 NA
ATOM      6  C   UNL     1       7.786  -3.793  -0.634  0.00  0.00    +0.091 A 
ATOM      7  C   UNL     1       8.890  -3.121  -1.048  0.00  0.00    +0.122 A 
ATOM      8  N   UNL     1       8.448  -2.009  -1.723  0.00  0.00    -0.287 N 
ATOM      9  H   UNL     1       6.622  -0.323  -2.729  0.00  0.00    +0.158 HD
ENDROOT
BRANCH   8  10
ATOM     10  C   UNL     1       9.249  -1.030  -2.327  0.00  0.00    +0.049 A 
ATOM     11  C   UNL     1       9.001  -0.638  -3.635  0.00  0.00    +0.027 A 
ATOM     12  C   UNL     1       9.792   0.327  -4.228  0.00  0.00    +0.014 A 
ATOM     13  C   UNL     1      10.830   0.902  -3.519  0.00  0.00    +0.055 A 
ATOM     14  C   UNL     1      11.080   0.514  -2.216  0.00  0.00    +0.014 A 
ATOM     15  C   UNL     1      10.289  -0.446  -1.616  0.00  0.00    +0.027 A 
BRANCH  13  16
ATOM     16  C   UNL     1      11.692   1.954  -4.169  0.00  0.00    +0.417 C 
ATOM     17  F   UNL     1      11.141   3.219  -3.934  0.00  0.00    -0.166 F 
ATOM     18  F   UNL     1      12.981   1.900  -3.629  0.00  0.00    -0.166 F 
ATOM     19  F   UNL     1      11.753   1.721  -5.547  0.00  0.00    -0.166 F 
ENDBRANCH  13  16
ENDBRANCH   8  10
BRANCH   6  20
ATOM     20  C   UNL     1       7.775  -5.063   0.133  0.00  0.00    +0.002 A 
ATOM     21  C   UNL     1       8.975  -5.669   0.499  0.00  0.00    +0.010 A 
ATOM     22  C   UNL     1       8.959  -6.850   1.213  0.00  0.00    +0.001 A 
ATOM     23  C   UNL     1       7.754  -7.432   1.565  0.00  0.00    +0.000 A 
ATOM     24  C   UNL     1       6.560  -6.835   1.204  0.00  0.00    +0.001 A 
ATOM     25  C   UNL     1       6.564  -5.650   0.495  0.00  0.00    +0.010 A 
ENDBRANCH   6  20
BRANCH   1  26
ATOM     26  C   UNL     1       3.998  -0.193  -2.779  0.00  0.00    +0.205 C 
BRANCH  26  30
ATOM     27  N   UNL     1       0.688  -0.476  -1.203  0.00  0.00    -0.294 N 
ATOM     28  C   UNL     1       1.972  -0.132  -1.427  0.00  0.00    +0.303 C 
ATOM     29  O   UNL     1       2.561   0.570  -0.628  0.00  0.00    -0.253 OA
ATOM     30  N   UNL     1       2.602  -0.567  -2.536  0.00  0.00    -0.275 N 
ATOM     31  H   UNL     1       0.218  -1.037  -1.840  0.00  0.00    +0.151 HD
BRANCH  27  33
ATOM     32  C   UNL     1      -0.019   1.526   0.010  0.00  0.00    +0.031 C 
ATOM     33  C   UNL     1       0.002  -0.004   0.002  0.00  0.00    +0.028 C 
ATOM     34  C   UNL     1       0.742  -0.511   1.242  0.00  0.00    +0.031 C 
ATOM     35  C   UNL     1      -1.433  -0.534   0.013  0.00  0.00    +0.031 C 
ENDBRANCH  27  33
BRANCH  30  36
ATOM     36  C   UNL     1       1.893  -1.414  -3.498  0.00  0.00    +0.138 C 
BRANCH  36  37
ATOM     37  C   UNL     1       1.206  -0.532  -4.544  0.00  0.00    +0.178 C 
BRANCH  37  38
ATOM     38  O   UNL     1       2.196   0.160  -5.307  0.00  0.00    -0.381 OA
ATOM     39  C   UNL     1       1.658   1.015  -6.318  0.00  0.00    +0.194 C 
ENDBRANCH  37  38
ENDBRANCH  36  37
ENDBRANCH  30  36
ENDBRANCH  26  30
ENDBRANCH   1  26
TORSDOF 9
