REMARK  Name = ZINC12756567
REMARK  7 active torsions:
REMARK  status: ('A' for Active; 'I' for Inactive)
REMARK    1  A    between atoms: C_1  and  C_2
REMARK    2  A    between atoms: C_2  and  N_3
REMARK    3  A    between atoms: N_3  and  C_4
REMARK    4  A    between atoms: N_3  and  S_10
REMARK    5  A    between atoms: S_10  and  C_13
REMARK    6  A    between atoms: C_16  and  S_19
REMARK    7  A    between atoms: S_19  and  N_22
REMARK                            x       y       z     vdW  Elec       q    Type
REMARK                         _______ _______ _______ _____ _____    ______ ____
ROOT
ATOM      1  C   UNL     1       5.859   0.859   0.496  0.00  0.00    +0.109 A 
ATOM      2  C   UNL     1       5.528   2.150   0.862  0.00  0.00    +0.031 A 
ATOM      3  C   UNL     1       6.246   2.793   1.853  0.00  0.00    +0.030 A 
ATOM      4  C   UNL     1       7.301   2.149   2.472  0.00  0.00    +0.106 A 
ATOM      5  C   UNL     1       7.635   0.859   2.102  0.00  0.00    +0.030 A 
ATOM      6  C   UNL     1       6.914   0.214   1.114  0.00  0.00    +0.031 A 
ENDROOT
BRANCH   1   7
ATOM      7  S   UNL     1       4.941   0.036  -0.763  0.00  0.00    +0.075 S 
ATOM      8  O   UNL     1       5.840  -0.857  -1.404  0.00  0.00    -0.150 OA
ATOM      9  O   UNL     1       4.232   1.044  -1.472  0.00  0.00    -0.150 OA
BRANCH   7  10
ATOM     10  N   UNL     1       3.803  -0.899  -0.007  0.00  0.00    -0.203 N 
BRANCH  10  11
ATOM     11  C   UNL     1       2.535  -0.377   0.261  0.00  0.00    +0.051 A 
ATOM     12  C   UNL     1       1.444  -1.227   0.383  0.00  0.00    +0.025 A 
ATOM     13  C   UNL     1       0.192  -0.708   0.648  0.00  0.00    +0.002 A 
ATOM     14  C   UNL     1       0.024   0.657   0.791  0.00  0.00    +0.000 A 
ATOM     15  C   UNL     1       1.109   1.507   0.670  0.00  0.00    +0.002 A 
ATOM     16  C   UNL     1       2.363   0.994   0.406  0.00  0.00    +0.025 A 
ENDBRANCH  10  11
BRANCH  10  18
ATOM     17  C   UNL     1       3.659  -3.236  -0.714  0.00  0.00    +0.026 C 
ATOM     18  C   UNL     1       4.125  -2.275   0.381  0.00  0.00    +0.128 C 
ENDBRANCH  10  18
ENDBRANCH   7  10
ENDBRANCH   1   7
BRANCH   4  19
ATOM     19  S   UNL     1       8.219   2.970   3.731  0.00  0.00    +0.061 S 
ATOM     20  O   UNL     1       7.363   3.967   4.272  0.00  0.00    -0.153 OA
ATOM     21  O   UNL     1       8.808   1.955   4.532  0.00  0.00    -0.153 OA
BRANCH  19  22
ATOM     22  N   UNL     1       9.464   3.769   2.987  0.00  0.00    -0.177 NA
ATOM     23  C   UNL     1      10.762   3.111   2.788  0.00  0.00    +0.109 C 
ATOM     24  C   UNL     1      11.134   3.203   1.300  0.00  0.00    +0.017 C 
ATOM     25  C   UNL     1      11.099   4.669   0.861  0.00  0.00    +0.003 C 
ATOM     26  C   UNL     1       9.683   5.222   1.039  0.00  0.00    +0.017 C 
ATOM     27  C   UNL     1       9.293   5.151   2.519  0.00  0.00    +0.109 C 
ENDBRANCH  19  22
ENDBRANCH   4  19
TORSDOF 6
