REMARK  Name = ZINC34750135
REMARK  11 active torsions:
REMARK  status: ('A' for Active; 'I' for Inactive)
REMARK    1  A    between atoms: C_1  and  C_2
REMARK    2  A    between atoms: C_5  and  C_35
REMARK    3  A    between atoms: C_6  and  C_8
REMARK    4  A    between atoms: C_8  and  S_9
REMARK    5  A    between atoms: S_9  and  C_10
REMARK    6  A    between atoms: C_21  and  C_23
REMARK    7  A    between atoms: C_21  and  C_24
REMARK    8  A    between atoms: N_28  and  C_31
REMARK    9  A    between atoms: C_31  and  C_32
REMARK   10  A    between atoms: C_32  and  C_33
REMARK   11  A    between atoms: C_32  and  C_34
REMARK                            x       y       z     vdW  Elec       q    Type
REMARK                         _______ _______ _______ _____ _____    ______ ____
ROOT
ATOM      1  C   UNL     1       1.919  -3.380   4.361  0.00  0.00    +0.191 A 
ATOM      2  N   UNL     1       2.954  -3.876   5.030  0.00  0.00    -0.206 NA
ATOM      3  C   UNL     1       2.801  -4.702   6.051  0.00  0.00    +0.134 A 
ATOM      4  C   UNL     1       1.488  -5.079   6.451  0.00  0.00    +0.051 A 
ATOM      5  C   UNL     1       1.081  -5.970   7.536  0.00  0.00    -0.020 A 
ATOM      6  C   UNL     1      -0.244  -6.163   7.708  0.00  0.00    +0.021 A 
ATOM      7  S   UNL     1      -1.020  -5.183   6.455  0.00  0.00    -0.071 S 
ATOM      8  C   UNL     1       0.439  -4.515   5.697  0.00  0.00    +0.115 A 
ATOM      9  N   UNL     1       0.674  -3.692   4.694  0.00  0.00    -0.215 NA
ATOM     10  C   UNL     1      -0.886  -7.029   8.748  0.00  0.00    +0.203 C 
ATOM     11  O   UNL     1       0.135  -7.863   9.319  0.00  0.00    -0.368 OA
ATOM     12  C   UNL     1       1.309  -7.143   9.704  0.00  0.00    +0.068 C 
ATOM     13  C   UNL     1       2.071  -6.674   8.461  0.00  0.00    +0.071 C 
ATOM     14  C   UNL     1       0.907  -5.926  10.541  0.00  0.00    +0.041 C 
ATOM     15  C   UNL     1       2.212  -8.053  10.539  0.00  0.00    +0.041 C 
ATOM     16  N   UNL     1       3.905  -5.196   6.721  0.00  0.00    -0.318 N 
ATOM     17  C   UNL     1       4.477  -6.507   6.375  0.00  0.00    +0.088 C 
ATOM     18  C   UNL     1       5.986  -6.339   6.167  0.00  0.00    -0.060 C 
ATOM     19  N   UNL     1       6.577  -5.716   7.358  0.00  0.00    +0.382 N 
ATOM     20  C   UNL     1       6.047  -4.356   7.526  0.00  0.00    -0.060 C 
ATOM     21  C   UNL     1       4.545  -4.423   7.797  0.00  0.00    +0.088 C 
ATOM     22  H   UNL     1       6.349  -6.267   8.172  0.00  0.00    -0.082 HD
ENDROOT
BRANCH   1  23
ATOM     23  S   UNL     1       2.206  -2.284   3.012  0.00  0.00    -0.081 S 
BRANCH  23  24
ATOM     24  C   UNL     1       0.542  -1.868   2.423  0.00  0.00    +0.112 C 
BRANCH  24  30
ATOM     25  C   UNL     1       0.764   2.798   0.629  0.00  0.00    +0.044 C 
ATOM     26  C   UNL     1       0.750   1.310   0.396  0.00  0.00    -0.050 A 
ATOM     27  C   UNL     1       0.831   0.811  -0.891  0.00  0.00    +0.003 A 
ATOM     28  C   UNL     1       0.818  -0.554  -1.105  0.00  0.00    +0.004 A 
ATOM     29  C   UNL     1       0.724  -1.422  -0.033  0.00  0.00    -0.046 A 
ATOM     30  C   UNL     1       0.644  -0.923   1.254  0.00  0.00    -0.034 A 
ATOM     31  C   UNL     1       0.662   0.443   1.468  0.00  0.00    +0.008 A 
ATOM     32  C   UNL     1       0.709  -2.910  -0.266  0.00  0.00    +0.044 C 
ENDBRANCH  24  30
ENDBRANCH  23  24
ENDBRANCH   1  23
BRANCH  19  33
ATOM     33  C   UNL     1       8.036  -5.655   7.204  0.00  0.00    -0.076 C 
BRANCH  33  34
ATOM     34  C   UNL     1       8.606  -7.075   7.184  0.00  0.00    -0.034 C 
ATOM     35  C   UNL     1      10.106  -7.019   6.890  0.00  0.00    +0.005 C 
ATOM     36  C   UNL     1       8.378  -7.735   8.546  0.00  0.00    +0.005 C 
ENDBRANCH  33  34
ENDBRANCH  19  33
TORSDOF 5
