REMARK  Name = ZINC41633049
REMARK  6 active torsions:
REMARK  status: ('A' for Active; 'I' for Inactive)
REMARK    1  A    between atoms: C_1  and  C_2
REMARK    2  A    between atoms: C_7  and  S_10
REMARK    3  A    between atoms: S_10  and  C_11
REMARK    4  A    between atoms: C_11  and  C_13
REMARK    5  A    between atoms: C_11  and  C_14
REMARK    6  A    between atoms: N_16  and  C_17
REMARK                            x       y       z     vdW  Elec       q    Type
REMARK                         _______ _______ _______ _____ _____    ______ ____
ROOT
ATOM      1  C   UNL     1      -2.830   4.963  -4.671  0.00  0.00    +0.137 C 
ATOM      2  C   UNL     1      -3.625   5.400  -3.439  0.00  0.00    +0.029 C 
ENDROOT
BRANCH   1   3
ATOM      3  C   UNL     1      -3.424   5.597  -5.903  0.00  0.00    +0.226 C 
ATOM      4  O   UNL     1      -4.235   4.987  -6.568  0.00  0.00    -0.275 OA
ATOM      5  N   UNL     1      -3.054   6.841  -6.265  0.00  0.00    -0.312 N 
ATOM      6  H   UNL     1      -2.405   7.328  -5.734  0.00  0.00    +0.149 HD
BRANCH   5   7
ATOM      7  C   UNL     1      -3.631   7.457  -7.463  0.00  0.00    +0.073 C 
ATOM      8  C   UNL     1      -2.796   7.082  -8.705  0.00  0.00    +0.022 C 
ATOM      9  C   UNL     1      -2.810   8.364  -9.574  0.00  0.00    +0.002 C 
ATOM     10  C   UNL     1      -2.712   9.493  -8.518  0.00  0.00    +0.002 C 
ATOM     11  C   UNL     1      -3.577   8.991  -7.344  0.00  0.00    +0.022 C 
ENDBRANCH   5   7
ENDBRANCH   1   3
BRANCH   1  12
ATOM     12  S   UNL     1      -2.901   3.157  -4.827  0.00  0.00    -0.074 S 
BRANCH  12  19
ATOM     13  C   UNL     1      -0.013   1.086   0.008  0.00  0.00    +0.073 C 
ATOM     14  C   UNL     1      -0.742   1.585  -1.213  0.00  0.00    +0.124 A 
ATOM     15  C   UNL     1      -0.899   3.022  -1.451  0.00  0.00    +0.295 A 
ATOM     16  O   UNL     1      -0.439   3.831  -0.659  0.00  0.00    -0.264 OA
ATOM     17  N   UNL     1      -1.550   3.441  -2.542  0.00  0.00    -0.182 NA
ATOM     18  H   UNL     1      -2.291   0.614  -3.848  0.00  0.00    +0.191 HD
ATOM     19  C   UNL     1      -2.049   2.572  -3.400  0.00  0.00    +0.187 A 
ATOM     20  N   UNL     1      -1.916   1.235  -3.203  0.00  0.00    -0.255 N 
ATOM     21  N   UNL     1      -1.239   0.744  -2.079  0.00  0.00    -0.172 NA
ENDBRANCH  12  19
ENDBRANCH   1  12
TORSDOF 4
