REMARK  Name = ZINC56788822
REMARK  6 active torsions:
REMARK  status: ('A' for Active; 'I' for Inactive)
REMARK    1  A    between atoms: C_3  and  N_12
REMARK    2  A    between atoms: C_6  and  C_7
REMARK    3  A    between atoms: N_15  and  C_16
REMARK    4  A    between atoms: C_16  and  C_17
REMARK    5  A    between atoms: C_17  and  C_18
REMARK    6  A    between atoms: N_20  and  C_21
REMARK                            x       y       z     vdW  Elec       q    Type
REMARK                         _______ _______ _______ _____ _____    ______ ____
ROOT
ATOM      1  N   UNL     1       3.583   2.133  -0.021  0.00  0.00    -0.269 N 
ATOM      2  C   UNL     1       4.758   1.479   0.066  0.00  0.00    +0.304 C 
ATOM      3  O   UNL     1       4.780   0.264   0.060  0.00  0.00    -0.253 OA
ATOM      4  N   UNL     1       5.910   2.173   0.160  0.00  0.00    -0.299 N 
ATOM      5  H   UNL     1       3.570   3.100  -0.094  0.00  0.00    +0.156 HD
ATOM      6  H   UNL     1       5.893   3.143   0.165  0.00  0.00    +0.150 HD
ENDROOT
BRANCH   1   9
ATOM      7  C   UNL     1       1.094  -0.457   0.759  0.00  0.00    +0.012 A 
ATOM      8  C   UNL     1       2.278   0.250   0.742  0.00  0.00    +0.024 A 
ATOM      9  C   UNL     1       2.381   1.416  -0.006  0.00  0.00    +0.035 A 
ATOM     10  C   UNL     1       1.292   1.872  -0.740  0.00  0.00    +0.024 A 
ATOM     11  C   UNL     1       0.107   1.168  -0.726  0.00  0.00    +0.012 A 
ATOM     12  C   UNL     1       0.001  -0.002   0.024  0.00  0.00    +0.003 A 
BRANCH  12  13
ATOM     13  C   UNL     1      -1.274  -0.762   0.039  0.00  0.00    +0.102 A 
ATOM     14  C   UNL     1      -2.378  -0.368  -0.666  0.00  0.00    +0.097 A 
ATOM     15  S   UNL     1      -3.485  -1.571  -0.283  0.00  0.00    +0.029 S 
ATOM     16  N   UNL     1      -2.571  -2.477   0.697  0.00  0.00    -0.110 NA
ATOM     17  N   UNL     1      -1.431  -1.879   0.732  0.00  0.00    -0.141 NA
ENDBRANCH  12  13
ENDBRANCH   1   9
BRANCH   4  18
ATOM     18  C   UNL     1       7.188   1.463   0.254  0.00  0.00    +0.115 C 
BRANCH  18  19
ATOM     19  C   UNL     1       8.329   2.477   0.349  0.00  0.00    +0.114 C 
BRANCH  19  20
ATOM     20  C   UNL     1       9.643   1.746   0.447  0.00  0.00    +0.215 C 
ATOM     21  O   UNL     1       9.665   0.534   0.441  0.00  0.00    -0.276 OA
ATOM     22  N   UNL     1      10.795   2.440   0.540  0.00  0.00    -0.312 N 
ATOM     23  H   UNL     1      10.778   3.410   0.545  0.00  0.00    +0.149 HD
BRANCH  22  24
ATOM     24  C   UNL     1      12.073   1.730   0.635  0.00  0.00    +0.073 C 
ATOM     25  C   UNL     1      12.346   1.363   2.095  0.00  0.00    +0.022 C 
ATOM     26  C   UNL     1      13.680   0.621   2.194  0.00  0.00    +0.002 C 
ATOM     27  C   UNL     1      14.803   1.521   1.675  0.00  0.00    +0.000 C 
ATOM     28  C   UNL     1      14.531   1.888   0.215  0.00  0.00    +0.002 C 
ATOM     29  C   UNL     1      13.196   2.630   0.117  0.00  0.00    +0.022 C 
ENDBRANCH  22  24
ENDBRANCH  19  20
ENDBRANCH  18  19
ENDBRANCH   4  18
TORSDOF 6
