REMARK  Name = ZINC56770928
REMARK  7 active torsions:
REMARK  status: ('A' for Active; 'I' for Inactive)
REMARK    1  A    between atoms: C_1  and  C_2
REMARK    2  A    between atoms: C_9  and  C_11
REMARK    3  A    between atoms: N_19  and  C_20
REMARK    4  A    between atoms: C_20  and  C_22
REMARK    5  A    between atoms: C_20  and  C_23
REMARK    6  A    between atoms: C_23  and  C_24
REMARK    7  A    between atoms: C_27  and  O_30
REMARK                            x       y       z     vdW  Elec       q    Type
REMARK                         _______ _______ _______ _____ _____    ______ ____
ROOT
ATOM      1  C   UNL     1      -0.136  -6.338  -0.948  0.00  0.00    +0.078 C 
ATOM      2  C   UNL     1      -1.375  -6.742  -0.146  0.00  0.00    +0.032 C 
ATOM      3  C   UNL     1      -1.445  -8.270  -0.058  0.00  0.00    +0.110 C 
ATOM      4  N   UNL     1      -1.399  -8.825  -1.417  0.00  0.00    -0.286 N 
ATOM      5  C   UNL     1      -0.297  -8.428  -2.305  0.00  0.00    +0.110 C 
ATOM      6  C   UNL     1      -0.240  -6.899  -2.368  0.00  0.00    +0.032 C 
ATOM      7  C   UNL     1      -2.349  -9.681  -1.842  0.00  0.00    +0.302 C 
ATOM      8  O   UNL     1      -3.306  -9.927  -1.134  0.00  0.00    -0.253 OA
ATOM      9  N   UNL     1      -2.239 -10.264  -3.053  0.00  0.00    -0.296 N 
ATOM     10  H   UNL     1      -1.515 -10.013  -3.647  0.00  0.00    +0.151 HD
ENDROOT
BRANCH   1  19
ATOM     11  C   UNL     1      -0.036   1.495  -0.159  0.00  0.00    +0.045 C 
ATOM     12  C   UNL     1      -0.012  -0.008  -0.043  0.00  0.00    -0.032 A 
ATOM     13  C   UNL     1       0.007  -0.615   1.205  0.00  0.00    +0.008 A 
ATOM     14  C   UNL     1       0.029  -1.997   1.267  0.00  0.00    +0.044 A 
ATOM     15  C   UNL     1       0.032  -2.727   0.083  0.00  0.00    +0.125 A 
ATOM     16  N   UNL     1       0.014  -2.111  -1.088  0.00  0.00    -0.240 NA
ATOM     17  C   UNL     1      -0.013  -0.795  -1.178  0.00  0.00    +0.116 A 
ATOM     18  N   UNL     1       0.054  -4.120   0.131  0.00  0.00    -0.270 N 
ATOM     19  C   UNL     1      -0.046  -4.835  -1.008  0.00  0.00    +0.221 C 
ATOM     20  O   UNL     1      -0.063  -4.268  -2.080  0.00  0.00    -0.275 OA
ATOM     21  H   UNL     1       0.141  -4.574   0.983  0.00  0.00    +0.156 HD
ENDBRANCH   1  19
BRANCH   9  22
ATOM     22  C   UNL     1      -3.212 -11.276  -3.470  0.00  0.00    +0.076 C 
ATOM     23  C   UNL     1      -4.436 -10.586  -4.076  0.00  0.00    +0.028 C 
BRANCH  22  24
ATOM     24  C   UNL     1      -2.576 -12.196  -4.513  0.00  0.00    +0.057 C 
BRANCH  24  25
ATOM     25  C   UNL     1      -1.446 -12.967  -3.881  0.00  0.00    -0.045 A 
ATOM     26  C   UNL     1      -0.165 -12.445  -3.889  0.00  0.00    +0.007 A 
ATOM     27  C   UNL     1       0.872 -13.150  -3.311  0.00  0.00    +0.045 A 
ATOM     28  C   UNL     1       0.629 -14.382  -2.721  0.00  0.00    +0.117 A 
ATOM     29  C   UNL     1      -0.657 -14.902  -2.713  0.00  0.00    +0.045 A 
ATOM     30  C   UNL     1      -1.692 -14.191  -3.289  0.00  0.00    +0.007 A 
BRANCH  28  31
ATOM     31  O   UNL     1       1.648 -15.077  -2.151  0.00  0.00    -0.507 OA
ATOM     32  H   UNL     1       1.785 -14.878  -1.215  0.00  0.00    +0.292 HD
ENDBRANCH  28  31
ENDBRANCH  24  25
ENDBRANCH  22  24
ENDBRANCH   9  22
TORSDOF 5
