REMARK  Name = ZINC01758429
REMARK  11 active torsions:
REMARK  status: ('A' for Active; 'I' for Inactive)
REMARK    1  A    between atoms: C_1  and  C_2
REMARK    2  A    between atoms: C_2  and  C_4
REMARK    3  A    between atoms: C_7  and  N_10
REMARK    4  A    between atoms: C_11  and  C_13
REMARK    5  A    between atoms: C_13  and  S_14
REMARK    6  A    between atoms: S_14  and  C_15
REMARK    7  A    between atoms: C_20  and  S_33
REMARK    8  A    between atoms: C_29  and  C_31
REMARK    9  A    between atoms: C_29  and  C_32
REMARK   10  A    between atoms: S_33  and  C_34
REMARK   11  A    between atoms: C_34  and  C_35
REMARK                            x       y       z     vdW  Elec       q    Type
REMARK                         _______ _______ _______ _____ _____    ______ ____
ROOT
ATOM      1  C   UNL     1      -7.356  -7.509  -0.419  0.00  0.00    +0.198 A 
ATOM      2  N   UNL     1      -8.510  -6.882  -0.417  0.00  0.00    -0.122 NA
ATOM      3  N   UNL     1      -9.477  -7.727  -0.517  0.00  0.00    -0.128 NA
ATOM      4  C   UNL     1      -8.995  -8.943  -0.588  0.00  0.00    +0.174 A 
ATOM      5  N   UNL     1      -7.622  -8.846  -0.532  0.00  0.00    -0.248 N 
ATOM      6  C   UNL     1      -6.843  -9.972  -0.591  0.00  0.00    +0.178 A 
ATOM      7  N   UNL     1      -7.379 -11.165  -0.704  0.00  0.00    -0.216 NA
ATOM      8  C   UNL     1      -8.695 -11.350  -0.769  0.00  0.00    +0.115 A 
ATOM      9  C   UNL     1      -9.606 -10.285  -0.712  0.00  0.00    +0.056 A 
ATOM     10  C   UNL     1     -11.016 -10.647  -0.797  0.00  0.00    -0.019 A 
ATOM     11  C   UNL     1     -11.309 -11.964  -0.906  0.00  0.00    +0.021 A 
ATOM     12  S   UNL     1      -9.738 -12.780  -0.920  0.00  0.00    -0.071 S 
ATOM     13  C   UNL     1     -12.678 -12.562  -1.005  0.00  0.00    +0.203 C 
ATOM     14  O   UNL     1     -13.630 -11.546  -0.649  0.00  0.00    -0.368 OA
ATOM     15  C   UNL     1     -13.411 -10.300  -1.316  0.00  0.00    +0.068 C 
ATOM     16  C   UNL     1     -12.149  -9.624  -0.770  0.00  0.00    +0.071 C 
ATOM     17  C   UNL     1     -14.616  -9.385  -1.088  0.00  0.00    +0.041 C 
ATOM     18  C   UNL     1     -13.244 -10.550  -2.816  0.00  0.00    +0.041 C 
ENDROOT
BRANCH   1  19
ATOM     19  S   UNL     1      -5.763  -6.766  -0.304  0.00  0.00    -0.076 S 
BRANCH  19  20
ATOM     20  C   UNL     1      -6.114  -4.991  -0.178  0.00  0.00    +0.173 C 
BRANCH  20  22
ATOM     21  N   UNL     1      -4.834  -2.885   0.031  0.00  0.00    -0.285 N 
ATOM     22  C   UNL     1      -4.819  -4.228  -0.073  0.00  0.00    +0.227 C 
ATOM     23  O   UNL     1      -3.762  -4.824  -0.081  0.00  0.00    -0.275 OA
ATOM     24  H   UNL     1      -5.678  -2.414   0.115  0.00  0.00    +0.155 HD
BRANCH  21  28
ATOM     25  C   UNL     1      -1.260  -0.754  -0.007  0.00  0.00    +0.017 A 
ATOM     26  C   UNL     1      -1.388  -1.926  -0.763  0.00  0.00    +0.013 A 
ATOM     27  C   UNL     1      -2.567  -2.625  -0.748  0.00  0.00    +0.024 A 
ATOM     28  C   UNL     1      -3.637  -2.171   0.018  0.00  0.00    +0.033 A 
ATOM     29  C   UNL     1      -3.515  -1.006   0.771  0.00  0.00    +0.024 A 
ATOM     30  C   UNL     1      -2.338  -0.304   0.766  0.00  0.00    +0.013 A 
BRANCH  25  32
ATOM     31  C   UNL     1       1.159  -0.489  -0.854  0.00  0.00    +0.091 C 
ATOM     32  C   UNL     1       0.001  -0.003  -0.021  0.00  0.00    +0.160 C 
ATOM     33  O   UNL     1       0.111   1.010   0.639  0.00  0.00    -0.292 OA
ENDBRANCH  25  32
ENDBRANCH  21  28
ENDBRANCH  20  22
ENDBRANCH  19  20
ENDBRANCH   1  19
BRANCH   6  34
ATOM     34  S   UNL     1      -5.090  -9.814  -0.512  0.00  0.00    -0.083 S 
BRANCH  34  35
ATOM     35  C   UNL     1      -4.491 -11.523  -0.623  0.00  0.00    +0.112 C 
BRANCH  35  36
ATOM     36  C   UNL     1      -2.985 -11.532  -0.566  0.00  0.00    -0.037 A 
ATOM     37  C   UNL     1      -2.249 -11.437  -1.733  0.00  0.00    +0.004 A 
ATOM     38  C   UNL     1      -0.868 -11.445  -1.681  0.00  0.00    +0.000 A 
ATOM     39  C   UNL     1      -0.223 -11.548  -0.463  0.00  0.00    +0.000 A 
ATOM     40  C   UNL     1      -0.958 -11.641   0.703  0.00  0.00    +0.000 A 
ATOM     41  C   UNL     1      -2.340 -11.629   0.652  0.00  0.00    +0.004 A 
ENDBRANCH  35  36
ENDBRANCH  34  35
ENDBRANCH   6  34
TORSDOF 8
