REMARK  Name = ZINC14732599
REMARK  10 active torsions:
REMARK  status: ('A' for Active; 'I' for Inactive)
REMARK    1  A    between atoms: C_1  and  N_2
REMARK    2  A    between atoms: N_2  and  C_3
REMARK    3  A    between atoms: N_2  and  S_4
REMARK    4  A    between atoms: S_4  and  C_7
REMARK    5  A    between atoms: C_9  and  C_24
REMARK    6  A    between atoms: C_11  and  N_13
REMARK    7  A    between atoms: N_13  and  C_14
REMARK    8  A    between atoms: C_14  and  C_15
REMARK    9  A    between atoms: N_26  and  C_27
REMARK   10  A    between atoms: C_27  and  C_28
REMARK                            x       y       z     vdW  Elec       q    Type
REMARK                         _______ _______ _______ _____ _____    ______ ____
ROOT
ATOM      1  C   UNL     1       0.025  -0.534   1.682  0.00  0.00    +0.108 A 
ATOM      2  C   UNL     1      -1.162  -0.757   2.349  0.00  0.00    +0.041 A 
ATOM      3  C   UNL     1      -1.147  -1.178   3.680  0.00  0.00    +0.040 A 
ATOM      4  C   UNL     1       0.071  -1.371   4.332  0.00  0.00    +0.036 A 
ATOM      5  C   UNL     1       1.259  -1.144   3.653  0.00  0.00    +0.030 A 
ATOM      6  C   UNL     1       1.232  -0.730   2.326  0.00  0.00    +0.051 A 
ENDROOT
BRANCH   3   7
ATOM      7  C   UNL     1      -2.418  -1.418   4.397  0.00  0.00    +0.244 C 
ATOM      8  O   UNL     1      -3.478  -1.248   3.828  0.00  0.00    -0.270 OA
ATOM      9  N   UNL     1      -2.400  -1.824   5.682  0.00  0.00    -0.311 N 
ATOM     10  H   UNL     1      -1.554  -1.959   6.137  0.00  0.00    +0.149 HD
BRANCH   9  11
ATOM     11  C   UNL     1      -3.659  -2.061   6.393  0.00  0.00    +0.106 C 
BRANCH  11  12
ATOM     12  C   UNL     1      -3.360  -2.511   7.824  0.00  0.00    -0.008 C 
ATOM     13  C   UNL     1      -2.642  -3.861   7.793  0.00  0.00    +0.002 C 
ATOM     14  C   UNL     1      -3.567  -4.898   7.155  0.00  0.00    -0.018 C 
ATOM     15  C   UNL     1      -4.858  -4.977   7.969  0.00  0.00    -0.078 C 
ATOM     16  C   UNL     1      -4.674  -2.639   8.603  0.00  0.00    -0.064 C 
ATOM     17  C   UNL     1      -5.380  -1.279   8.570  0.00  0.00    -0.015 C 
ATOM     18  C   UNL     1      -6.723  -1.374   9.296  0.00  0.00    -0.003 C 
ATOM     19  C   UNL     1      -7.571  -2.459   8.626  0.00  0.00    -0.019 C 
ATOM     20  C   UNL     1      -6.814  -3.785   8.688  0.00  0.00    -0.078 C 
ATOM     21  N   UNL     1      -5.533  -3.668   7.964  0.00  0.00    +0.382 N 
ATOM     22  H   UNL     1      -5.720  -3.389   6.994  0.00  0.00    -0.081 HD
ENDBRANCH  11  12
ENDBRANCH   9  11
ENDBRANCH   3   7
BRANCH   1  23
ATOM     23  S   UNL     1       0.002  -0.004   0.002  0.00  0.00    +0.060 S 
ATOM     24  O   UNL     1      -1.243  -0.424  -0.539  0.00  0.00    -0.153 OA
ATOM     25  O   UNL     1       1.248  -0.390  -0.563  0.00  0.00    -0.153 OA
BRANCH  23  27
ATOM     26  C   UNL     1       1.238   2.401   0.003  0.00  0.00    +0.131 C 
ATOM     27  N   UNL     1      -0.020   1.652   0.011  0.00  0.00    -0.183 NA
ATOM     28  C   UNL     1      -1.299   2.367   0.021  0.00  0.00    +0.131 C 
ENDBRANCH  23  27
ENDBRANCH   1  23
BRANCH   5  29
ATOM     29  N   UNL     1       2.482  -1.335   4.301  0.00  0.00    -0.337 N 
ATOM     30  H   UNL     1       3.312  -1.176   3.826  0.00  0.00    +0.147 HD
BRANCH  29  31
ATOM     31  C   UNL     1       2.509  -1.776   5.698  0.00  0.00    +0.176 C 
BRANCH  31  32
ATOM     32  C   UNL     1       3.939  -1.905   6.156  0.00  0.00    +0.123 A 
ATOM     33  C   UNL     1       4.657  -0.922   6.715  0.00  0.00    +0.054 A 
ATOM     34  C   UNL     1       5.979  -1.492   7.000  0.00  0.00    +0.020 A 
ATOM     35  C   UNL     1       7.153  -0.997   7.568  0.00  0.00    +0.011 A 
ATOM     36  C   UNL     1       8.244  -1.812   7.688  0.00  0.00    +0.001 A 
ATOM     37  C   UNL     1       8.190  -3.127   7.248  0.00  0.00    +0.004 A 
ATOM     38  C   UNL     1       7.039  -3.634   6.684  0.00  0.00    +0.047 A 
ATOM     39  C   UNL     1       5.919  -2.822   6.553  0.00  0.00    +0.135 A 
ATOM     40  O   UNL     1       4.681  -3.022   6.057  0.00  0.00    -0.458 OA
ENDBRANCH  31  32
ENDBRANCH  29  31
ENDBRANCH   5  29
TORSDOF 8
