REMARK  Name = ZINC45681227
REMARK  9 active torsions:
REMARK  status: ('A' for Active; 'I' for Inactive)
REMARK    1  A    between atoms: C_1  and  C_2
REMARK    2  A    between atoms: C_5  and  C_22
REMARK    3  A    between atoms: C_6  and  O_8
REMARK    4  A    between atoms: O_8  and  C_9
REMARK    5  A    between atoms: C_9  and  C_10
REMARK    6  A    between atoms: N_12  and  C_13
REMARK    7  A    between atoms: C_14  and  C_21
REMARK    8  A    between atoms: C_16  and  C_20
REMARK    9  A    between atoms: C_18  and  C_19
REMARK                            x       y       z     vdW  Elec       q    Type
REMARK                         _______ _______ _______ _____ _____    ______ ____
ROOT
ATOM      1  C   UNL     1      -0.170  -1.622   3.752  0.00  0.00    +0.324 C 
ENDROOT
BRANCH   1   2
ATOM      2  C   UNL     1       0.154  -2.481   4.947  0.00  0.00    +0.255 C 
ATOM      3  O   UNL     1       1.070  -3.274   4.894  0.00  0.00    -0.272 OA
ATOM      4  N   UNL     1      -0.575  -2.369   6.075  0.00  0.00    -0.282 N 
ATOM      5  H   UNL     1      -1.260  -1.685   6.144  0.00  0.00    +0.155 HD
BRANCH   4   6
ATOM      6  C   UNL     1      -0.344  -3.239   7.147  0.00  0.00    +0.039 A 
ATOM      7  C   UNL     1      -0.080  -2.729   8.412  0.00  0.00    -0.029 A 
ATOM      8  C   UNL     1       0.147  -3.590   9.468  0.00  0.00    +0.008 A 
ATOM      9  C   UNL     1       0.112  -4.958   9.267  0.00  0.00    -0.050 A 
ATOM     10  C   UNL     1      -0.150  -5.468   8.008  0.00  0.00    +0.008 A 
ATOM     11  C   UNL     1      -0.385  -4.612   6.950  0.00  0.00    -0.029 A 
ATOM     12  C   UNL     1      -0.678  -5.169   5.580  0.00  0.00    +0.045 C 
ATOM     13  C   UNL     1       0.361  -5.894  10.421  0.00  0.00    +0.044 C 
ATOM     14  C   UNL     1      -0.041  -1.239   8.632  0.00  0.00    +0.045 C 
ENDBRANCH   4   6
ENDBRANCH   1   2
BRANCH   1  15
ATOM     15  O   UNL     1       0.736  -1.924   2.689  0.00  0.00    -0.482 OA
BRANCH  15  21
ATOM     16  C   UNL     1      -1.674   1.451   0.124  0.00  0.00    +0.044 C 
ATOM     17  C   UNL     1      -0.581   0.420   0.241  0.00  0.00    -0.047 A 
ATOM     18  C   UNL     1       0.260   0.183  -0.835  0.00  0.00    +0.004 A 
ATOM     19  C   UNL     1       1.262  -0.758  -0.739  0.00  0.00    +0.017 A 
ATOM     20  C   UNL     1       1.433  -1.476   0.447  0.00  0.00    +0.078 A 
ATOM     21  C   UNL     1       0.580  -1.233   1.533  0.00  0.00    +0.134 A 
ATOM     22  C   UNL     1      -0.420  -0.278   1.421  0.00  0.00    +0.049 A 
BRANCH  20  23
ATOM     23  C   UNL     1       2.504  -2.484   0.556  0.00  0.00    +0.245 C 
ATOM     24  O   UNL     1       2.649  -3.107   1.591  0.00  0.00    -0.270 OA
ATOM     25  N   UNL     1       3.321  -2.715  -0.490  0.00  0.00    -0.325 N 
ATOM     26  H   UNL     1       3.205  -2.219  -1.315  0.00  0.00    +0.145 HD
ATOM     27  H   UNL     1       4.026  -3.378  -0.418  0.00  0.00    +0.145 HD
ENDBRANCH  20  23
ENDBRANCH  15  21
ENDBRANCH   1  15
TORSDOF 5
