REMARK  Name = ZINC04876155
REMARK  9 active torsions:
REMARK  status: ('A' for Active; 'I' for Inactive)
REMARK    1  A    between atoms: C_1  and  C_2
REMARK    2  A    between atoms: C_2  and  C_4
REMARK    3  A    between atoms: C_2  and  N_7
REMARK    4  A    between atoms: C_4  and  C_5
REMARK    5  A    between atoms: C_4  and  C_6
REMARK    6  A    between atoms: C_8  and  C_10
REMARK    7  A    between atoms: C_12  and  C_24
REMARK    8  A    between atoms: N_14  and  C_15
REMARK    9  A    between atoms: C_18  and  N_21
REMARK                            x       y       z     vdW  Elec       q    Type
REMARK                         _______ _______ _______ _____ _____    ______ ____
ROOT
ATOM      1  C   UNL     1       3.389  -1.343  -2.572  0.00  0.00    +0.130 A 
ATOM      2  C   UNL     1       4.752  -1.576  -2.544  0.00  0.00    +0.063 A 
ATOM      3  C   UNL     1       5.021  -2.344  -3.692  0.00  0.00    +0.094 A 
ATOM      4  N   UNL     1       3.881  -2.530  -4.324  0.00  0.00    -0.166 NA
ATOM      5  N   UNL     1       2.913  -1.966  -3.695  0.00  0.00    -0.227 N 
ENDROOT
BRANCH   5   6
ATOM      6  C   UNL     1       1.573  -1.981  -4.099  0.00  0.00    +0.066 A 
ATOM      7  C   UNL     1       0.570  -2.233  -3.173  0.00  0.00    +0.030 A 
ATOM      8  C   UNL     1      -0.751  -2.247  -3.575  0.00  0.00    +0.035 A 
ATOM      9  C   UNL     1      -1.075  -2.010  -4.898  0.00  0.00    +0.126 A 
ATOM     10  C   UNL     1      -0.079  -1.759  -5.823  0.00  0.00    +0.035 A 
ATOM     11  C   UNL     1       1.244  -1.738  -5.427  0.00  0.00    +0.030 A 
BRANCH   9  12
ATOM     12  N   UNL     1      -2.493  -2.027  -5.326  0.00  0.00    +0.056 N 
ATOM     13  O   UNL     1      -3.365  -2.247  -4.519  0.00  0.00    -0.126 OA
ATOM     14  O   UNL     1      -2.777  -1.820  -6.482  0.00  0.00    -0.126 OA
ENDBRANCH   9  12
ENDBRANCH   5   6
BRANCH   3  15
ATOM     15  C   UNL     1       6.350  -2.853  -4.114  0.00  0.00    +0.002 A 
ATOM     16  C   UNL     1       7.479  -2.584  -3.342  0.00  0.00    +0.010 A 
ATOM     17  C   UNL     1       8.712  -3.060  -3.740  0.00  0.00    +0.001 A 
ATOM     18  C   UNL     1       8.829  -3.802  -4.901  0.00  0.00    +0.000 A 
ATOM     19  C   UNL     1       7.711  -4.071  -5.671  0.00  0.00    +0.001 A 
ATOM     20  C   UNL     1       6.472  -3.606  -5.280  0.00  0.00    +0.010 A 
ENDBRANCH   3  15
BRANCH   1  22
ATOM     21  N   UNL     1       3.192  -0.134  -0.460  0.00  0.00    -0.307 N 
ATOM     22  C   UNL     1       2.605  -0.582  -1.587  0.00  0.00    +0.263 C 
ATOM     23  O   UNL     1       1.427  -0.357  -1.790  0.00  0.00    -0.269 OA
ATOM     24  H   UNL     1       4.112  -0.373  -0.264  0.00  0.00    +0.149 HD
BRANCH  21  26
ATOM     25  C   UNL     1       1.679  -0.169   1.461  0.00  0.00    +0.028 C 
ATOM     26  C   UNL     1       2.441   0.713   0.470  0.00  0.00    +0.073 C 
BRANCH  26  27
ATOM     27  C   UNL     1       3.411   1.617   1.233  0.00  0.00    +0.003 C 
ATOM     28  C   UNL     1       2.620   2.588   2.112  0.00  0.00    +0.009 C 
ATOM     29  C   UNL     1       4.323   0.760   2.113  0.00  0.00    +0.009 C 
ENDBRANCH  26  27
ENDBRANCH  21  26
ENDBRANCH   1  22
TORSDOF 6
