REMARK  Name = ZINC20905727
REMARK  14 active torsions:
REMARK  status: ('A' for Active; 'I' for Inactive)
REMARK    1  A    between atoms: C_1  and  C_2
REMARK    2  A    between atoms: C_2  and  N_3
REMARK    3  A    between atoms: N_3  and  C_4
REMARK    4  A    between atoms: N_3  and  C_6
REMARK    5  A    between atoms: C_4  and  C_5
REMARK    6  A    between atoms: C_9  and  N_12
REMARK    7  A    between atoms: C_13  and  C_15
REMARK    8  A    between atoms: C_15  and  S_16
REMARK    9  A    between atoms: S_16  and  C_17
REMARK   10  A    between atoms: N_22  and  N_23
REMARK   11  A    between atoms: C_24  and  C_25
REMARK   12  A    between atoms: C_28  and  C_31
REMARK   13  A    between atoms: C_31  and  O_33
REMARK   14  A    between atoms: O_33  and  C_34
REMARK                            x       y       z     vdW  Elec       q    Type
REMARK                         _______ _______ _______ _____ _____    ______ ____
ROOT
ATOM      1  C   UNL     1      -1.575 -10.348  -3.811  0.00  0.00    +0.211 A 
ATOM      2  N   UNL     1      -2.196 -11.150  -4.682  0.00  0.00    -0.186 NA
ATOM      3  C   UNL     1      -2.099 -12.400  -4.280  0.00  0.00    +0.232 A 
ATOM      4  N   UNL     1      -1.400 -12.413  -3.125  0.00  0.00    -0.245 N 
ATOM      5  N   UNL     1      -1.068 -11.078  -2.846  0.00  0.00    -0.144 NA
ATOM      6  N   UNL     1      -2.621 -13.506  -4.927  0.00  0.00    -0.205 N 
ATOM      7  H   UNL     1      -2.497 -14.391  -4.551  0.00  0.00    +0.177 HD
ATOM      8  H   UNL     1      -1.170 -13.192  -2.594  0.00  0.00    +0.192 HD
ENDROOT
BRANCH   6   9
ATOM      9  N   UNL     1      -3.329 -13.346  -6.125  0.00  0.00    -0.188 NA
ATOM     10  C   UNL     1      -3.820 -14.385  -6.733  0.00  0.00    +0.138 C 
BRANCH  10  11
ATOM     11  C   UNL     1      -4.563 -14.217  -7.992  0.00  0.00    -0.005 A 
ATOM     12  C   UNL     1      -4.737 -12.940  -8.538  0.00  0.00    +0.010 A 
ATOM     13  C   UNL     1      -5.427 -12.785  -9.706  0.00  0.00    +0.015 A 
ATOM     14  C   UNL     1      -5.960 -13.903 -10.357  0.00  0.00    +0.059 A 
ATOM     15  C   UNL     1      -5.787 -15.179  -9.812  0.00  0.00    +0.015 A 
ATOM     16  C   UNL     1      -5.092 -15.335  -8.647  0.00  0.00    +0.010 A 
BRANCH  14  17
ATOM     17  C   UNL     1      -6.705 -13.735 -11.618  0.00  0.00    +0.339 C 
ATOM     18  O   UNL     1      -6.856 -12.626 -12.092  0.00  0.00    -0.245 OA
BRANCH  17  19
ATOM     19  O   UNL     1      -7.219 -14.811 -12.246  0.00  0.00    -0.464 OA
ATOM     20  C   UNL     1      -7.929 -14.575 -13.463  0.00  0.00    +0.280 C 
ENDBRANCH  17  19
ENDBRANCH  14  17
ENDBRANCH  10  11
ENDBRANCH   6   9
BRANCH   1  21
ATOM     21  S   UNL     1      -1.450  -8.595  -3.943  0.00  0.00    -0.075 S 
BRANCH  21  22
ATOM     22  C   UNL     1      -0.495  -8.112  -2.479  0.00  0.00    +0.173 C 
BRANCH  22  24
ATOM     23  N   UNL     1       0.370  -6.027  -1.468  0.00  0.00    -0.285 N 
ATOM     24  C   UNL     1      -0.313  -6.616  -2.469  0.00  0.00    +0.227 C 
ATOM     25  O   UNL     1      -0.781  -5.942  -3.362  0.00  0.00    -0.275 OA
ATOM     26  H   UNL     1       0.810  -6.570  -0.795  0.00  0.00    +0.155 HD
BRANCH  23  30
ATOM     27  C   UNL     1       0.593  -1.872  -1.261  0.00  0.00    +0.014 A 
ATOM     28  C   UNL     1      -0.545  -2.477  -1.760  0.00  0.00    +0.023 A 
ATOM     29  C   UNL     1      -0.622  -3.854  -1.830  0.00  0.00    +0.025 A 
ATOM     30  C   UNL     1       0.445  -4.631  -1.399  0.00  0.00    +0.034 A 
ATOM     31  C   UNL     1       1.587  -4.020  -0.898  0.00  0.00    +0.025 A 
ATOM     32  C   UNL     1       1.660  -2.642  -0.835  0.00  0.00    +0.023 A 
BRANCH  27  33
ATOM     33  N   UNL     1       0.668  -0.477  -1.191  0.00  0.00    -0.394 NA
ATOM     34  H   UNL     1       1.562  -0.207  -0.809  0.00  0.00    +0.126 HD
BRANCH  33  36
ATOM     35  C   UNL     1       0.726   1.604  -2.481  0.00  0.00    +0.022 C 
ATOM     36  C   UNL     1       0.520   0.089  -2.539  0.00  0.00    +0.081 C 
ENDBRANCH  33  36
BRANCH  33  37
ATOM     37  C   UNL     1      -0.407   0.028  -0.327  0.00  0.00    +0.081 C 
ATOM     38  C   UNL     1      -0.182  -0.461   1.105  0.00  0.00    +0.022 C 
ENDBRANCH  33  37
ENDBRANCH  27  33
ENDBRANCH  23  30
ENDBRANCH  22  24
ENDBRANCH  21  22
ENDBRANCH   1  21
TORSDOF 11
