REMARK  Name = ZINC34912234
REMARK  10 active torsions:
REMARK  status: ('A' for Active; 'I' for Inactive)
REMARK    1  A    between atoms: C_1  and  C_2
REMARK    2  A    between atoms: C_2  and  C_4
REMARK    3  A    between atoms: C_2  and  C_27
REMARK    4  A    between atoms: C_4  and  C_5
REMARK    5  A    between atoms: C_10  and  N_13
REMARK    6  A    between atoms: C_16  and  C_19
REMARK    7  A    between atoms: C_27  and  C_28
REMARK    8  A    between atoms: C_28  and  C_29
REMARK    9  A    between atoms: C_28  and  C_30
REMARK   10  A    between atoms: C_28  and  C_31
REMARK                            x       y       z     vdW  Elec       q    Type
REMARK                         _______ _______ _______ _____ _____    ______ ____
ROOT
ATOM      1  C   UNL     1      -0.014  -0.194  -2.470  0.00  0.00    +0.216 C 
ATOM      2  O   UNL     1      -0.931   0.592  -2.356  0.00  0.00    -0.276 OA
ATOM      3  N   UNL     1       0.309  -0.682  -3.683  0.00  0.00    -0.302 N 
ATOM      4  C   UNL     1       1.413  -1.639  -3.836  0.00  0.00    +0.106 C 
ATOM      5  C   UNL     1       2.385  -1.106  -4.893  0.00  0.00    +0.004 C 
ATOM      6  C   UNL     1       1.619  -0.820  -6.187  0.00  0.00    -0.066 C 
ATOM      7  C   UNL     1       0.556   0.249  -5.925  0.00  0.00    +0.004 C 
ATOM      8  C   UNL     1      -0.441  -0.272  -4.879  0.00  0.00    +0.106 C 
ENDROOT
BRANCH   6   9
ATOM      9  N   UNL     1       2.554  -0.340  -7.213  0.00  0.00    +0.382 N 
ATOM     10  C   UNL     1       3.577  -1.363  -7.458  0.00  0.00    -0.078 C 
ATOM     11  C   UNL     1       4.599  -0.837  -8.467  0.00  0.00    -0.006 C 
ATOM     12  C   UNL     1       3.886  -0.502  -9.780  0.00  0.00    +0.072 C 
ATOM     13  C   UNL     1       2.772   0.511  -9.501  0.00  0.00    -0.006 C 
ATOM     14  C   UNL     1       1.817  -0.066  -8.453  0.00  0.00    -0.078 C 
ATOM     15  H   UNL     1       2.998   0.507  -6.893  0.00  0.00    -0.081 HD
BRANCH  12  16
ATOM     16  C   UNL     1       4.874   0.091 -10.753  0.00  0.00    +0.219 C 
ATOM     17  O   UNL     1       5.877   0.635 -10.342  0.00  0.00    -0.275 OA
ATOM     18  N   UNL     1       4.641   0.017 -12.078  0.00  0.00    -0.297 N 
ATOM     19  C   UNL     1       3.481  -0.720 -12.604  0.00  0.00    +0.136 C 
ATOM     20  C   UNL     1       2.732   0.192 -13.582  0.00  0.00    +0.179 C 
ATOM     21  O   UNL     1       3.653   0.700 -14.550  0.00  0.00    -0.377 OA
ATOM     22  C   UNL     1       4.691   1.514 -14.000  0.00  0.00    +0.179 C 
ATOM     23  C   UNL     1       5.537   0.674 -13.042  0.00  0.00    +0.136 C 
ENDBRANCH  12  16
ENDBRANCH   6   9
BRANCH   1  24
ATOM     24  C   UNL     1       0.765  -0.624  -1.253  0.00  0.00    +0.099 C 
BRANCH  24  26
ATOM     25  C   UNL     1       0.426   1.581  -0.127  0.00  0.00    +0.008 C 
ATOM     26  C   UNL     1       0.199   0.072  -0.013  0.00  0.00    -0.005 C 
BRANCH  26  27
ATOM     27  C   UNL     1       0.906  -0.457   1.236  0.00  0.00    +0.010 C 
BRANCH  27  28
ATOM     28  C   UNL     1       0.026  -0.210   2.463  0.00  0.00    -0.037 C 
ATOM     29  C   UNL     1      -1.253  -1.042   2.349  0.00  0.00    +0.010 C 
ATOM     30  C   UNL     1       0.787  -0.616   3.727  0.00  0.00    +0.010 C 
ATOM     31  C   UNL     1      -0.336   1.274   2.541  0.00  0.00    +0.010 C 
ENDBRANCH  27  28
ENDBRANCH  26  27
ENDBRANCH  24  26
ENDBRANCH   1  24
TORSDOF 6
