REMARK  Name = ZINC35059881
REMARK  13 active torsions:
REMARK  status: ('A' for Active; 'I' for Inactive)
REMARK    1  A    between atoms: C_1  and  C_2
REMARK    2  A    between atoms: C_2  and  C_3
REMARK    3  A    between atoms: C_3  and  C_4
REMARK    4  A    between atoms: C_4  and  C_5
REMARK    5  A    between atoms: C_5  and  C_6
REMARK    6  A    between atoms: C_6  and  N_7
REMARK    7  A    between atoms: N_7  and  C_8
REMARK    8  A    between atoms: C_8  and  C_10
REMARK    9  A    between atoms: C_8  and  C_12
REMARK   10  A    between atoms: C_10  and  C_11
REMARK   11  A    between atoms: N_22  and  C_23
REMARK   12  A    between atoms: C_26  and  C_29
REMARK   13  A    between atoms: N_32  and  C_33
REMARK                            x       y       z     vdW  Elec       q    Type
REMARK                         _______ _______ _______ _____ _____    ______ ____
ROOT
ATOM      1  C   UNL     1       3.562  -5.584  -3.651  0.00  0.00    +0.144 C 
ENDROOT
BRANCH   1   2
ATOM      2  C   UNL     1       3.843  -6.282  -2.345  0.00  0.00    +0.138 A 
ATOM      3  N   UNL     1       3.307  -5.804  -1.263  0.00  0.00    -0.231 NA
ATOM      4  C   UNL     1       3.516  -6.380  -0.052  0.00  0.00    +0.078 A 
ATOM      5  C   UNL     1       2.939  -5.866   1.111  0.00  0.00    +0.028 A 
ATOM      6  C   UNL     1       3.178  -6.483   2.319  0.00  0.00    +0.002 A 
ATOM      7  C   UNL     1       3.985  -7.610   2.396  0.00  0.00    +0.001 A 
ATOM      8  C   UNL     1       4.565  -8.135   1.262  0.00  0.00    +0.015 A 
ATOM      9  C   UNL     1       4.336  -7.527   0.029  0.00  0.00    +0.065 A 
ATOM     10  C   UNL     1       4.928  -8.043  -1.214  0.00  0.00    +0.266 A 
ATOM     11  O   UNL     1       5.644  -9.027  -1.212  0.00  0.00    -0.267 OA
ATOM     12  N   UNL     1       4.641  -7.384  -2.361  0.00  0.00    -0.263 N 
BRANCH  12  13
ATOM     13  C   UNL     1       5.174  -7.838  -3.574  0.00  0.00    +0.051 A 
ATOM     14  C   UNL     1       6.310  -7.237  -4.102  0.00  0.00    +0.026 A 
ATOM     15  C   UNL     1       6.834  -7.687  -5.298  0.00  0.00    +0.005 A 
ATOM     16  C   UNL     1       6.229  -8.734  -5.969  0.00  0.00    -0.050 A 
ATOM     17  C   UNL     1       5.098  -9.333  -5.446  0.00  0.00    +0.005 A 
ATOM     18  C   UNL     1       4.572  -8.892  -4.248  0.00  0.00    +0.026 A 
ATOM     19  C   UNL     1       6.804  -9.222  -7.274  0.00  0.00    +0.044 C 
ENDBRANCH  12  13
ENDBRANCH   1   2
BRANCH   1  20
ATOM     20  N   UNL     1       2.134  -5.688  -3.963  0.00  0.00    -0.275 N 
ATOM     21  C   UNL     1       1.735  -6.298  -5.097  0.00  0.00    +0.307 C 
ATOM     22  O   UNL     1       2.560  -6.761  -5.861  0.00  0.00    -0.252 OA
ATOM     23  N   UNL     1       0.421  -6.394  -5.384  0.00  0.00    -0.267 N 
ATOM     24  H   UNL     1      -0.238  -6.070  -4.751  0.00  0.00    +0.156 HD
BRANCH  23  25
ATOM     25  C   UNL     1       0.009  -6.961  -6.596  0.00  0.00    +0.070 A 
ATOM     26  C   UNL     1       0.795  -7.922  -7.218  0.00  0.00    +0.026 A 
ATOM     27  C   UNL     1       0.386  -8.480  -8.413  0.00  0.00    +0.002 A 
ATOM     28  C   UNL     1      -0.805  -8.082  -8.993  0.00  0.00    +0.003 A 
ATOM     29  C   UNL     1      -1.591  -7.125  -8.378  0.00  0.00    +0.040 A 
ATOM     30  C   UNL     1      -1.191  -6.566  -7.178  0.00  0.00    +0.145 A 
ATOM     31  F   UNL     1      -1.961  -5.635  -6.574  0.00  0.00    -0.204 F 
ENDBRANCH  23  25
BRANCH  20  32
ATOM     32  C   UNL     1       1.140  -5.131  -3.042  0.00  0.00    +0.110 C 
BRANCH  32  33
ATOM     33  C   UNL     1       0.855  -3.676  -3.420  0.00  0.00    +0.019 C 
BRANCH  33  34
ATOM     34  C   UNL     1      -0.183  -3.093  -2.458  0.00  0.00    +0.002 C 
BRANCH  34  35
ATOM     35  C   UNL     1      -0.468  -1.638  -2.836  0.00  0.00    -0.000 C 
BRANCH  35  37
ATOM     36  C   UNL     1      -1.791   0.399  -2.253  0.00  0.00    +0.004 C 
ATOM     37  C   UNL     1      -1.506  -1.056  -1.875  0.00  0.00    -0.003 C 
ENDBRANCH  35  37
ENDBRANCH  34  35
ENDBRANCH  33  34
ENDBRANCH  32  33
ENDBRANCH  20  32
ENDBRANCH   1  20
BRANCH   1  38
ATOM     38  C   UNL     1       3.952  -4.109  -3.535  0.00  0.00    +0.027 C 
ATOM     39  C   UNL     1       3.738  -3.418  -4.883  0.00  0.00    +0.006 C 
ENDBRANCH   1  38
TORSDOF 10
