REMARK  Name = ZINC35703232
REMARK  17 active torsions:
REMARK  status: ('A' for Active; 'I' for Inactive)
REMARK    1  A    between atoms: C_1  and  C_2
REMARK    2  A    between atoms: C_5  and  C_8
REMARK    3  A    between atoms: C_8  and  O_10
REMARK    4  A    between atoms: O_10  and  C_11
REMARK    5  A    between atoms: C_14  and  C_19
REMARK    6  A    between atoms: C_16  and  O_17
REMARK    7  A    between atoms: O_17  and  C_18
REMARK    8  A    between atoms: C_20  and  N_29
REMARK    9  A    between atoms: C_24  and  C_28
REMARK   10  A    between atoms: N_29  and  C_30
REMARK   11  A    between atoms: C_30  and  C_31
REMARK   12  A    between atoms: C_30  and  C_32
REMARK   13  A    between atoms: C_30  and  C_33
REMARK   14  A    between atoms: C_33  and  C_34
REMARK   15  A    between atoms: C_34  and  C_35
REMARK   16  A    between atoms: C_34  and  C_36
REMARK   17  A    between atoms: C_34  and  C_37
REMARK                            x       y       z     vdW  Elec       q    Type
REMARK                         _______ _______ _______ _____ _____    ______ ____
ROOT
ATOM      1  C   UNL     1      -1.951 -13.688  -2.258  0.00  0.00    +0.087 A 
ATOM      2  C   UNL     1      -1.845 -12.526  -2.993  0.00  0.00    +0.129 A 
ATOM      3  N   UNL     1      -1.697 -12.897  -4.301  0.00  0.00    -0.289 N 
ATOM      4  C   UNL     1      -1.548 -12.173  -5.453  0.00  0.00    +0.094 A 
ATOM      5  C   UNL     1      -1.418 -12.794  -6.642  0.00  0.00    +0.021 A 
ATOM      6  C   UNL     1      -1.432 -14.199  -6.715  0.00  0.00    -0.046 A 
ATOM      7  C   UNL     1      -1.578 -14.933  -5.580  0.00  0.00    +0.048 A 
ATOM      8  C   UNL     1      -1.714 -14.272  -4.340  0.00  0.00    +0.117 A 
ATOM      9  N   UNL     1      -1.861 -14.728  -3.107  0.00  0.00    -0.338 N 
ATOM     10  C   UNL     1      -1.286 -14.888  -8.047  0.00  0.00    +0.044 C 
ATOM     11  H   UNL     1      -1.901 -15.663  -2.855  0.00  0.00    +0.167 HD
ENDROOT
BRANCH   1  15
ATOM     12  C   UNL     1      -2.450 -13.936   1.961  0.00  0.00    +0.173 A 
ATOM     13  C   UNL     1      -1.521 -13.057   1.423  0.00  0.00    +0.051 A 
ATOM     14  C   UNL     1      -1.357 -12.975   0.055  0.00  0.00    +0.014 A 
ATOM     15  C   UNL     1      -2.126 -13.776  -0.789  0.00  0.00    +0.005 A 
ATOM     16  C   UNL     1      -3.059 -14.659  -0.249  0.00  0.00    +0.059 A 
ATOM     17  C   UNL     1      -3.216 -14.742   1.123  0.00  0.00    +0.163 A 
BRANCH  17  18
ATOM     18  O   UNL     1      -4.122 -15.607   1.654  0.00  0.00    -0.491 OA
ATOM     19  C   UNL     1      -4.873 -16.403   0.735  0.00  0.00    +0.277 C 
ENDBRANCH  17  18
BRANCH  12  20
ATOM     20  O   UNL     1      -2.608 -14.014   3.310  0.00  0.00    -0.419 OA
BRANCH  20  21
ATOM     21  C   UNL     1      -1.910 -14.955   3.974  0.00  0.00    +0.345 C 
ATOM     22  O   UNL     1      -1.239 -15.761   3.361  0.00  0.00    -0.245 OA
BRANCH  21  27
ATOM     23  C   UNL     1      -2.107 -15.160   9.721  0.00  0.00    +0.044 C 
ATOM     24  C   UNL     1      -2.056 -15.106   8.216  0.00  0.00    -0.050 A 
ATOM     25  C   UNL     1      -1.291 -16.026   7.520  0.00  0.00    +0.004 A 
ATOM     26  C   UNL     1      -1.240 -15.983   6.142  0.00  0.00    +0.015 A 
ATOM     27  C   UNL     1      -1.961 -15.008   5.450  0.00  0.00    +0.059 A 
ATOM     28  C   UNL     1      -2.731 -14.084   6.158  0.00  0.00    +0.015 A 
ATOM     29  C   UNL     1      -2.778 -14.142   7.536  0.00  0.00    +0.004 A 
ENDBRANCH  21  27
ENDBRANCH  20  21
ENDBRANCH  12  20
ENDBRANCH   1  15
BRANCH   2  30
ATOM     30  N   UNL     1      -1.884 -11.222  -2.497  0.00  0.00    -0.323 N 
ATOM     31  H   UNL     1      -2.086 -11.064  -1.562  0.00  0.00    +0.148 HD
BRANCH  30  32
ATOM     32  C   UNL     1      -1.619 -10.091  -3.390  0.00  0.00    +0.028 C 
ATOM     33  C   UNL     1      -0.283 -10.306  -4.104  0.00  0.00    +0.031 C 
ATOM     34  C   UNL     1      -2.740  -9.986  -4.426  0.00  0.00    +0.031 C 
BRANCH  32  35
ATOM     35  C   UNL     1      -1.558  -8.799  -2.573  0.00  0.00    +0.031 C 
BRANCH  35  36
ATOM     36  C   UNL     1      -2.589  -8.860  -1.444  0.00  0.00    -0.036 C 
ATOM     37  C   UNL     1      -2.061  -9.750  -0.318  0.00  0.00    +0.010 C 
ATOM     38  C   UNL     1      -2.840  -7.450  -0.905  0.00  0.00    +0.010 C 
ATOM     39  C   UNL     1      -3.899  -9.441  -1.981  0.00  0.00    +0.010 C 
ENDBRANCH  35  36
ENDBRANCH  32  35
ENDBRANCH  30  32
ENDBRANCH   2  30
TORSDOF 9
