REMARK  Name = ZINC09712642
REMARK  5 active torsions:
REMARK  status: ('A' for Active; 'I' for Inactive)
REMARK    1  A    between atoms: C_1  and  C_2
REMARK    2  A    between atoms: C_7  and  N_8
REMARK    3  A    between atoms: C_11  and  C_16
REMARK    4  A    between atoms: C_16  and  N_52
REMARK    5  A    between atoms: C_24  and  C_26
REMARK                            x       y       z     vdW  Elec       q    Type
REMARK                         _______ _______ _______ _____ _____    ______ ____
ROOT
ATOM      1  N   UNL     1       5.000   6.933  -5.120  0.00  0.00    -0.283 N 
ATOM      2  C   UNL     1       4.514   5.816  -4.467  0.00  0.00    +0.224 A 
ATOM      3  N   UNL     1       3.422   5.908  -3.712  0.00  0.00    -0.201 NA
ATOM      4  C   UNL     1       2.960   4.842  -3.083  0.00  0.00    +0.120 A 
ATOM      5  N   UNL     1       3.573   3.678  -3.210  0.00  0.00    -0.202 NA
ATOM      6  C   UNL     1       4.663   3.577  -3.967  0.00  0.00    +0.217 A 
ATOM      7  N   UNL     1       5.134   4.648  -4.597  0.00  0.00    -0.181 NA
ATOM      8  N   UNL     1       5.303   2.361  -4.099  0.00  0.00    -0.327 N 
ATOM      9  H   UNL     1       4.501   7.764  -5.095  0.00  0.00    +0.155 HD
ATOM     10  H   UNL     1       4.958   1.580  -3.640  0.00  0.00    +0.145 HD
ATOM     11  H   UNL     1       6.096   2.288  -4.652  0.00  0.00    +0.145 HD
ENDROOT
BRANCH   1  18
ATOM     12  C   UNL     1       5.424   8.762  -7.257  0.00  0.00    +0.045 C 
ATOM     13  C   UNL     1       6.458   7.738  -6.867  0.00  0.00    -0.029 A 
ATOM     14  C   UNL     1       7.657   7.671  -7.551  0.00  0.00    +0.005 A 
ATOM     15  C   UNL     1       8.604   6.728  -7.198  0.00  0.00    +0.000 A 
ATOM     16  C   UNL     1       8.357   5.852  -6.156  0.00  0.00    +0.002 A 
ATOM     17  C   UNL     1       7.163   5.917  -5.465  0.00  0.00    +0.023 A 
ATOM     18  C   UNL     1       6.210   6.864  -5.818  0.00  0.00    +0.036 A 
ENDBRANCH   1  18
BRANCH   4  19
ATOM     19  C   UNL     1       1.726   4.952  -2.224  0.00  0.00    +0.000 C 
BRANCH  19  28
ATOM     20  C   UNL     1       2.741   6.613  -0.784  0.00  0.00    -0.072 C 
ATOM     21  C   UNL     1       3.489   6.745   0.553  0.00  0.00    +0.024 C 
ATOM     22  C   UNL     1       2.578   6.262   1.634  0.00  0.00    -0.010 A 
ATOM     23  C   UNL     1       1.429   5.548   1.471  0.00  0.00    -0.046 A 
ATOM     24  C   UNL     1       0.739   5.207   2.631  0.00  0.00    +0.010 A 
ATOM     25  C   UNL     1       1.218   5.583   3.840  0.00  0.00    +0.045 A 
ATOM     26  S   UNL     1       2.708   6.461   3.388  0.00  0.00    -0.101 S 
ATOM     27  C   UNL     1       0.972   5.168   0.066  0.00  0.00    +0.001 C 
ATOM     28  N   UNL     1       2.140   5.259  -0.842  0.00  0.00    +0.392 N 
ATOM     29  H   UNL     1       2.844   4.573  -0.544  0.00  0.00    -0.080 HD
BRANCH  27  30
ATOM     30  C   UNL     1       0.466   3.748   0.064  0.00  0.00    -0.019 A 
ATOM     31  C   UNL     1      -0.812   3.298   0.088  0.00  0.00    +0.010 A 
ATOM     32  C   UNL     1      -1.042   1.935   0.077  0.00  0.00    +0.008 A 
ATOM     33  C   UNL     1       0.017   1.089   0.052  0.00  0.00    +0.045 A 
ATOM     34  S   UNL     1       1.395   2.224   0.032  0.00  0.00    -0.103 S 
ENDBRANCH  27  30
ENDBRANCH  19  28
ENDBRANCH   4  19
TORSDOF 4
