REMARK  Name = ZINC36206263
REMARK  13 active torsions:
REMARK  status: ('A' for Active; 'I' for Inactive)
REMARK    1  A    between atoms: C_1  and  C_2
REMARK    2  A    between atoms: C_2  and  C_3
REMARK    3  A    between atoms: C_2  and  C_4
REMARK    4  A    between atoms: C_4  and  O_5
REMARK    5  A    between atoms: O_5  and  C_6
REMARK    6  A    between atoms: C_6  and  C_7
REMARK    7  A    between atoms: C_7  and  C_9
REMARK    8  A    between atoms: C_7  and  O_36
REMARK    9  A    between atoms: C_9  and  N_10
REMARK   10  A    between atoms: N_10  and  C_11
REMARK   11  A    between atoms: N_10  and  C_30
REMARK   12  A    between atoms: C_11  and  C_12
REMARK   13  A    between atoms: C_18  and  C_23
REMARK                            x       y       z     vdW  Elec       q    Type
REMARK                         _______ _______ _______ _____ _____    ______ ____
ROOT
ATOM      1  C   UNL     1      -7.516   0.507  -3.671  0.00  0.00    -0.003 C 
ENDROOT
BRANCH   1   2
ATOM      2  C   UNL     1      -7.846   1.837  -4.298  0.00  0.00    +0.094 A 
ATOM      3  N   UNL     1      -9.036   2.428  -4.019  0.00  0.00    -0.312 N 
ATOM      4  H   UNL     1      -9.658   1.986  -3.420  0.00  0.00    +0.170 HD
ATOM      5  C   UNL     1      -9.370   3.616  -4.557  0.00  0.00    +0.260 A 
ATOM      6  O   UNL     1     -10.442   4.134  -4.296  0.00  0.00    -0.267 OA
ATOM      7  C   UNL     1      -8.446   4.262  -5.439  0.00  0.00    +0.080 A 
ATOM      8  C   UNL     1      -8.574   5.535  -6.138  0.00  0.00    +0.006 A 
ATOM      9  C   UNL     1      -7.556   5.949  -6.930  0.00  0.00    +0.056 A 
ATOM     10  S   UNL     1      -6.358   4.638  -6.781  0.00  0.00    -0.076 S 
ATOM     11  C   UNL     1      -7.243   3.575  -5.668  0.00  0.00    +0.116 A 
ATOM     12  N   UNL     1      -6.981   2.404  -5.095  0.00  0.00    -0.229 NA
BRANCH   8  13
ATOM     13  C   UNL     1      -9.795   6.362  -5.984  0.00  0.00    +0.019 A 
ATOM     14  C   UNL     1     -10.632   6.583  -7.076  0.00  0.00    +0.011 A 
ATOM     15  C   UNL     1     -11.768   7.353  -6.927  0.00  0.00    +0.001 A 
ATOM     16  C   UNL     1     -12.078   7.905  -5.697  0.00  0.00    +0.003 A 
ATOM     17  C   UNL     1     -11.252   7.690  -4.608  0.00  0.00    +0.039 A 
ATOM     18  C   UNL     1     -10.115   6.916  -4.743  0.00  0.00    +0.131 A 
ATOM     19  F   UNL     1      -9.311   6.702  -3.678  0.00  0.00    -0.205 F 
ENDBRANCH   8  13
ENDBRANCH   1   2
BRANCH   1  20
ATOM     20  N   UNL     1      -6.268  -0.010  -4.249  0.00  0.00    +0.388 N 
ATOM     21  H   UNL     1      -5.623   0.753  -4.394  0.00  0.00    -0.081 HD
BRANCH  20  22
ATOM     22  C   UNL     1      -6.555  -0.659  -5.535  0.00  0.00    -0.068 C 
ATOM     23  C   UNL     1      -7.230   0.344  -6.473  0.00  0.00    -0.015 C 
ATOM     24  C   UNL     1      -7.530  -0.331  -7.813  0.00  0.00    -0.002 C 
ATOM     25  C   UNL     1      -8.461  -1.524  -7.585  0.00  0.00    -0.000 C 
ATOM     26  C   UNL     1      -7.786  -2.527  -6.648  0.00  0.00    -0.002 C 
ATOM     27  C   UNL     1      -7.487  -1.851  -5.308  0.00  0.00    -0.015 C 
ENDBRANCH  20  22
BRANCH  20  28
ATOM     28  C   UNL     1      -5.670  -0.988  -3.330  0.00  0.00    -0.044 C 
BRANCH  28  29
ATOM     29  C   UNL     1      -4.292  -1.401  -3.850  0.00  0.00    +0.124 C 
BRANCH  29  30
ATOM     30  O   UNL     1      -4.444  -2.161  -5.051  0.00  0.00    -0.391 OA
ATOM     31  H   UNL     1      -5.020  -2.933  -4.957  0.00  0.00    +0.210 HD
ENDBRANCH  29  30
BRANCH  29  32
ATOM     32  C   UNL     1      -3.583  -2.252  -2.795  0.00  0.00    +0.189 C 
BRANCH  32  33
ATOM     33  O   UNL     1      -2.253  -2.540  -3.231  0.00  0.00    -0.377 OA
BRANCH  33  34
ATOM     34  C   UNL     1      -1.499  -3.334  -2.312  0.00  0.00    +0.163 C 
BRANCH  34  36
ATOM     35  C   UNL     1       0.652  -2.249  -2.975  0.00  0.00    +0.009 C 
ATOM     36  C   UNL     1      -0.099  -3.579  -2.878  0.00  0.00    +0.009 C 
ATOM     37  C   UNL     1       0.665  -4.530  -1.956  0.00  0.00    +0.009 C 
ENDBRANCH  34  36
ENDBRANCH  33  34
ENDBRANCH  32  33
ENDBRANCH  29  32
ENDBRANCH  28  29
ENDBRANCH  20  28
ENDBRANCH   1  20
TORSDOF 11
