REMARK  Name = ZINC39041042
REMARK  6 active torsions:
REMARK  status: ('A' for Active; 'I' for Inactive)
REMARK    1  A    between atoms: C_1  and  C_2
REMARK    2  A    between atoms: C_2  and  C_3
REMARK    3  A    between atoms: C_2  and  C_4
REMARK    4  A    between atoms: C_4  and  C_5
REMARK    5  A    between atoms: C_7  and  C_11
REMARK    6  A    between atoms: C_15  and  C_20
REMARK                            x       y       z     vdW  Elec       q    Type
REMARK                         _______ _______ _______ _____ _____    ______ ____
ROOT
ATOM      1  C   UNL     1      -0.180  -5.030   0.698  0.00  0.00    +0.182 C 
ATOM      2  N   UNL     1      -0.114  -6.372   0.060  0.00  0.00    -0.265 N 
ATOM      3  N   UNL     1       0.378  -7.364   0.855  0.00  0.00    -0.220 N 
ATOM      4  C   UNL     1       0.951  -8.621   0.685  0.00  0.00    +0.183 A 
ATOM      5  N   UNL     1       1.178  -9.120   1.875  0.00  0.00    -0.127 NA
ATOM      6  N   UNL     1       0.813  -8.281   2.779  0.00  0.00    -0.120 NA
ATOM      7  C   UNL     1       0.346  -7.208   2.217  0.00  0.00    +0.211 A 
ATOM      8  S   UNL     1      -0.316  -5.571   2.457  0.00  0.00    -0.058 S 
ATOM      9  H   UNL     1      -1.007  -6.631  -0.331  0.00  0.00    +0.168 HD
ENDROOT
BRANCH   4  10
ATOM     10  C   UNL     1       1.248  -9.277  -0.606  0.00  0.00    +0.035 A 
ATOM     11  C   UNL     1       0.957  -8.626  -1.806  0.00  0.00    +0.013 A 
ATOM     12  C   UNL     1       1.236  -9.243  -3.008  0.00  0.00    +0.001 A 
ATOM     13  C   UNL     1       1.804 -10.505  -3.026  0.00  0.00    +0.001 A 
ATOM     14  C   UNL     1       2.095 -11.156  -1.841  0.00  0.00    +0.016 A 
ATOM     15  C   UNL     1       1.826 -10.547  -0.631  0.00  0.00    +0.029 A 
ATOM     16 BR   UNL     1       2.233 -11.435   0.988  0.00  0.00    -0.050 Br
ENDBRANCH   4  10
BRANCH   1  19
ATOM     17  C   UNL     1      -1.416  -2.035  -0.119  0.00  0.00    +0.062 C 
ATOM     18  C   UNL     1      -1.465  -2.886   0.907  0.00  0.00    +0.029 C 
ATOM     19  C   UNL     1      -1.420  -4.254   0.250  0.00  0.00    +0.185 C 
ATOM     20  N   UNL     1      -1.346  -3.930  -1.185  0.00  0.00    -0.177 NA
ATOM     21  N   UNL     1      -1.355  -2.701  -1.293  0.00  0.00    -0.159 NA
BRANCH  17  22
ATOM     22  C   UNL     1      -1.433  -0.534   0.013  0.00  0.00    +0.060 C 
BRANCH  22  24
ATOM     23  C   UNL     1      -0.019   1.526   0.010  0.00  0.00    +0.007 C 
ATOM     24  C   UNL     1       0.002  -0.004   0.002  0.00  0.00    -0.011 C 
ATOM     25  C   UNL     1       0.742  -0.511   1.242  0.00  0.00    +0.007 C 
ENDBRANCH  22  24
ENDBRANCH  17  22
ENDBRANCH   1  19
TORSDOF 4
