REMARK  Name = ZINC24105444
REMARK  10 active torsions:
REMARK  status: ('A' for Active; 'I' for Inactive)
REMARK    1  A    between atoms: C_1  and  C_2
REMARK    2  A    between atoms: C_2  and  C_4
REMARK    3  A    between atoms: C_2  and  N_34
REMARK    4  A    between atoms: C_7  and  S_16
REMARK    5  A    between atoms: N_8  and  C_9
REMARK    6  A    between atoms: S_16  and  C_17
REMARK    7  A    between atoms: C_17  and  C_18
REMARK    8  A    between atoms: C_24  and  C_29
REMARK    9  A    between atoms: N_34  and  C_35
REMARK   10  A    between atoms: N_34  and  C_36
REMARK                            x       y       z     vdW  Elec       q    Type
REMARK                         _______ _______ _______ _____ _____    ______ ____
ROOT
ATOM      1  C   UNL     1       0.731  -0.503   1.223  0.00  0.00    +0.125 A 
ATOM      2  N   UNL     1       0.272  -0.523   2.442  0.00  0.00    -0.135 NA
ATOM      3  N   UNL     1       1.153  -1.012   3.239  0.00  0.00    -0.122 NA
ATOM      4  C   UNL     1       2.234  -1.336   2.567  0.00  0.00    +0.196 A 
ATOM      5  N   UNL     1       1.996  -1.026   1.256  0.00  0.00    -0.275 N 
ENDROOT
BRANCH   5   6
ATOM      6  C   UNL     1       2.869  -1.204   0.171  0.00  0.00    +0.050 A 
ATOM      7  C   UNL     1       2.541  -2.090  -0.846  0.00  0.00    +0.029 A 
ATOM      8  C   UNL     1       3.401  -2.264  -1.913  0.00  0.00    +0.040 A 
ATOM      9  C   UNL     1       4.590  -1.555  -1.968  0.00  0.00    +0.124 A 
ATOM     10  C   UNL     1       4.918  -0.671  -0.954  0.00  0.00    +0.040 A 
ATOM     11  C   UNL     1       4.058  -0.490   0.111  0.00  0.00    +0.029 A 
ATOM     12  F   UNL     1       5.430  -1.727  -3.012  0.00  0.00    -0.205 F 
ENDBRANCH   5   6
BRANCH   1  14
ATOM     13  C   UNL     1      -0.019   1.526   0.010  0.00  0.00    -0.005 C 
ATOM     14  C   UNL     1       0.002  -0.004   0.002  0.00  0.00    -0.003 C 
BRANCH  14  15
ATOM     15  N   UNL     1      -1.376  -0.512   0.012  0.00  0.00    +0.382 N 
ATOM     16  C   UNL     1      -2.087  -0.026  -1.178  0.00  0.00    -0.096 C 
ATOM     17  C   UNL     1      -1.356  -1.981   0.004  0.00  0.00    -0.096 C 
ATOM     18  H   UNL     1      -1.848  -0.187   0.843  0.00  0.00    -0.082 HD
ENDBRANCH  14  15
ENDBRANCH   1  14
BRANCH   4  19
ATOM     19  S   UNL     1       3.707  -2.041   3.227  0.00  0.00    -0.078 S 
BRANCH  19  20
ATOM     20  C   UNL     1       3.362  -2.199   5.001  0.00  0.00    +0.151 C 
BRANCH  20  21
ATOM     21  C   UNL     1       4.558  -2.798   5.694  0.00  0.00    +0.121 A 
ATOM     22  N   UNL     1       4.515  -3.012   7.034  0.00  0.00    -0.310 N 
ATOM     23  H   UNL     1       3.714  -2.776   7.528  0.00  0.00    +0.170 HD
ATOM     24  C   UNL     1       5.562  -3.545   7.691  0.00  0.00    +0.260 A 
ATOM     25  O   UNL     1       5.507  -3.732   8.895  0.00  0.00    -0.267 OA
ATOM     26  C   UNL     1       6.740  -3.890   6.956  0.00  0.00    +0.083 A 
ATOM     27  C   UNL     1       7.988  -4.474   7.434  0.00  0.00    +0.039 A 
ATOM     28  C   UNL     1       8.979  -4.717   6.538  0.00  0.00    +0.059 A 
ATOM     29  S   UNL     1       8.280  -4.169   4.992  0.00  0.00    -0.076 S 
ATOM     30  C   UNL     1       6.693  -3.633   5.576  0.00  0.00    +0.116 A 
ATOM     31  N   UNL     1       5.617  -3.108   4.995  0.00  0.00    -0.226 NA
BRANCH  27  32
ATOM     32  C   UNL     1       8.171  -4.794   8.864  0.00  0.00    +0.136 A 
ATOM     33  C   UNL     1       8.617  -5.977   9.367  0.00  0.00    +0.050 A 
ATOM     34  C   UNL     1       8.636  -5.840  10.770  0.00  0.00    +0.042 A 
ATOM     35  C   UNL     1       8.205  -4.595  11.051  0.00  0.00    +0.196 A 
ATOM     36  O   UNL     1       7.931  -3.964   9.897  0.00  0.00    -0.463 OA
ENDBRANCH  27  32
ENDBRANCH  20  21
ENDBRANCH  19  20
ENDBRANCH   4  19
TORSDOF 7
