REMARK  Name = ZINC15587433
REMARK  7 active torsions:
REMARK  status: ('A' for Active; 'I' for Inactive)
REMARK    1  A    between atoms: C_7  and  C_13
REMARK    2  A    between atoms: C_13  and  O_15
REMARK    3  A    between atoms: O_15  and  C_16
REMARK    4  A    between atoms: C_16  and  C_17
REMARK    5  A    between atoms: N_19  and  C_20
REMARK    6  A    between atoms: C_25  and  S_26
REMARK    7  A    between atoms: S_26  and  C_27
REMARK                            x       y       z     vdW  Elec       q    Type
REMARK                         _______ _______ _______ _____ _____    ______ ____
ROOT
ATOM      1  C   UNL     1      -4.870  -0.109   0.561  0.00  0.00    +0.255 C 
ATOM      2  O   UNL     1      -4.769   1.050   0.904  0.00  0.00    -0.272 OA
ATOM      3  N   UNL     1      -6.084  -0.631   0.296  0.00  0.00    -0.282 N 
ATOM      4  H   UNL     1      -6.184  -1.702   0.068  0.00  0.00    +0.155 HD
ENDROOT
BRANCH   3   5
ATOM      5  C   UNL     1      -7.218   0.192   0.311  0.00  0.00    +0.047 A 
ATOM      6  C   UNL     1      -7.081   1.567   0.202  0.00  0.00    +0.024 A 
ATOM      7  C   UNL     1      -8.201   2.377   0.216  0.00  0.00    +0.002 A 
ATOM      8  C   UNL     1      -9.461   1.820   0.339  0.00  0.00    +0.001 A 
ATOM      9  C   UNL     1      -9.608   0.450   0.449  0.00  0.00    +0.017 A 
ATOM     10  C   UNL     1      -8.489  -0.371   0.429  0.00  0.00    +0.034 A 
BRANCH  10  11
ATOM     11  S   UNL     1      -8.673  -2.119   0.561  0.00  0.00    -0.088 S 
BRANCH  11  12
ATOM     12  C   UNL     1     -10.396  -2.345   0.850  0.00  0.00    +0.013 A 
ATOM     13  C   UNL     1     -10.901  -2.270   2.142  0.00  0.00    +0.016 A 
ATOM     14  C   UNL     1     -12.253  -2.442   2.365  0.00  0.00    +0.021 A 
ATOM     15  C   UNL     1     -13.103  -2.702   1.304  0.00  0.00    +0.041 A 
ATOM     16  C   UNL     1     -12.602  -2.784   0.016  0.00  0.00    +0.021 A 
ATOM     17  C   UNL     1     -11.252  -2.606  -0.213  0.00  0.00    +0.016 A 
ATOM     18 CL   UNL     1     -14.801  -2.925   1.589  0.00  0.00    -0.084 Cl
ENDBRANCH  11  12
ENDBRANCH  10  11
ENDBRANCH   3   5
BRANCH   1  19
ATOM     19  C   UNL     1      -3.637  -0.966   0.430  0.00  0.00    +0.328 C 
BRANCH  19  20
ATOM     20  O   UNL     1      -2.463  -0.180   0.767  0.00  0.00    -0.452 OA
BRANCH  20  21
ATOM     21  C   UNL     1      -1.271  -0.802   0.701  0.00  0.00    +0.340 C 
ATOM     22  O   UNL     1      -1.213  -1.969   0.371  0.00  0.00    -0.245 OA
BRANCH  21  29
ATOM     23  C   UNL     1      -1.286   3.428   1.521  0.00  0.00    +0.001 A 
ATOM     24  C   UNL     1      -0.110   4.099   1.827  0.00  0.00    +0.002 A 
ATOM     25  C   UNL     1       1.091   3.425   1.876  0.00  0.00    +0.026 A 
ATOM     26  C   UNL     1       1.128   2.057   1.616  0.00  0.00    +0.050 A 
ATOM     27  C   UNL     1      -0.066   1.382   1.306  0.00  0.00    +0.012 A 
ATOM     28  C   UNL     1      -1.273   2.086   1.268  0.00  0.00    +0.011 A 
ATOM     29  C   UNL     1      -0.029  -0.062   1.031  0.00  0.00    +0.073 A 
ATOM     30  C   UNL     1       1.173  -0.707   1.086  0.00  0.00    +0.085 A 
ATOM     31  C   UNL     1       2.380   0.051   1.413  0.00  0.00    +0.250 A 
ATOM     32  O   UNL     1       3.454  -0.523   1.462  0.00  0.00    -0.268 OA
ATOM     33  N   UNL     1       2.322   1.371   1.661  0.00  0.00    -0.322 N 
ATOM     34  H   UNL     1       3.254   1.903   1.904  0.00  0.00    +0.169 HD
ENDBRANCH  21  29
ENDBRANCH  20  21
ENDBRANCH  19  20
ENDBRANCH   1  19
TORSDOF 7
