REMARK  Name = ZINC01382141
REMARK  13 active torsions:
REMARK  status: ('A' for Active; 'I' for Inactive)
REMARK    1  A    between atoms: C_1  and  C_2
REMARK    2  A    between atoms: C_5  and  C_43
REMARK    3  A    between atoms: C_9  and  C_14
REMARK    4  A    between atoms: C_14  and  C_16
REMARK    5  A    between atoms: C_14  and  N_27
REMARK    6  A    between atoms: N_20  and  C_21
REMARK    7  A    between atoms: C_21  and  C_22
REMARK    8  A    between atoms: N_27  and  C_28
REMARK    9  A    between atoms: N_27  and  C_37
REMARK   10  A    between atoms: C_28  and  C_29
REMARK   11  A    between atoms: C_33  and  O_35
REMARK   12  A    between atoms: O_35  and  C_36
REMARK   13  A    between atoms: C_37  and  C_38
REMARK                            x       y       z     vdW  Elec       q    Type
REMARK                         _______ _______ _______ _____ _____    ______ ____
ROOT
ATOM      1  C   UNL     1      -0.181  -0.288   4.741  0.00  0.00    +0.163 C 
ENDROOT
BRANCH   1  10
ATOM      2  C   UNL     1      -2.332   1.791   0.479  0.00  0.00    +0.044 C 
ATOM      3  C   UNL     1      -2.484   0.296   0.373  0.00  0.00    -0.041 A 
ATOM      4  C   UNL     1      -3.097  -0.256  -0.716  0.00  0.00    +0.004 A 
ATOM      5  C   UNL     1      -3.242  -1.632  -0.824  0.00  0.00    +0.005 A 
ATOM      6  C   UNL     1      -2.770  -2.469   0.165  0.00  0.00    -0.026 A 
ATOM      7  C   UNL     1      -2.143  -1.930   1.283  0.00  0.00    +0.052 A 
ATOM      8  C   UNL     1      -1.993  -0.534   1.386  0.00  0.00    +0.002 A 
ATOM      9  C   UNL     1      -1.327   0.024   2.565  0.00  0.00    +0.021 A 
ATOM     10  C   UNL     1      -0.872  -0.829   3.515  0.00  0.00    +0.042 A 
ATOM     11  C   UNL     1      -1.042  -2.222   3.361  0.00  0.00    +0.254 A 
ATOM     12  O   UNL     1      -0.625  -2.971   4.228  0.00  0.00    -0.268 OA
ATOM     13  N   UNL     1      -1.662  -2.743   2.288  0.00  0.00    -0.322 N 
ATOM     14  H   UNL     1      -1.762  -3.704   2.213  0.00  0.00    +0.169 HD
ATOM     15  C   UNL     1      -2.935  -3.961   0.036  0.00  0.00    +0.046 C 
ENDBRANCH   1  10
BRANCH   1  16
ATOM     16  C   UNL     1       1.257  -0.739   4.747  0.00  0.00    +0.174 A 
ATOM     17  N   UNL     1       1.728  -1.845   5.270  0.00  0.00    -0.111 NA
ATOM     18  N   UNL     1       3.001  -1.869   5.071  0.00  0.00    -0.023 NA
ATOM     19  N   UNL     1       3.354  -0.807   4.434  0.00  0.00    -0.043 NA
ATOM     20  N   UNL     1       2.306  -0.088   4.211  0.00  0.00    -0.220 N 
BRANCH  20  21
ATOM     21  C   UNL     1       2.266   1.198   3.510  0.00  0.00    +0.221 C 
BRANCH  21  22
ATOM     22  C   UNL     1       2.555   2.311   4.484  0.00  0.00    +0.126 A 
ATOM     23  C   UNL     1       3.770   2.810   4.771  0.00  0.00    +0.046 A 
ATOM     24  C   UNL     1       3.578   3.832   5.729  0.00  0.00    +0.041 A 
ATOM     25  C   UNL     1       2.257   3.896   5.971  0.00  0.00    +0.195 A 
ATOM     26  O   UNL     1       1.641   2.976   5.210  0.00  0.00    -0.466 OA
ENDBRANCH  21  22
ENDBRANCH  20  21
ENDBRANCH   1  16
BRANCH   1  27
ATOM     27  N   UNL     1      -0.856  -0.790   5.945  0.00  0.00    -0.277 NA
BRANCH  27  28
ATOM     28  C   UNL     1      -0.452  -0.025   7.132  0.00  0.00    +0.121 C 
BRANCH  28  29
ATOM     29  C   UNL     1       0.912  -0.480   7.583  0.00  0.00    -0.030 A 
ATOM     30  C   UNL     1       1.038  -1.609   8.371  0.00  0.00    +0.005 A 
ATOM     31  C   UNL     1       2.288  -2.030   8.786  0.00  0.00    +0.004 A 
ATOM     32  C   UNL     1       3.415  -1.321   8.414  0.00  0.00    +0.045 A 
ATOM     33  C   UNL     1       3.291  -0.188   7.623  0.00  0.00    +0.120 A 
ATOM     34  C   UNL     1       2.036   0.228   7.203  0.00  0.00    +0.050 A 
BRANCH  33  35
ATOM     35  O   UNL     1       4.398   0.510   7.256  0.00  0.00    -0.495 OA
ATOM     36  C   UNL     1       5.657   0.020   7.721  0.00  0.00    +0.277 C 
ENDBRANCH  33  35
ENDBRANCH  28  29
ENDBRANCH  27  28
BRANCH  27  37
ATOM     37  C   UNL     1      -2.316  -0.769   5.777  0.00  0.00    +0.160 C 
BRANCH  37  38
ATOM     38  C   UNL     1      -2.956  -1.615   6.847  0.00  0.00    +0.119 A 
ATOM     39  C   UNL     1      -3.425  -1.170   8.027  0.00  0.00    +0.046 A 
ATOM     40  C   UNL     1      -3.937  -2.294   8.715  0.00  0.00    +0.041 A 
ATOM     41  C   UNL     1      -3.751  -3.359   7.914  0.00  0.00    +0.195 A 
ATOM     42  O   UNL     1      -3.162  -2.941   6.782  0.00  0.00    -0.467 OA
ENDBRANCH  37  38
ENDBRANCH  27  37
ENDBRANCH   1  27
TORSDOF 10
