REMARK  Name = ZINC11817701
REMARK  4 active torsions:
REMARK  status: ('A' for Active; 'I' for Inactive)
REMARK    1  A    between atoms: C_11  and  C_13
REMARK    2  A    between atoms: C_13  and  C_14
REMARK    3  A    between atoms: C_21  and  C_22
REMARK    4  A    between atoms: C_21  and  N_52
REMARK                            x       y       z     vdW  Elec       q    Type
REMARK                         _______ _______ _______ _____ _____    ______ ____
ROOT
ATOM      1  C   UNL     1       5.480   2.990  -1.459  0.00  0.00    +0.028 C 
ATOM      2  C   UNL     1       6.125   2.819  -2.806  0.00  0.00    +0.200 C 
ATOM      3  O   UNL     1       6.911   3.662  -3.184  0.00  0.00    -0.278 OA
ATOM      4  N   UNL     1       5.867   1.778  -3.604  0.00  0.00    -0.318 N 
ATOM      5  C   UNL     1       4.911   0.730  -3.259  0.00  0.00    +0.085 C 
ATOM      6  C   UNL     1       4.629   0.753  -1.756  0.00  0.00    -0.058 C 
ATOM      7  H   UNL     1       6.337   1.716  -4.451  0.00  0.00    +0.149 HD
ATOM      8  N   UNL     1       4.279   2.137  -1.377  0.00  0.00    +0.391 N 
ATOM      9  H   UNL     1       3.569   2.493  -2.027  0.00  0.00    -0.080 HD
ENDROOT
BRANCH   1  10
ATOM     10  C   UNL     1       5.065   4.451  -1.276  0.00  0.00    +0.090 C 
BRANCH  10  21
ATOM     11  C   UNL     1       0.362   8.947   0.378  0.00  0.00    +0.000 A 
ATOM     12  C   UNL     1       1.605   9.106   0.961  0.00  0.00    +0.000 A 
ATOM     13  C   UNL     1       2.703   8.475   0.415  0.00  0.00    +0.005 A 
ATOM     14  C   UNL     1       2.569   7.679  -0.715  0.00  0.00    -0.027 A 
ATOM     15  C   UNL     1       1.329   7.511  -1.291  0.00  0.00    -0.041 A 
ATOM     16  C   UNL     1       0.226   8.154  -0.742  0.00  0.00    +0.004 A 
ATOM     17  C   UNL     1       1.101   6.638  -2.497  0.00  0.00    +0.054 C 
ATOM     18  C   UNL     1       2.411   6.405  -3.257  0.00  0.00    +0.113 C 
ATOM     19  N   UNL     1       3.437   6.024  -2.272  0.00  0.00    -0.297 N 
ATOM     20  C   UNL     1       3.811   7.026  -1.268  0.00  0.00    +0.143 C 
ATOM     21  C   UNL     1       4.013   4.806  -2.295  0.00  0.00    +0.215 C 
ATOM     22  O   UNL     1       3.686   3.996  -3.136  0.00  0.00    -0.276 OA
ENDBRANCH  10  21
ENDBRANCH   1  10
BRANCH   8  23
ATOM     23  C   UNL     1       3.732   2.164  -0.001  0.00  0.00    -0.039 C 
BRANCH  23  24
ATOM     24  C   UNL     1       2.391   1.476   0.005  0.00  0.00    -0.026 A 
ATOM     25  C   UNL     1       1.234   2.215  -0.163  0.00  0.00    +0.005 A 
ATOM     26  C   UNL     1       0.004   1.585  -0.158  0.00  0.00    +0.003 A 
ATOM     27  C   UNL     1      -0.073   0.215   0.016  0.00  0.00    +0.041 A 
ATOM     28  C   UNL     1       1.083  -0.526   0.184  0.00  0.00    +0.159 A 
ATOM     29  C   UNL     1       2.318   0.105   0.179  0.00  0.00    +0.160 A 
ATOM     30  F   UNL     1       3.448  -0.617   0.344  0.00  0.00    -0.202 F 
ATOM     31  F   UNL     1       1.009  -1.865   0.354  0.00  0.00    -0.202 F 
ENDBRANCH  23  24
ENDBRANCH   8  23
TORSDOF 4
