REMARK  Name = ZINC09788878
REMARK  6 active torsions:
REMARK  status: ('A' for Active; 'I' for Inactive)
REMARK    1  A    between atoms: C_1  and  C_2
REMARK    2  A    between atoms: C_2  and  C_4
REMARK    3  A    between atoms: C_2  and  S_17
REMARK    4  A    between atoms: S_17  and  C_18
REMARK    5  A    between atoms: C_21  and  C_26
REMARK    6  A    between atoms: N_22  and  C_23
REMARK                            x       y       z     vdW  Elec       q    Type
REMARK                         _______ _______ _______ _____ _____    ______ ____
ROOT
ATOM      1  C   UNL     1      -0.092   0.149  -0.094  0.00  0.00    +0.193 A 
ATOM      2  N   UNL     1       0.090   1.420   0.180  0.00  0.00    -0.122 NA
ATOM      3  N   UNL     1       1.346   1.691   0.206  0.00  0.00    -0.128 NA
ATOM      4  C   UNL     1       2.044   0.608  -0.051  0.00  0.00    +0.167 A 
ATOM      5  N   UNL     1       1.145  -0.414  -0.251  0.00  0.00    -0.299 N 
ENDROOT
BRANCH   4   6
ATOM      6  C   UNL     1       3.516   0.507  -0.113  0.00  0.00    +0.044 A 
ATOM      7  C   UNL     1       4.245  -0.630  -0.257  0.00  0.00    +0.095 A 
ATOM      8  N   UNL     1       5.576  -0.324  -0.273  0.00  0.00    -0.360 N 
ATOM      9  H   UNL     1       6.293  -0.971  -0.366  0.00  0.00    +0.165 HD
ATOM     10  C   UNL     1       5.753   1.036  -0.139  0.00  0.00    +0.047 A 
ATOM     11  C   UNL     1       4.479   1.619  -0.039  0.00  0.00    +0.010 A 
ATOM     12  C   UNL     1       4.352   2.998   0.113  0.00  0.00    +0.011 A 
ATOM     13  C   UNL     1       5.481   3.786   0.153  0.00  0.00    +0.001 A 
ATOM     14  C   UNL     1       6.740   3.212   0.049  0.00  0.00    +0.002 A 
ATOM     15  C   UNL     1       6.881   1.850  -0.096  0.00  0.00    +0.026 A 
ENDBRANCH   4   6
BRANCH   5  16
ATOM     16  C   UNL     1       1.448  -1.812  -0.566  0.00  0.00    +0.091 C 
ATOM     17  C   UNL     1       0.268  -2.748  -0.835  0.00  0.00    +0.027 C 
ATOM     18  C   UNL     1       1.061  -2.869   0.469  0.00  0.00    +0.027 C 
ENDBRANCH   5  16
BRANCH   1  19
ATOM     19  S   UNL     1      -1.642  -0.678  -0.233  0.00  0.00    -0.073 S 
BRANCH  19  21
ATOM     20  C   UNL     1      -2.639   1.743  -1.014  0.00  0.00    +0.029 C 
ATOM     21  C   UNL     1      -2.765   0.702   0.100  0.00  0.00    +0.137 C 
BRANCH  21  22
ATOM     22  C   UNL     1      -4.183   0.193   0.154  0.00  0.00    +0.233 C 
ATOM     23  O   UNL     1      -4.466  -0.870  -0.357  0.00  0.00    -0.274 OA
ATOM     24  N   UNL     1      -5.136   0.920   0.771  0.00  0.00    -0.260 N 
ATOM     25  C   UNL     1      -4.818   2.208   1.404  0.00  0.00    +0.209 C 
ATOM     26  C   UNL     1      -5.535   2.303   2.722  0.00  0.00    +0.235 C 
ATOM     27  O   UNL     1      -5.055   2.966   3.618  0.00  0.00    -0.274 OA
ATOM     28  N   UNL     1      -6.700   1.659   2.922  0.00  0.00    -0.283 N 
ATOM     29  C   UNL     1      -7.250   0.849   1.923  0.00  0.00    +0.055 A 
ATOM     30  C   UNL     1      -6.464   0.468   0.835  0.00  0.00    +0.058 A 
ATOM     31  C   UNL     1      -6.992  -0.339  -0.156  0.00  0.00    +0.025 A 
ATOM     32  C   UNL     1      -8.306  -0.765  -0.067  0.00  0.00    +0.002 A 
ATOM     33  C   UNL     1      -9.088  -0.386   1.008  0.00  0.00    +0.002 A 
ATOM     34  C   UNL     1      -8.565   0.419   2.003  0.00  0.00    +0.025 A 
ATOM     35  H   UNL     1      -7.164   1.759   3.769  0.00  0.00    +0.155 HD
ENDBRANCH  21  22
ENDBRANCH  19  21
ENDBRANCH   1  19
TORSDOF 5
