REMARK  Name = ZINC44164371
REMARK  11 active torsions:
REMARK  status: ('A' for Active; 'I' for Inactive)
REMARK    1  A    between atoms: C_1  and  C_2
REMARK    2  A    between atoms: C_3  and  C_13
REMARK    3  A    between atoms: C_5  and  C_7
REMARK    4  A    between atoms: C_18  and  C_21
REMARK    5  A    between atoms: N_23  and  C_24
REMARK    6  A    between atoms: C_24  and  C_25
REMARK    7  A    between atoms: C_25  and  C_26
REMARK    8  A    between atoms: C_29  and  O_34
REMARK    9  A    between atoms: C_30  and  O_32
REMARK   10  A    between atoms: O_32  and  C_33
REMARK   11  A    between atoms: O_34  and  C_35
REMARK                            x       y       z     vdW  Elec       q    Type
REMARK                         _______ _______ _______ _____ _____    ______ ____
ROOT
ATOM      1  C   UNL     1      -0.010  -0.150  -2.591  0.00  0.00    -0.021 C 
ATOM      2  C   UNL     1       1.387  -0.299  -3.205  0.00  0.00    +0.058 C 
ATOM      3  S   UNL     1       1.351   0.410  -4.881  0.00  0.00    -0.163 S 
ATOM      4  C   UNL     1      -0.115  -0.380  -5.616  0.00  0.00    +0.062 C 
ATOM      5  C   UNL     1      -1.287  -0.219  -4.641  0.00  0.00    +0.027 C 
ATOM      6  N   UNL     1      -0.983  -0.905  -3.383  0.00  0.00    +0.393 N 
ATOM      7  H   UNL     1      -0.607  -1.819  -3.586  0.00  0.00    -0.084 HD
ATOM      8  H   UNL     1      -1.833  -1.009  -2.850  0.00  0.00    -0.084 HD
ENDROOT
BRANCH   1  11
ATOM      9  C   UNL     1      -0.018   1.503   0.010  0.00  0.00    +0.066 C 
ATOM     10  C   UNL     1       0.002  -0.004   0.002  0.00  0.00    +0.048 A 
ATOM     11  C   UNL     1       0.005  -0.679  -1.180  0.00  0.00    -0.000 A 
ATOM     12  S   UNL     1       0.031  -2.369  -0.593  0.00  0.00    -0.072 S 
ATOM     13  C   UNL     1       0.035  -1.992   1.155  0.00  0.00    +0.128 A 
ATOM     14  N   UNL     1       0.022  -0.667   1.133  0.00  0.00    -0.242 NA
BRANCH  13  15
ATOM     15  C   UNL     1       0.053  -2.911   2.312  0.00  0.00    +0.114 A 
ATOM     16  C   UNL     1       0.047  -2.401   3.613  0.00  0.00    +0.141 A 
ATOM     17  N   UNL     1       0.062  -3.227   4.642  0.00  0.00    -0.260 NA
ATOM     18  C   UNL     1       0.083  -4.534   4.444  0.00  0.00    +0.130 A 
ATOM     19  C   UNL     1       0.089  -5.045   3.157  0.00  0.00    +0.131 A 
ATOM     20  N   UNL     1       0.069  -4.228   2.119  0.00  0.00    -0.250 NA
ENDBRANCH  13  15
ENDBRANCH   1  11
BRANCH   5  21
ATOM     21  C   UNL     1      -2.529  -0.818  -5.248  0.00  0.00    +0.200 C 
ATOM     22  O   UNL     1      -3.099  -1.730  -4.688  0.00  0.00    -0.278 OA
ATOM     23  N   UNL     1      -3.007  -0.340  -6.415  0.00  0.00    -0.316 N 
ATOM     24  H   UNL     1      -2.551   0.389  -6.863  0.00  0.00    +0.149 HD
BRANCH  23  25
ATOM     25  C   UNL     1      -4.215  -0.922  -7.005  0.00  0.00    +0.109 C 
BRANCH  25  26
ATOM     26  C   UNL     1      -4.538  -0.203  -8.316  0.00  0.00    +0.054 C 
BRANCH  26  27
ATOM     27  C   UNL     1      -5.781  -0.802  -8.924  0.00  0.00    -0.042 A 
ATOM     28  C   UNL     1      -5.677  -1.869  -9.797  0.00  0.00    +0.007 A 
ATOM     29  C   UNL     1      -6.813  -2.422 -10.357  0.00  0.00    +0.049 A 
ATOM     30  C   UNL     1      -8.061  -1.907 -10.043  0.00  0.00    +0.161 A 
ATOM     31  C   UNL     1      -8.166  -0.833  -9.164  0.00  0.00    +0.162 A 
ATOM     32  C   UNL     1      -7.023  -0.287  -8.603  0.00  0.00    +0.053 A 
BRANCH  31  33
ATOM     33  O   UNL     1      -9.388  -0.324  -8.853  0.00  0.00    -0.491 OA
ATOM     34  C   UNL     1      -9.420   0.778  -7.944  0.00  0.00    +0.277 C 
ENDBRANCH  31  33
BRANCH  30  35
ATOM     35  O   UNL     1      -9.180  -2.449 -10.593  0.00  0.00    -0.491 OA
ATOM     36  C   UNL     1      -8.996  -3.549 -11.487  0.00  0.00    +0.277 C 
ENDBRANCH  30  35
ENDBRANCH  26  27
ENDBRANCH  25  26
ENDBRANCH  23  25
ENDBRANCH   5  21
TORSDOF 8
