REMARK  Name = ZINC42187873
REMARK  3 active torsions:
REMARK  status: ('A' for Active; 'I' for Inactive)
REMARK    1  A    between atoms: C_1  and  C_2
REMARK    2  A    between atoms: C_2  and  N_7
REMARK    3  A    between atoms: C_8  and  C_10
REMARK                            x       y       z     vdW  Elec       q    Type
REMARK                         _______ _______ _______ _____ _____    ______ ____
ROOT
ATOM      1  N   UNL     1      -1.367  -0.524  -0.021  0.00  0.00    -0.305 N 
ATOM      2  C   UNL     1      -2.194  -0.200  -1.035  0.00  0.00    +0.265 C 
ATOM      3  O   UNL     1      -1.803   0.523  -1.930  0.00  0.00    -0.268 OA
ATOM      4  H   UNL     1      -1.679  -1.101   0.693  0.00  0.00    +0.150 HD
ENDROOT
BRANCH   2   5
ATOM      5  C   UNL     1      -3.578  -0.726  -1.059  0.00  0.00    +0.148 A 
ATOM      6  C   UNL     1      -4.437  -0.397  -2.112  0.00  0.00    +0.038 A 
ATOM      7  C   UNL     1      -5.723  -0.915  -2.087  0.00  0.00    +0.044 A 
ATOM      8  C   UNL     1      -6.080  -1.727  -1.019  0.00  0.00    +0.152 A 
ATOM      9  N   UNL     1      -5.202  -1.987  -0.064  0.00  0.00    -0.137 NA
ATOM     10  N   UNL     1      -4.009  -1.516  -0.082  0.00  0.00    -0.143 NA
ATOM     11 CL   UNL     1      -7.677  -2.402  -0.937  0.00  0.00    -0.060 Cl
ENDBRANCH   2   5
BRANCH   1  13
ATOM     12  C   UNL     1      -0.019   1.526   0.010  0.00  0.00    +0.031 C 
ATOM     13  C   UNL     1       0.002  -0.004   0.002  0.00  0.00    +0.032 C 
ATOM     14  C   UNL     1       0.781  -0.514  -1.223  0.00  0.00    +0.025 C 
ATOM     15  C   UNL     1       1.971  -1.331  -0.679  0.00  0.00    +0.002 C 
ATOM     16  C   UNL     1       1.516  -1.771   0.734  0.00  0.00    +0.002 C 
ATOM     17  C   UNL     1       0.746  -0.529   1.247  0.00  0.00    +0.025 C 
ENDBRANCH   1  13
TORSDOF 2
