REMARK  Name = ZINC22399628
REMARK  9 active torsions:
REMARK  status: ('A' for Active; 'I' for Inactive)
REMARK    1  A    between atoms: C_4  and  N_17
REMARK    2  A    between atoms: C_5  and  C_7
REMARK    3  A    between atoms: N_9  and  C_10
REMARK    4  A    between atoms: C_10  and  C_11
REMARK    5  A    between atoms: C_18  and  C_20
REMARK    6  A    between atoms: C_20  and  N_21
REMARK    7  A    between atoms: N_21  and  C_22
REMARK    8  A    between atoms: N_21  and  S_29
REMARK    9  A    between atoms: S_29  and  C_32
REMARK                            x       y       z     vdW  Elec       q    Type
REMARK                         _______ _______ _______ _____ _____    ______ ____
ROOT
ATOM      1  N   UNL     1      -7.984  -0.128  -2.518  0.00  0.00    -0.283 N 
ATOM      2  C   UNL     1      -9.059  -0.582  -3.192  0.00  0.00    +0.236 C 
ATOM      3  O   UNL     1     -10.164  -0.154  -2.930  0.00  0.00    -0.274 OA
ATOM      4  H   UNL     1      -6.974  -0.449  -2.814  0.00  0.00    +0.155 HD
ENDROOT
BRANCH   1   8
ATOM      5  C   UNL     1      -8.482   2.494   0.686  0.00  0.00    +0.001 A 
ATOM      6  C   UNL     1      -9.215   2.665  -0.478  0.00  0.00    +0.002 A 
ATOM      7  C   UNL     1      -9.055   1.796  -1.538  0.00  0.00    +0.024 A 
ATOM      8  C   UNL     1      -8.151   0.746  -1.447  0.00  0.00    +0.046 A 
ATOM      9  C   UNL     1      -7.412   0.567  -0.269  0.00  0.00    +0.058 A 
ATOM     10  C   UNL     1      -7.585   1.454   0.796  0.00  0.00    +0.015 A 
BRANCH   9  11
ATOM     11  C   UNL     1      -6.453  -0.548  -0.157  0.00  0.00    +0.246 C 
ATOM     12  O   UNL     1      -6.328  -1.337  -1.073  0.00  0.00    -0.270 OA
ATOM     13  N   UNL     1      -5.715  -0.693   0.962  0.00  0.00    -0.309 N 
ATOM     14  H   UNL     1      -5.828   0.021   1.791  0.00  0.00    +0.149 HD
BRANCH  13  15
ATOM     15  C   UNL     1      -4.763  -1.801   1.073  0.00  0.00    +0.136 C 
BRANCH  15  16
ATOM     16  C   UNL     1      -4.061  -1.736   2.431  0.00  0.00    +0.135 C 
ATOM     17  C   UNL     1      -2.969  -2.820   2.509  0.00  0.00    +0.035 C 
ATOM     18  C   UNL     1      -3.372  -3.677   3.734  0.00  0.00    +0.031 C 
ATOM     19  C   UNL     1      -4.290  -2.707   4.521  0.00  0.00    +0.160 C 
ATOM     20  O   UNL     1      -5.004  -2.002   3.482  0.00  0.00    -0.375 OA
ENDBRANCH  15  16
ENDBRANCH  13  15
ENDBRANCH   9  11
ENDBRANCH   1   8
BRANCH   2  21
ATOM     21  C   UNL     1      -8.889  -1.621  -4.271  0.00  0.00    +0.227 C 
BRANCH  21  22
ATOM     22  N   UNL     1     -10.197  -1.944  -4.847  0.00  0.00    -0.194 N 
BRANCH  22  23
ATOM     23  C   UNL     1     -11.011  -2.904  -4.237  0.00  0.00    +0.052 A 
ATOM     24  C   UNL     1     -11.961  -3.586  -4.986  0.00  0.00    +0.027 A 
ATOM     25  C   UNL     1     -12.761  -4.537  -4.383  0.00  0.00    +0.040 A 
ATOM     26  C   UNL     1     -12.623  -4.803  -3.031  0.00  0.00    +0.124 A 
ATOM     27  C   UNL     1     -11.680  -4.121  -2.282  0.00  0.00    +0.040 A 
ATOM     28  C   UNL     1     -10.874  -3.173  -2.882  0.00  0.00    +0.027 A 
ATOM     29  F   UNL     1     -13.410  -5.731  -2.442  0.00  0.00    -0.205 F 
ENDBRANCH  22  23
BRANCH  22  30
ATOM     30  S   UNL     1     -10.711  -1.174  -6.220  0.00  0.00    +0.081 S 
ATOM     31  O   UNL     1     -12.129  -1.117  -6.147  0.00  0.00    -0.149 OA
ATOM     32  O   UNL     1      -9.907  -0.010  -6.357  0.00  0.00    -0.149 OA
BRANCH  30  33
ATOM     33  C   UNL     1     -10.318  -2.220  -7.582  0.00  0.00    +0.146 A 
ATOM     34  C   UNL     1     -11.066  -3.195  -8.153  0.00  0.00    +0.036 A 
ATOM     35  C   UNL     1     -10.549  -3.896  -9.227  0.00  0.00    +0.010 A 
ATOM     36  C   UNL     1      -9.307  -3.587  -9.676  0.00  0.00    +0.047 A 
ATOM     37  S   UNL     1      -8.833  -2.265  -8.573  0.00  0.00    -0.077 S 
ENDBRANCH  30  33
ENDBRANCH  22  30
ENDBRANCH  21  22
ENDBRANCH   2  21
TORSDOF 9
