REMARK  Name = ZINC11354316
REMARK  7 active torsions:
REMARK  status: ('A' for Active; 'I' for Inactive)
REMARK    1  A    between atoms: C_1  and  C_2
REMARK    2  A    between atoms: C_2  and  C_3
REMARK    3  A    between atoms: C_8  and  N_9
REMARK    4  A    between atoms: C_11  and  C_16
REMARK    5  A    between atoms: N_18  and  C_19
REMARK    6  A    between atoms: C_24  and  C_25
REMARK    7  A    between atoms: C_25  and  C_27
REMARK                            x       y       z     vdW  Elec       q    Type
REMARK                         _______ _______ _______ _____ _____    ______ ____
ROOT
ATOM      1  C   UNL     1       6.219   2.907   0.457  0.00  0.00    +0.222 C 
ATOM      2  O   UNL     1       6.560   1.782   0.756  0.00  0.00    -0.275 OA
ATOM      3  N   UNL     1       4.925   3.269   0.561  0.00  0.00    -0.285 N 
ATOM      4  H   UNL     1       4.663   4.187   0.390  0.00  0.00    +0.155 HD
ENDROOT
BRANCH   3   5
ATOM      5  C   UNL     1       3.964   2.325   0.915  0.00  0.00    +0.044 A 
ATOM      6  C   UNL     1       4.219   0.972   0.740  0.00  0.00    +0.025 A 
ATOM      7  C   UNL     1       3.266   0.037   1.091  0.00  0.00    +0.022 A 
ATOM      8  C   UNL     1       2.046   0.440   1.615  0.00  0.00    +0.042 A 
ATOM      9  C   UNL     1       1.777   1.779   1.800  0.00  0.00    +0.033 A 
ATOM     10  C   UNL     1       2.733   2.737   1.449  0.00  0.00    +0.045 A 
ATOM     11 CL   UNL     1       0.855  -0.748   2.045  0.00  0.00    -0.084 Cl
BRANCH  10  12
ATOM     12  C   UNL     1       2.450   4.171   1.640  0.00  0.00    +0.195 C 
ATOM     13  O   UNL     1       1.709   4.753   0.871  0.00  0.00    -0.287 OA
BRANCH  12  14
ATOM     14  C   UNL     1       3.068   4.903   2.766  0.00  0.00    +0.022 A 
ATOM     15  C   UNL     1       3.966   4.253   3.616  0.00  0.00    +0.012 A 
ATOM     16  C   UNL     1       4.543   4.944   4.662  0.00  0.00    +0.001 A 
ATOM     17  C   UNL     1       4.226   6.274   4.876  0.00  0.00    +0.000 A 
ATOM     18  C   UNL     1       3.333   6.922   4.040  0.00  0.00    +0.001 A 
ATOM     19  C   UNL     1       2.753   6.245   2.988  0.00  0.00    +0.012 A 
ENDBRANCH  12  14
ENDBRANCH  10  12
ENDBRANCH   3   5
BRANCH   1  22
ATOM     20  N   UNL     1       9.303   3.838  -1.255  0.00  0.00    -0.270 N 
ATOM     21  C   UNL     1       8.651   3.268  -0.070  0.00  0.00    +0.127 C 
ATOM     22  C   UNL     1       7.242   3.900  -0.032  0.00  0.00    +0.102 C 
ATOM     23  C   UNL     1       7.011   4.245  -1.521  0.00  0.00    +0.110 C 
ATOM     24  C   UNL     1       8.405   4.388  -2.090  0.00  0.00    +0.221 C 
ATOM     25  O   UNL     1       8.674   4.922  -3.145  0.00  0.00    -0.275 OA
BRANCH  20  31
ATOM     26  C   UNL     1      11.495   4.809  -0.962  0.00  0.00    -0.026 A 
ATOM     27  C   UNL     1      12.857   4.780  -1.191  0.00  0.00    +0.005 A 
ATOM     28  C   UNL     1      13.412   3.760  -1.942  0.00  0.00    +0.000 A 
ATOM     29  C   UNL     1      12.606   2.765  -2.465  0.00  0.00    +0.002 A 
ATOM     30  C   UNL     1      11.244   2.785  -2.234  0.00  0.00    +0.024 A 
ATOM     31  C   UNL     1      10.683   3.812  -1.486  0.00  0.00    +0.039 A 
BRANCH  26  33
ATOM     32  C   UNL     1      10.401   7.031  -1.075  0.00  0.00    +0.009 C 
ATOM     33  C   UNL     1      10.892   5.921  -0.143  0.00  0.00    +0.033 C 
ENDBRANCH  26  33
ENDBRANCH  20  31
ENDBRANCH   1  22
TORSDOF 6
