REMARK  Name = ZINC20939925
REMARK  7 active torsions:
REMARK  status: ('A' for Active; 'I' for Inactive)
REMARK    1  A    between atoms: C_1  and  C_2
REMARK    2  A    between atoms: C_5  and  N_9
REMARK    3  A    between atoms: C_7  and  C_8
REMARK    4  A    between atoms: N_9  and  S_10
REMARK    5  A    between atoms: S_10  and  C_13
REMARK    6  A    between atoms: C_19  and  C_23
REMARK    7  A    between atoms: C_19  and  C_24
REMARK                            x       y       z     vdW  Elec       q    Type
REMARK                         _______ _______ _______ _____ _____    ______ ____
ROOT
ATOM      1  S   UNL     1      -1.501   3.271   1.126  0.00  0.00    +0.072 S 
ATOM      2  O   UNL     1      -2.842   3.719   0.990  0.00  0.00    -0.150 OA
ATOM      3  O   UNL     1      -0.988   2.758   2.348  0.00  0.00    -0.150 OA
ENDROOT
BRANCH   1   4
ATOM      4  C   UNL     1      -0.470   4.628   0.677  0.00  0.00    +0.109 A 
ATOM      5  C   UNL     1       0.843   4.674   1.109  0.00  0.00    +0.030 A 
ATOM      6  C   UNL     1       1.657   5.731   0.758  0.00  0.00    +0.025 A 
ATOM      7  C   UNL     1       1.157   6.768  -0.027  0.00  0.00    +0.038 A 
ATOM      8  C   UNL     1      -0.165   6.713  -0.451  0.00  0.00    -0.010 A 
ATOM      9  C   UNL     1      -0.974   5.654  -0.103  0.00  0.00    +0.035 A 
ATOM     10  C   UNL     1      -0.401   7.961  -1.270  0.00  0.00    +0.068 C 
ATOM     11  C   UNL     1       0.930   8.680  -1.237  0.00  0.00    +0.227 C 
ATOM     12  O   UNL     1       1.192   9.737  -1.772  0.00  0.00    -0.275 OA
ATOM     13  N   UNL     1       1.768   7.928  -0.503  0.00  0.00    -0.285 N 
ATOM     14  C   UNL     1      -0.777   7.595  -2.707  0.00  0.00    +0.025 C 
ATOM     15  C   UNL     1      -1.492   8.823  -0.632  0.00  0.00    +0.025 C 
ATOM     16  H   UNL     1       2.821   8.133  -0.262  0.00  0.00    +0.155 HD
ENDBRANCH   1   4
BRANCH   1  17
ATOM     17  N   UNL     1      -1.278   2.090  -0.014  0.00  0.00    -0.216 N 
ATOM     18  H   UNL     1      -2.116   1.781  -0.656  0.00  0.00    +0.174 HD
BRANCH  17  23
ATOM     19  C   UNL     1       3.795  -0.373  -0.613  0.00  0.00    +0.044 C 
ATOM     20  C   UNL     1       2.447   0.283  -0.453  0.00  0.00    -0.047 A 
ATOM     21  C   UNL     1       2.012   1.203  -1.389  0.00  0.00    +0.005 A 
ATOM     22  C   UNL     1       0.778   1.805  -1.246  0.00  0.00    +0.025 A 
ATOM     23  C   UNL     1      -0.027   1.487  -0.159  0.00  0.00    +0.048 A 
ATOM     24  C   UNL     1       0.413   0.563   0.780  0.00  0.00    +0.028 A 
ATOM     25  C   UNL     1       1.649  -0.036   0.630  0.00  0.00    -0.046 A 
ATOM     26  C   UNL     1       2.128  -1.039   1.649  0.00  0.00    +0.044 C 
ENDBRANCH  17  23
ENDBRANCH   1  17
TORSDOF 3
