REMARK  Name = ZINC64773136
REMARK  9 active torsions:
REMARK  status: ('A' for Active; 'I' for Inactive)
REMARK    1  A    between atoms: C_1  and  C_2
REMARK    2  A    between atoms: C_2  and  O_3
REMARK    3  A    between atoms: O_3  and  C_4
REMARK    4  A    between atoms: C_6  and  C_11
REMARK    5  A    between atoms: C_9  and  O_10
REMARK    6  A    between atoms: C_19  and  S_25
REMARK    7  A    between atoms: S_25  and  C_26
REMARK    8  A    between atoms: C_26  and  C_27
REMARK    9  A    between atoms: C_32  and  C_33
REMARK                            x       y       z     vdW  Elec       q    Type
REMARK                         _______ _______ _______ _____ _____    ______ ____
ROOT
ATOM      1  C   UNL     1      -0.229  -4.969   0.477  0.00  0.00    +0.047 C 
ATOM      2  C   UNL     1      -1.364  -5.787  -0.146  0.00  0.00    +0.105 C 
ATOM      3  C   UNL     1      -0.825  -6.812  -1.099  0.00  0.00    +0.219 C 
ATOM      4  O   UNL     1      -1.580  -7.277  -1.926  0.00  0.00    -0.275 OA
ATOM      5  N   UNL     1       0.444  -7.243  -1.087  0.00  0.00    -0.273 N 
ATOM      6  C   UNL     1       1.361  -6.701  -0.231  0.00  0.00    +0.117 C 
ATOM      7  N   UNL     1       2.637  -6.836  -0.451  0.00  0.00    -0.212 NA
ATOM      8  C   UNL     1       3.560  -6.222   0.301  0.00  0.00    +0.182 C 
ATOM      9  N   UNL     1       3.232  -5.405   1.292  0.00  0.00    -0.154 NA
ATOM     10  C   UNL     1       1.970  -5.207   1.643  0.00  0.00    +0.249 C 
ATOM     11  O   UNL     1       1.714  -4.418   2.531  0.00  0.00    -0.273 OA
ATOM     12  C   UNL     1       0.853  -5.937   0.965  0.00  0.00    +0.148 C 
ATOM     13  H   UNL     1       0.715  -7.949  -1.694  0.00  0.00    +0.156 HD
ENDROOT
BRANCH   1  16
ATOM     14  C   UNL     1       1.071  -1.843  -1.200  0.00  0.00    +0.162 A 
ATOM     15  C   UNL     1       0.537  -2.701  -0.252  0.00  0.00    +0.053 A 
ATOM     16  C   UNL     1       0.352  -4.037  -0.555  0.00  0.00    -0.039 A 
ATOM     17  C   UNL     1       0.698  -4.520  -1.803  0.00  0.00    +0.008 A 
ATOM     18  C   UNL     1       1.232  -3.670  -2.753  0.00  0.00    +0.049 A 
ATOM     19  C   UNL     1       1.414  -2.328  -2.458  0.00  0.00    +0.158 A 
BRANCH  19  20
ATOM     20  O   UNL     1       1.933  -1.489  -3.394  0.00  0.00    -0.503 OA
ATOM     21  H   UNL     1       2.898  -1.425  -3.373  0.00  0.00    +0.292 HD
ENDBRANCH  19  20
BRANCH  14  22
ATOM     22  O   UNL     1       1.253  -0.528  -0.903  0.00  0.00    -0.489 OA
BRANCH  22  24
ATOM     23  C   UNL     1       1.155   1.397   0.554  0.00  0.00    +0.048 C 
ATOM     24  C   UNL     1       0.878  -0.101   0.407  0.00  0.00    +0.226 C 
ENDBRANCH  22  24
ENDBRANCH  14  22
ENDBRANCH   1  16
BRANCH   8  25
ATOM     25  S   UNL     1       5.265  -6.512  -0.037  0.00  0.00    -0.084 S 
BRANCH  25  26
ATOM     26  C   UNL     1       6.134  -5.503   1.195  0.00  0.00    +0.112 C 
BRANCH  26  27
ATOM     27  C   UNL     1       7.621  -5.661   1.015  0.00  0.00    -0.034 A 
ATOM     28  C   UNL     1       8.297  -6.662   1.689  0.00  0.00    +0.005 A 
ATOM     29  C   UNL     1       9.661  -6.807   1.524  0.00  0.00    +0.000 A 
ATOM     30  C   UNL     1      10.351  -5.952   0.684  0.00  0.00    +0.000 A 
ATOM     31  C   UNL     1       9.675  -4.952   0.009  0.00  0.00    +0.003 A 
ATOM     32  C   UNL     1       8.310  -4.810   0.171  0.00  0.00    -0.046 A 
ATOM     33  C   UNL     1       7.572  -3.723  -0.568  0.00  0.00    +0.044 C 
ENDBRANCH  26  27
ENDBRANCH  25  26
ENDBRANCH   8  25
TORSDOF 7
