REMARK  Name = ZINC36509609
REMARK  14 active torsions:
REMARK  status: ('A' for Active; 'I' for Inactive)
REMARK    1  A    between atoms: C_1  and  C_2
REMARK    2  A    between atoms: C_2  and  C_3
REMARK    3  A    between atoms: C_3  and  C_4
REMARK    4  A    between atoms: C_4  and  C_5
REMARK    5  A    between atoms: C_5  and  C_6
REMARK    6  A    between atoms: C_6  and  N_7
REMARK    7  A    between atoms: N_7  and  C_8
REMARK    8  A    between atoms: C_8  and  C_10
REMARK    9  A    between atoms: C_8  and  C_20
REMARK   10  A    between atoms: C_12  and  N_17
REMARK   11  A    between atoms: N_22  and  C_23
REMARK   12  A    between atoms: C_29  and  C_31
REMARK   13  A    between atoms: C_31  and  C_32
REMARK   14  A    between atoms: C_32  and  C_33
REMARK                            x       y       z     vdW  Elec       q    Type
REMARK                         _______ _______ _______ _____ _____    ______ ____
ROOT
ATOM      1  C   UNL     1       3.375  -4.785  -3.799  0.00  0.00    +0.194 C 
ENDROOT
BRANCH   1   2
ATOM      2  C   UNL     1       3.650  -6.207  -4.217  0.00  0.00    +0.002 A 
ATOM      3  C   UNL     1       2.811  -6.837  -5.117  0.00  0.00    +0.040 A 
ATOM      4  C   UNL     1       3.063  -8.140  -5.500  0.00  0.00    +0.127 A 
ATOM      5  C   UNL     1       4.153  -8.816  -4.983  0.00  0.00    +0.034 A 
ATOM      6  C   UNL     1       4.992  -8.187  -4.083  0.00  0.00    +0.022 A 
ATOM      7  C   UNL     1       4.744  -6.880  -3.703  0.00  0.00    +0.047 A 
ATOM      8 CL   UNL     1       5.801  -6.087  -2.578  0.00  0.00    -0.083 Cl
BRANCH   4   9
ATOM      9  N   UNL     1       2.165  -8.815  -6.465  0.00  0.00    +0.056 N 
ATOM     10  O   UNL     1       1.266  -8.197  -6.987  0.00  0.00    -0.126 OA
ATOM     11  O   UNL     1       2.330  -9.982  -6.730  0.00  0.00    -0.126 OA
ENDBRANCH   4   9
ENDBRANCH   1   2
BRANCH   1  12
ATOM     12  C   UNL     1       4.211  -3.846  -4.630  0.00  0.00    +0.238 C 
ATOM     13  O   UNL     1       3.674  -3.008  -5.322  0.00  0.00    -0.273 OA
ATOM     14  N   UNL     1       5.555  -3.939  -4.605  0.00  0.00    -0.311 N 
ATOM     15  H   UNL     1       5.985  -4.610  -4.052  0.00  0.00    +0.149 HD
BRANCH  14  16
ATOM     16  C   UNL     1       6.367  -3.027  -5.414  0.00  0.00    +0.073 C 
ATOM     17  C   UNL     1       6.502  -3.585  -6.832  0.00  0.00    +0.022 C 
ATOM     18  C   UNL     1       7.350  -2.632  -7.677  0.00  0.00    +0.002 C 
ATOM     19  C   UNL     1       8.739  -2.494  -7.050  0.00  0.00    +0.000 C 
ATOM     20  C   UNL     1       8.605  -1.936  -5.631  0.00  0.00    +0.002 C 
ATOM     21  C   UNL     1       7.756  -2.889  -4.787  0.00  0.00    +0.022 C 
ENDBRANCH  14  16
ENDBRANCH   1  12
BRANCH   1  22
ATOM     22  N   UNL     1       1.956  -4.483  -3.999  0.00  0.00    -0.286 N 
ATOM     23  C   UNL     1       1.458  -4.381  -5.247  0.00  0.00    +0.216 C 
ATOM     24  O   UNL     1       2.169  -4.603  -6.204  0.00  0.00    -0.276 OA
BRANCH  22  25
ATOM     25  C   UNL     1       1.077  -4.291  -2.842  0.00  0.00    +0.109 C 
BRANCH  25  26
ATOM     26  C   UNL     1       1.167  -2.838  -2.369  0.00  0.00    +0.019 C 
BRANCH  26  27
ATOM     27  C   UNL     1       0.347  -2.668  -1.089  0.00  0.00    +0.002 C 
BRANCH  27  28
ATOM     28  C   UNL     1       0.334  -1.192  -0.684  0.00  0.00    -0.000 C 
BRANCH  28  30
ATOM     29  C   UNL     1      -0.598   0.473   0.928  0.00  0.00    +0.004 C 
ATOM     30  C   UNL     1      -0.585  -1.002   0.524  0.00  0.00    -0.003 C 
ENDBRANCH  28  30
ENDBRANCH  27  28
ENDBRANCH  26  27
ENDBRANCH  25  26
ENDBRANCH  22  25
BRANCH  23  31
ATOM     31  C   UNL     1       0.017  -3.991  -5.454  0.00  0.00    +0.096 C 
BRANCH  31  32
ATOM     32  C   UNL     1      -0.289  -3.949  -6.953  0.00  0.00    +0.013 C 
BRANCH  32  33
ATOM     33  C   UNL     1      -1.752  -3.553  -7.163  0.00  0.00    -0.011 C 
ATOM     34  C   UNL     1      -1.970  -2.122  -6.665  0.00  0.00    +0.003 C 
ATOM     35  C   UNL     1      -3.433  -1.726  -6.875  0.00  0.00    +0.000 C 
ATOM     36  C   UNL     1      -3.773  -1.805  -8.365  0.00  0.00    +0.000 C 
ATOM     37  C   UNL     1      -3.556  -3.235  -8.863  0.00  0.00    +0.000 C 
ATOM     38  C   UNL     1      -2.093  -3.631  -8.653  0.00  0.00    +0.003 C 
ENDBRANCH  32  33
ENDBRANCH  31  32
ENDBRANCH  23  31
ENDBRANCH   1  22
TORSDOF 13
