REMARK  Name = ZINC43407973
REMARK  4 active torsions:
REMARK  status: ('A' for Active; 'I' for Inactive)
REMARK    1  A    between atoms: C_5  and  O_11
REMARK    2  A    between atoms: C_6  and  C_7
REMARK    3  A    between atoms: N_8  and  O_9
REMARK    4  A    between atoms: O_11  and  C_12
REMARK                            x       y       z     vdW  Elec       q    Type
REMARK                         _______ _______ _______ _____ _____    ______ ____
ROOT
ATOM      1  C   UNL     1      -0.025   1.392   0.148  0.00  0.00    +0.022 A 
ATOM      2  C   UNL     1       1.180   2.078   0.141  0.00  0.00    -0.025 A 
ATOM      3  C   UNL     1       2.364   1.378  -0.002  0.00  0.00    +0.048 A 
ATOM      4  N   UNL     1       2.355   0.060  -0.131  0.00  0.00    -0.217 NA
ATOM      5  C   UNL     1       1.236  -0.639  -0.131  0.00  0.00    +0.226 A 
ATOM      6  C   UNL     1      -0.002   0.003   0.009  0.00  0.00    +0.079 A 
ATOM      7  C   UNL     1       3.530   2.345   0.022  0.00  0.00    +0.056 C 
ATOM      8  C   UNL     1       2.912   3.733  -0.246  0.00  0.00    +0.011 C 
ATOM      9  C   UNL     1       1.468   3.558   0.269  0.00  0.00    +0.037 C 
ENDROOT
BRANCH   6  10
ATOM     10  C   UNL     1      -1.259  -0.776   0.010  0.00  0.00    +0.168 C 
ATOM     11  N   UNL     1      -2.201  -0.493  -0.843  0.00  0.00    -0.071 NA
ATOM     12  N   UNL     1      -1.435  -1.806   0.918  0.00  0.00    -0.340 N 
ATOM     13  H   UNL     1      -0.734  -2.017   1.554  0.00  0.00    +0.144 HD
ATOM     14  H   UNL     1      -2.260  -2.317   0.919  0.00  0.00    +0.144 HD
BRANCH  11  15
ATOM     15  O   UNL     1      -1.978   0.481  -1.847  0.00  0.00    -0.408 OA
ATOM     16  H   UNL     1      -2.734   0.623  -2.432  0.00  0.00    +0.328 HD
ENDBRANCH  11  15
ENDBRANCH   6  10
BRANCH   5  17
ATOM     17  O   UNL     1       1.284  -1.986  -0.268  0.00  0.00    -0.473 OA
BRANCH  17  18
ATOM     18  C   UNL     1       2.578  -2.578  -0.407  0.00  0.00    +0.175 C 
ATOM     19  C   UNL     1       2.950  -2.647  -1.890  0.00  0.00    +0.044 C 
ATOM     20  C   UNL     1       4.334  -3.281  -2.039  0.00  0.00    +0.004 C 
ATOM     21  C   UNL     1       4.314  -4.694  -1.452  0.00  0.00    +0.000 C 
ATOM     22  C   UNL     1       3.942  -4.625   0.031  0.00  0.00    +0.004 C 
ATOM     23  C   UNL     1       2.558  -3.991   0.180  0.00  0.00    +0.044 C 
ENDBRANCH  17  18
ENDBRANCH   5  17
TORSDOF 4
