REMARK  Name = ZINC19893213
REMARK  13 active torsions:
REMARK  status: ('A' for Active; 'I' for Inactive)
REMARK    1  A    between atoms: C_1  and  C_2
REMARK    2  A    between atoms: C_13  and  S_26
REMARK    3  A    between atoms: C_18  and  C_20
REMARK    4  A    between atoms: C_20  and  O_22
REMARK    5  A    between atoms: O_22  and  C_23
REMARK    6  A    between atoms: C_23  and  C_24
REMARK    7  A    between atoms: C_24  and  O_25
REMARK    8  A    between atoms: S_26  and  N_29
REMARK    9  A    between atoms: N_29  and  C_30
REMARK   10  A    between atoms: C_30  and  C_31
REMARK   11  A    between atoms: C_31  and  C_32
REMARK   12  A    between atoms: C_32  and  O_33
REMARK   13  A    between atoms: O_33  and  C_34
REMARK                            x       y       z     vdW  Elec       q    Type
REMARK                         _______ _______ _______ _____ _____    ______ ____
ROOT
ATOM      1  C   UNL     1      -0.088  -0.200   2.549  0.00  0.00    +0.017 C 
ATOM      2  C   UNL     1       0.730  -0.516   1.296  0.00  0.00    +0.009 C 
ATOM      3  C   UNL     1      -0.022  -0.010   0.062  0.00  0.00    +0.014 C 
ATOM      4  C   UNL     1      -0.046   1.520   0.069  0.00  0.00    +0.016 C 
ATOM      5  C   UNL     1       1.399   2.020   0.007  0.00  0.00    +0.085 C 
ATOM      6  N   UNL     1       2.110   1.594   1.218  0.00  0.00    -0.293 NA
ATOM      7  C   UNL     1       2.090   0.151   1.425  0.00  0.00    +0.114 C 
ATOM      8  C   UNL     1       3.004  -0.466   0.394  0.00  0.00    +0.046 A 
ATOM      9  C   UNL     1       3.989   0.182  -0.242  0.00  0.00    -0.016 A 
ATOM     10  C   UNL     1       4.577  -0.777  -1.153  0.00  0.00    +0.006 A 
ATOM     11  C   UNL     1       5.632  -0.690  -2.065  0.00  0.00    +0.038 A 
ATOM     12  C   UNL     1       5.931  -1.819  -2.786  0.00  0.00    +0.106 A 
ATOM     13  C   UNL     1       5.226  -3.001  -2.625  0.00  0.00    +0.030 A 
ATOM     14  C   UNL     1       4.178  -3.119  -1.731  0.00  0.00    +0.028 A 
ATOM     15  C   UNL     1       3.848  -1.991  -0.982  0.00  0.00    +0.055 A 
ATOM     16  N   UNL     1       2.897  -1.769  -0.037  0.00  0.00    -0.305 N 
ATOM     17  C   UNL     1       1.904  -2.595   0.523  0.00  0.00    +0.128 C 
ATOM     18  C   UNL     1       0.884  -2.012   1.166  0.00  0.00    +0.015 C 
ATOM     19  C   UNL     1       4.311   1.623   0.039  0.00  0.00    +0.053 C 
ATOM     20  C   UNL     1       3.480   2.125   1.219  0.00  0.00    +0.090 C 
ENDROOT
BRANCH  12  21
ATOM     21  S   UNL     1       7.252  -1.764  -3.950  0.00  0.00    +0.058 S 
ATOM     22  O   UNL     1       8.116  -0.715  -3.535  0.00  0.00    -0.153 OA
ATOM     23  O   UNL     1       7.702  -3.101  -4.118  0.00  0.00    -0.153 OA
BRANCH  21  24
ATOM     24  N   UNL     1       6.606  -1.297  -5.402  0.00  0.00    -0.190 NA
ATOM     25  H   UNL     1       6.468  -2.047  -6.195  0.00  0.00    +0.148 HD
BRANCH  24  26
ATOM     26  C   UNL     1       6.025   0.040  -5.550  0.00  0.00    +0.108 C 
BRANCH  26  27
ATOM     27  C   UNL     1       5.846   0.357  -7.036  0.00  0.00    +0.045 C 
BRANCH  27  28
ATOM     28  C   UNL     1       5.240   1.754  -7.190  0.00  0.00    +0.160 C 
BRANCH  28  29
ATOM     29  O   UNL     1       5.073   2.050  -8.578  0.00  0.00    -0.383 OA
ATOM     30  C   UNL     1       4.511   3.338  -8.833  0.00  0.00    +0.193 C 
ENDBRANCH  28  29
ENDBRANCH  27  28
ENDBRANCH  26  27
ENDBRANCH  24  26
ENDBRANCH  21  24
ENDBRANCH  12  21
BRANCH  17  31
ATOM     31  C   UNL     1       1.984  -4.062   0.404  0.00  0.00    +0.356 C 
ATOM     32  O   UNL     1       2.749  -4.688   1.111  0.00  0.00    -0.243 OA
BRANCH  31  33
ATOM     33  O   UNL     1       1.209  -4.709  -0.488  0.00  0.00    -0.458 OA
BRANCH  33  34
ATOM     34  C   UNL     1       1.341  -6.154  -0.550  0.00  0.00    +0.260 C 
BRANCH  34  35
ATOM     35  C   UNL     1       0.390  -6.708  -1.613  0.00  0.00    +0.197 C 
BRANCH  35  36
ATOM     36  O   UNL     1       0.788  -6.236  -2.901  0.00  0.00    -0.392 OA
ATOM     37  H   UNL     1       0.219  -6.531  -3.796  0.00  0.00    +0.210 HD
ENDBRANCH  35  36
ENDBRANCH  34  35
ENDBRANCH  33  34
ENDBRANCH  31  33
ENDBRANCH  17  31
TORSDOF 11
