REMARK  Name = ZINC06035474
REMARK  8 active torsions:
REMARK  status: ('A' for Active; 'I' for Inactive)
REMARK    1  A    between atoms: C_1  and  C_2
REMARK    2  A    between atoms: C_3  and  N_14
REMARK    3  A    between atoms: C_4  and  C_13
REMARK    4  A    between atoms: N_5  and  C_7
REMARK    5  A    between atoms: C_15  and  C_17
REMARK    6  A    between atoms: C_17  and  S_18
REMARK    7  A    between atoms: S_18  and  C_19
REMARK    8  A    between atoms: C_21  and  C_25
REMARK                            x       y       z     vdW  Elec       q    Type
REMARK                         _______ _______ _______ _____ _____    ______ ____
ROOT
ATOM      1  N   UNL     1      -0.015  -0.279  -2.450  0.00  0.00    -0.282 N 
ATOM      2  C   UNL     1       0.603   0.883  -2.740  0.00  0.00    +0.228 C 
ATOM      3  O   UNL     1       1.248   1.456  -1.888  0.00  0.00    -0.275 OA
ATOM      4  H   UNL     1      -0.493  -0.761  -3.143  0.00  0.00    +0.155 HD
ENDROOT
BRANCH   1   7
ATOM      5  C   UNL     1      -1.059   1.215   0.076  0.00  0.00    +0.069 C 
ATOM      6  C   UNL     1      -0.425  -0.151   0.018  0.00  0.00    +0.082 A 
ATOM      7  C   UNL     1       0.035  -0.794  -1.141  0.00  0.00    +0.078 A 
ATOM      8  C   UNL     1       0.535  -2.002  -0.775  0.00  0.00    +0.063 A 
ATOM      9  N   UNL     1       0.394  -2.113   0.574  0.00  0.00    -0.235 N 
ATOM     10  N   UNL     1      -0.205  -0.937   1.041  0.00  0.00    -0.170 NA
ATOM     11  C   UNL     1       1.138  -3.032  -1.696  0.00  0.00    +0.068 C 
BRANCH   9  12
ATOM     12  C   UNL     1       0.783  -3.209   1.356  0.00  0.00    +0.066 A 
ATOM     13  C   UNL     1       2.022  -3.803   1.155  0.00  0.00    +0.028 A 
ATOM     14  C   UNL     1       2.402  -4.882   1.928  0.00  0.00    +0.002 A 
ATOM     15  C   UNL     1       1.552  -5.371   2.902  0.00  0.00    +0.000 A 
ATOM     16  C   UNL     1       0.318  -4.781   3.106  0.00  0.00    +0.002 A 
ATOM     17  C   UNL     1      -0.067  -3.698   2.339  0.00  0.00    +0.028 A 
ENDBRANCH   9  12
ENDBRANCH   1   7
BRANCH   2  18
ATOM     18  C   UNL     1       0.493   1.469  -4.124  0.00  0.00    +0.173 C 
BRANCH  18  19
ATOM     19  S   UNL     1       1.426   3.023  -4.199  0.00  0.00    -0.077 S 
BRANCH  19  20
ATOM     20  C   UNL     1       1.201   3.576  -5.856  0.00  0.00    +0.185 A 
ATOM     21  N   UNL     1       0.504   2.962  -6.787  0.00  0.00    -0.200 NA
ATOM     22  C   UNL     1       0.552   3.670  -7.927  0.00  0.00    +0.189 A 
ATOM     23  N   UNL     1       1.284   4.745  -7.728  0.00  0.00    -0.151 NA
ATOM     24  H   UNL     1       2.264   5.365  -5.940  0.00  0.00    +0.191 HD
ATOM     25  N   UNL     1       1.711   4.708  -6.391  0.00  0.00    -0.253 N 
BRANCH  22  26
ATOM     26  C   UNL     1      -0.109   3.302  -9.197  0.00  0.00    +0.058 A 
ATOM     27  C   UNL     1      -0.103   3.963 -10.396  0.00  0.00    +0.019 A 
ATOM     28  C   UNL     1      -0.800   3.422 -11.454  0.00  0.00    +0.008 A 
ATOM     29  C   UNL     1      -1.469   2.254 -11.277  0.00  0.00    +0.046 A 
ATOM     30  S   UNL     1      -1.116   1.875  -9.569  0.00  0.00    -0.093 S 
ENDBRANCH  22  26
ENDBRANCH  19  20
ENDBRANCH  18  19
ENDBRANCH   2  18
TORSDOF 6
