REMARK  Name = ZINC35851860
REMARK  4 active torsions:
REMARK  status: ('A' for Active; 'I' for Inactive)
REMARK    1  A    between atoms: C_1  and  C_2
REMARK    2  A    between atoms: C_12  and  C_30
REMARK    3  A    between atoms: C_30  and  C_32
REMARK    4  A    between atoms: C_36  and  N_38
REMARK                            x       y       z     vdW  Elec       q    Type
REMARK                         _______ _______ _______ _____ _____    ______ ____
ROOT
ATOM      1  C   UNL     1       0.911   1.717   1.092  0.00  0.00    +0.045 C 
ATOM      2  C   UNL     1       0.770   0.242   0.820  0.00  0.00    -0.029 A 
ATOM      3  C   UNL     1       0.873  -0.232  -0.472  0.00  0.00    +0.005 A 
ATOM      4  C   UNL     1       0.746  -1.583  -0.733  0.00  0.00    +0.001 A 
ATOM      5  C   UNL     1       0.514  -2.466   0.307  0.00  0.00    +0.008 A 
ATOM      6  C   UNL     1       0.411  -1.998   1.597  0.00  0.00    +0.004 A 
ATOM      7  C   UNL     1       0.542  -0.640   1.873  0.00  0.00    +0.042 A 
ATOM      8  N   UNL     1       0.407  -0.410   3.243  0.00  0.00    -0.283 N 
ATOM      9  C   UNL     1       0.194  -1.547   3.931  0.00  0.00    +0.243 C 
ATOM     10  O   UNL     1       0.041  -1.649   5.130  0.00  0.00    -0.273 OA
ATOM     11  C   UNL     1       0.171  -2.668   2.923  0.00  0.00    +0.137 C 
ATOM     12  C   UNL     1      -1.174  -3.404   2.936  0.00  0.00    +0.115 C 
ATOM     13  C   UNL     1      -0.904  -4.714   3.684  0.00  0.00    +0.102 C 
ATOM     14  C   UNL     1      -1.251  -5.910   2.842  0.00  0.00    -0.009 A 
ATOM     15  C   UNL     1      -0.807  -6.370   1.623  0.00  0.00    +0.006 A 
ATOM     16  C   UNL     1      -1.330  -7.535   1.090  0.00  0.00    +0.000 A 
ATOM     17  C   UNL     1      -2.299  -8.236   1.786  0.00  0.00    +0.002 A 
ATOM     18  C   UNL     1      -2.746  -7.778   3.008  0.00  0.00    +0.023 A 
ATOM     19  C   UNL     1      -2.225  -6.606   3.551  0.00  0.00    +0.038 A 
ATOM     20  N   UNL     1      -2.511  -5.951   4.750  0.00  0.00    -0.284 N 
ATOM     21  C   UNL     1      -1.779  -4.832   4.905  0.00  0.00    +0.230 C 
ATOM     22  O   UNL     1      -1.815  -4.067   5.846  0.00  0.00    -0.274 OA
ATOM     23  C   UNL     1       0.579  -4.706   4.064  0.00  0.00    +0.078 C 
ATOM     24  N   UNL     1       1.213  -3.656   3.221  0.00  0.00    -0.280 NA
ATOM     25  C   UNL     1       1.652  -4.346   1.984  0.00  0.00    +0.086 C 
ATOM     26  C   UNL     1       2.196  -5.699   2.509  0.00  0.00    +0.017 C 
ATOM     27  C   UNL     1       1.211  -6.053   3.667  0.00  0.00    +0.021 C 
ATOM     28  H   UNL     1       0.460   0.468   3.652  0.00  0.00    +0.155 HD
ATOM     29  H   UNL     1      -3.162  -6.266   5.397  0.00  0.00    +0.155 HD
ENDROOT
BRANCH  12  30
ATOM     30  C   UNL     1      -2.210  -2.587   3.664  0.00  0.00    +0.170 C 
ATOM     31  O   UNL     1      -1.970  -2.147   4.768  0.00  0.00    -0.292 OA
BRANCH  30  32
ATOM     32  C   UNL     1      -3.514  -2.323   3.035  0.00  0.00    +0.020 A 
ATOM     33  C   UNL     1      -3.798  -2.833   1.764  0.00  0.00    +0.011 A 
ATOM     34  C   UNL     1      -5.021  -2.582   1.181  0.00  0.00    +0.003 A 
ATOM     35  C   UNL     1      -5.969  -1.826   1.850  0.00  0.00    +0.033 A 
ATOM     36  C   UNL     1      -5.696  -1.318   3.108  0.00  0.00    +0.127 A 
ATOM     37  C   UNL     1      -4.479  -1.566   3.707  0.00  0.00    +0.044 A 
BRANCH  36  38
ATOM     38  N   UNL     1      -6.716  -0.511   3.815  0.00  0.00    +0.056 N 
ATOM     39  O   UNL     1      -7.785  -0.297   3.293  0.00  0.00    -0.126 OA
ATOM     40  O   UNL     1      -6.479  -0.066   4.914  0.00  0.00    -0.126 OA
ENDBRANCH  36  38
ENDBRANCH  30  32
ENDBRANCH  12  30
TORSDOF 3
