REMARK  Name = ZINC39361788
REMARK  8 active torsions:
REMARK  status: ('A' for Active; 'I' for Inactive)
REMARK    1  A    between atoms: C_1  and  C_2
REMARK    2  A    between atoms: C_6  and  C_8
REMARK    3  A    between atoms: C_8  and  S_9
REMARK    4  A    between atoms: S_9  and  C_10
REMARK    5  A    between atoms: C_13  and  C_23
REMARK    6  A    between atoms: N_15  and  C_16
REMARK    7  A    between atoms: C_20  and  C_22
REMARK    8  A    between atoms: C_23  and  C_24
REMARK                            x       y       z     vdW  Elec       q    Type
REMARK                         _______ _______ _______ _____ _____    ______ ____
ROOT
ATOM      1  C   UNL     1       1.621  -3.987   4.534  0.00  0.00    +0.180 C 
ATOM      2  N   UNL     1       0.496  -4.326   5.064  0.00  0.00    -0.162 NA
ATOM      3  N   UNL     1       0.684  -5.059   6.243  0.00  0.00    -0.246 N 
ATOM      4  C   UNL     1       2.142  -5.166   6.431  0.00  0.00    +0.187 C 
ATOM      5  N   UNL     1       2.701  -4.447   5.274  0.00  0.00    -0.258 N 
ATOM      6  H   UNL     1      -0.006  -5.424   6.819  0.00  0.00    +0.170 HD
ENDROOT
BRANCH   5   7
ATOM      7  C   UNL     1       4.055  -4.262   4.981  0.00  0.00    +0.038 A 
ATOM      8  C   UNL     1       4.847  -3.481   5.813  0.00  0.00    +0.023 A 
ATOM      9  C   UNL     1       6.185  -3.301   5.521  0.00  0.00    +0.002 A 
ATOM     10  C   UNL     1       6.735  -3.896   4.400  0.00  0.00    +0.003 A 
ATOM     11  C   UNL     1       5.950  -4.673   3.569  0.00  0.00    -0.049 A 
ATOM     12  C   UNL     1       4.613  -4.862   3.859  0.00  0.00    +0.027 A 
ATOM     13  C   UNL     1       6.554  -5.319   2.349  0.00  0.00    +0.044 C 
ENDBRANCH   5   7
BRANCH   1  14
ATOM     14  S   UNL     1       1.770  -3.058   3.044  0.00  0.00    -0.084 S 
BRANCH  14  15
ATOM     15  C   UNL     1       0.053  -2.750   2.546  0.00  0.00    +0.112 C 
BRANCH  15  21
ATOM     16  C   UNL     1      -0.001   1.666   0.192  0.00  0.00    +0.044 C 
ATOM     17  C   UNL     1       0.010   0.160   0.141  0.00  0.00    -0.050 A 
ATOM     18  C   UNL     1       0.005  -0.490  -1.079  0.00  0.00    +0.003 A 
ATOM     19  C   UNL     1       0.015  -1.871  -1.126  0.00  0.00    +0.001 A 
ATOM     20  C   UNL     1       0.030  -2.603   0.047  0.00  0.00    +0.004 A 
ATOM     21  C   UNL     1       0.036  -1.953   1.267  0.00  0.00    -0.037 A 
ATOM     22  C   UNL     1       0.031  -0.571   1.314  0.00  0.00    +0.007 A 
ENDBRANCH  15  21
ENDBRANCH  14  15
ENDBRANCH   1  14
BRANCH   4  23
ATOM     23  C   UNL     1       2.579  -6.632   6.413  0.00  0.00    +0.097 C 
BRANCH  23  24
ATOM     24  C   UNL     1       1.914  -7.368   7.547  0.00  0.00    +0.029 A 
ATOM     25  N   UNL     1       2.469  -7.350   8.798  0.00  0.00    -0.311 N 
ATOM     26  C   UNL     1       1.883  -8.004   9.817  0.00  0.00    +0.327 A 
ATOM     27  O   UNL     1       2.393  -7.974  10.921  0.00  0.00    -0.247 OA
ATOM     28  N   UNL     1       0.740  -8.690   9.633  0.00  0.00    -0.275 N 
ATOM     29  C   UNL     1       0.162  -8.733   8.416  0.00  0.00    +0.254 A 
ATOM     30  O   UNL     1      -0.873  -9.353   8.248  0.00  0.00    -0.268 OA
ATOM     31  C   UNL     1       0.765  -8.045   7.335  0.00  0.00    +0.091 A 
ATOM     32  H   UNL     1       0.331  -9.156  10.379  0.00  0.00    +0.173 HD
ATOM     33  H   UNL     1       3.293  -6.861   8.951  0.00  0.00    +0.170 HD
ENDBRANCH  23  24
ENDBRANCH   4  23
TORSDOF 6
