REMARK  Name = ZINC24943432
REMARK  6 active torsions:
REMARK  status: ('A' for Active; 'I' for Inactive)
REMARK    1  A    between atoms: C_1  and  C_2
REMARK    2  A    between atoms: C_7  and  N_12
REMARK    3  A    between atoms: C_9  and  C_11
REMARK    4  A    between atoms: C_18  and  C_25
REMARK    5  A    between atoms: C_25  and  O_27
REMARK    6  A    between atoms: O_27  and  C_28
REMARK                            x       y       z     vdW  Elec       q    Type
REMARK                         _______ _______ _______ _____ _____    ______ ____
ROOT
ATOM      1  N   UNL     1      -4.819  -4.298   0.021  0.00  0.00    -0.257 N 
ATOM      2  C   UNL     1      -4.910  -2.951   0.030  0.00  0.00    +0.265 A 
ATOM      3  O   UNL     1      -5.994  -2.400   0.043  0.00  0.00    -0.267 OA
ATOM      4  C   UNL     1      -3.661  -2.164   0.024  0.00  0.00    +0.063 A 
ATOM      5  C   UNL     1      -3.676  -0.771   0.032  0.00  0.00    +0.016 A 
ATOM      6  C   UNL     1      -2.488  -0.075   0.025  0.00  0.00    +0.016 A 
ATOM      7  C   UNL     1      -1.269  -0.761   0.010  0.00  0.00    +0.061 A 
ATOM      8  C   UNL     1      -1.246  -2.154  -0.003  0.00  0.00    +0.041 A 
ATOM      9  C   UNL     1      -2.439  -2.859   0.009  0.00  0.00    +0.056 A 
ATOM     10  N   UNL     1      -2.461  -4.247   0.001  0.00  0.00    -0.307 N 
ATOM     11  H   UNL     1      -1.517  -4.812  -0.011  0.00  0.00    +0.170 HD
ATOM     12  C   UNL     1      -3.627  -4.915   0.007  0.00  0.00    +0.330 A 
ATOM     13  O   UNL     1      -3.601  -6.131  -0.001  0.00  0.00    -0.246 OA
ENDROOT
BRANCH   1  19
ATOM     14  C   UNL     1      -8.560  -5.905   1.295  0.00  0.00    +0.008 C 
ATOM     15  C   UNL     1      -7.342  -6.831   1.278  0.00  0.00    -0.009 C 
ATOM     16  C   UNL     1      -7.385  -7.707   0.024  0.00  0.00    +0.004 C 
ATOM     17  C   UNL     1      -7.365  -6.816  -1.220  0.00  0.00    +0.002 C 
ATOM     18  C   UNL     1      -6.086  -5.977  -1.226  0.00  0.00    +0.025 C 
ATOM     19  C   UNL     1      -6.044  -5.102   0.028  0.00  0.00    +0.098 C 
ATOM     20  C   UNL     1      -6.063  -5.992   1.272  0.00  0.00    +0.012 C 
ATOM     21  C   UNL     1      -6.021  -5.117   2.526  0.00  0.00    +0.010 C 
ENDBRANCH   1  19
BRANCH   7  22
ATOM     22  C   UNL     1       0.002  -0.004   0.002  0.00  0.00    +0.339 C 
ATOM     23  O   UNL     1       1.062  -0.597  -0.011  0.00  0.00    -0.245 OA
BRANCH  22  24
ATOM     24  O   UNL     1      -0.016   1.343   0.009  0.00  0.00    -0.464 OA
ATOM     25  C   UNL     1       1.268   2.019   0.001  0.00  0.00    +0.280 C 
ENDBRANCH  22  24
ENDBRANCH   7  22
TORSDOF 3
