REMARK  Name = ZINC34971709
REMARK  9 active torsions:
REMARK  status: ('A' for Active; 'I' for Inactive)
REMARK    1  A    between atoms: C_6  and  S_11
REMARK    2  A    between atoms: S_11  and  N_14
REMARK    3  A    between atoms: N_14  and  C_15
REMARK    4  A    between atoms: N_14  and  C_29
REMARK    5  A    between atoms: C_15  and  C_16
REMARK    6  A    between atoms: C_16  and  C_17
REMARK    7  A    between atoms: C_17  and  N_18
REMARK    8  A    between atoms: N_18  and  S_19
REMARK    9  A    between atoms: S_19  and  C_22
REMARK                            x       y       z     vdW  Elec       q    Type
REMARK                         _______ _______ _______ _____ _____    ______ ____
ROOT
ATOM      1  N   UNL     1       5.743  -2.945   1.507  0.00  0.00    -0.203 N 
ENDROOT
BRANCH   1   2
ATOM      2  C   UNL     1       6.449  -1.892   2.097  0.00  0.00    +0.051 A 
ATOM      3  C   UNL     1       7.389  -2.152   3.085  0.00  0.00    +0.027 A 
ATOM      4  C   UNL     1       8.085  -1.110   3.666  0.00  0.00    +0.040 A 
ATOM      5  C   UNL     1       7.846   0.193   3.263  0.00  0.00    +0.124 A 
ATOM      6  C   UNL     1       6.909   0.455   2.278  0.00  0.00    +0.040 A 
ATOM      7  C   UNL     1       6.214  -0.585   1.691  0.00  0.00    +0.027 A 
ATOM      8  F   UNL     1       8.528   1.211   3.833  0.00  0.00    -0.205 F 
ENDBRANCH   1   2
BRANCH   1   9
ATOM      9  S   UNL     1       5.139  -2.782  -0.026  0.00  0.00    +0.075 S 
ATOM     10  O   UNL     1       5.063  -4.091  -0.574  0.00  0.00    -0.150 OA
ATOM     11  O   UNL     1       5.880  -1.739  -0.645  0.00  0.00    -0.150 OA
BRANCH   9  17
ATOM     12  C   UNL     1      -0.717   0.466   0.386  0.00  0.00    +0.001 A 
ATOM     13  C   UNL     1       0.312   1.379   0.163  0.00  0.00    +0.001 A 
ATOM     14  C   UNL     1       1.603   0.965   0.041  0.00  0.00    +0.008 A 
ATOM     15  C   UNL     1       1.906  -0.404   0.142  0.00  0.00    -0.016 A 
ATOM     16  C   UNL     1       3.226  -0.870   0.022  0.00  0.00    +0.037 A 
ATOM     17  C   UNL     1       3.482  -2.202   0.125  0.00  0.00    +0.109 A 
ATOM     18  C   UNL     1       2.453  -3.115   0.348  0.00  0.00    +0.029 A 
ATOM     19  C   UNL     1       1.163  -2.701   0.470  0.00  0.00    +0.010 A 
ATOM     20  C   UNL     1       0.860  -1.332   0.369  0.00  0.00    -0.018 A 
ATOM     21  C   UNL     1      -0.461  -0.867   0.488  0.00  0.00    +0.008 A 
ENDBRANCH   9  17
ENDBRANCH   1   9
BRANCH   1  22
ATOM     22  C   UNL     1       5.537  -4.194   2.246  0.00  0.00    +0.133 C 
BRANCH  22  23
ATOM     23  C   UNL     1       6.755  -5.101   2.063  0.00  0.00    +0.037 C 
BRANCH  23  24
ATOM     24  C   UNL     1       6.541  -6.405   2.835  0.00  0.00    +0.107 C 
BRANCH  24  25
ATOM     25  N   UNL     1       7.707  -7.274   2.659  0.00  0.00    -0.190 NA
ATOM     26  H   UNL     1       8.350  -7.087   1.957  0.00  0.00    +0.148 HD
BRANCH  25  27
ATOM     27  S   UNL     1       7.928  -8.575   3.659  0.00  0.00    +0.058 S 
ATOM     28  O   UNL     1       9.115  -9.224   3.225  0.00  0.00    -0.153 OA
ATOM     29  O   UNL     1       7.764  -8.098   4.988  0.00  0.00    -0.153 OA
BRANCH  27  30
ATOM     30  C   UNL     1       6.602  -9.695   3.358  0.00  0.00    +0.105 A 
ATOM     31  C   UNL     1       5.430  -9.589   4.084  0.00  0.00    +0.031 A 
ATOM     32  C   UNL     1       4.389 -10.466   3.849  0.00  0.00    +0.040 A 
ATOM     33  C   UNL     1       4.520 -11.452   2.885  0.00  0.00    +0.124 A 
ATOM     34  C   UNL     1       5.694 -11.557   2.159  0.00  0.00    +0.040 A 
ATOM     35  C   UNL     1       6.732 -10.675   2.393  0.00  0.00    +0.031 A 
ATOM     36  F   UNL     1       3.503 -12.311   2.654  0.00  0.00    -0.205 F 
ENDBRANCH  27  30
ENDBRANCH  25  27
ENDBRANCH  24  25
ENDBRANCH  23  24
ENDBRANCH  22  23
ENDBRANCH   1  22
TORSDOF 9
