REMARK  Name = ZINC04200755
REMARK  17 active torsions:
REMARK  status: ('A' for Active; 'I' for Inactive)
REMARK    1  A    between atoms: C_1  and  C_2
REMARK    2  A    between atoms: C_2  and  C_3
REMARK    3  A    between atoms: C_3  and  C_5
REMARK    4  A    between atoms: C_3  and  N_8
REMARK    5  A    between atoms: C_9  and  C_11
REMARK    6  A    between atoms: C_13  and  N_22
REMARK    7  A    between atoms: C_15  and  O_21
REMARK    8  A    between atoms: C_17  and  O_20
REMARK    9  A    between atoms: N_22  and  N_29
REMARK   10  A    between atoms: C_23  and  O_25
REMARK   11  A    between atoms: O_25  and  C_26
REMARK   12  A    between atoms: C_26  and  C_27
REMARK   13  A    between atoms: C_26  and  C_28
REMARK   14  A    between atoms: C_30  and  O_32
REMARK   15  A    between atoms: O_32  and  C_33
REMARK   16  A    between atoms: C_33  and  C_34
REMARK   17  A    between atoms: C_33  and  C_35
REMARK                            x       y       z     vdW  Elec       q    Type
REMARK                         _______ _______ _______ _____ _____    ______ ____
ROOT
ATOM      1  C   UNL     1      -0.733   1.580  -1.212  0.00  0.00    +0.015 C 
ATOM      2  C   UNL     1      -1.966   2.039  -1.198  0.00  0.00    +0.008 C 
ATOM      3  C   UNL     1      -2.807   2.135   0.041  0.00  0.00    +0.155 C 
ATOM      4  C   UNL     1      -2.216   1.259   1.148  0.00  0.00    +0.169 C 
ATOM      5  C   UNL     1      -0.723   1.577   1.271  0.00  0.00    +0.150 C 
ATOM      6  C   UNL     1      -0.013   1.086   0.008  0.00  0.00    +0.074 C 
ENDROOT
BRANCH   1   8
ATOM      7  N   UNL     1       1.245   1.089  -2.556  0.00  0.00    -0.300 N 
ATOM      8  C   UNL     1      -0.020   1.551  -2.498  0.00  0.00    +0.241 C 
ATOM      9  O   UNL     1      -0.571   1.943  -3.509  0.00  0.00    -0.271 OA
ATOM     10  H   UNL     1       1.685   0.775  -1.750  0.00  0.00    +0.150 HD
BRANCH   7  11
ATOM     11  C   UNL     1       1.956   1.059  -3.837  0.00  0.00    +0.159 C 
BRANCH  11  12
ATOM     12  C   UNL     1       1.612  -0.210  -4.574  0.00  0.00    +0.231 C 
ATOM     13  O   UNL     1       0.848  -1.011  -4.077  0.00  0.00    -0.274 OA
ATOM     14  N   UNL     1       2.153  -0.455  -5.783  0.00  0.00    -0.328 N 
ATOM     15  H   UNL     1       2.764   0.186  -6.180  0.00  0.00    +0.145 HD
ATOM     16  H   UNL     1       1.931  -1.272  -6.257  0.00  0.00    +0.145 HD
ENDBRANCH  11  12
BRANCH  11  18
ATOM     17  C   UNL     1       3.831   2.452  -2.949  0.00  0.00    +0.006 C 
ATOM     18  C   UNL     1       3.464   1.109  -3.584  0.00  0.00    +0.028 C 
ENDBRANCH  11  18
ENDBRANCH   7  11
ENDBRANCH   1   8
BRANCH   3  19
ATOM     19  N   UNL     1      -4.168   1.684  -0.260  0.00  0.00    -0.174 N 
ATOM     20  C   UNL     1      -5.209   2.524  -0.093  0.00  0.00    +0.420 C 
ATOM     21  O   UNL     1      -5.018   3.655   0.306  0.00  0.00    -0.225 OA
BRANCH  19  22
ATOM     22  N   UNL     1      -4.388   0.379  -0.720  0.00  0.00    -0.194 N 
ATOM     23  C   UNL     1      -4.908  -0.549   0.107  0.00  0.00    +0.417 C 
ATOM     24  O   UNL     1      -5.098  -1.681  -0.293  0.00  0.00    -0.225 OA
ATOM     25  H   UNL     1      -4.167   0.144  -1.635  0.00  0.00    +0.177 HD
BRANCH  23  26
ATOM     26  O   UNL     1      -5.216  -0.223   1.377  0.00  0.00    -0.447 OA
BRANCH  26  27
ATOM     27  C   UNL     1      -5.771  -1.273   2.211  0.00  0.00    +0.172 C 
ATOM     28  C   UNL     1      -4.637  -2.014   2.922  0.00  0.00    +0.052 C 
ATOM     29  C   UNL     1      -6.708  -0.656   3.251  0.00  0.00    +0.052 C 
ENDBRANCH  26  27
ENDBRANCH  23  26
ENDBRANCH  19  22
BRANCH  20  30
ATOM     30  O   UNL     1      -6.460   2.109  -0.370  0.00  0.00    -0.447 OA
BRANCH  30  31
ATOM     31  C   UNL     1      -7.532   3.068  -0.167  0.00  0.00    +0.172 C 
ATOM     32  C   UNL     1      -7.758   3.860  -1.456  0.00  0.00    +0.052 C 
ATOM     33  C   UNL     1      -8.816   2.325   0.208  0.00  0.00    +0.052 C 
ENDBRANCH  30  31
ENDBRANCH  20  30
ENDBRANCH   3  19
BRANCH   5  34
ATOM     34  O   UNL     1      -0.542   2.987   1.407  0.00  0.00    -0.389 OA
ATOM     35  H   UNL     1       0.383   3.260   1.477  0.00  0.00    +0.210 HD
ENDBRANCH   5  34
BRANCH   4  36
ATOM     36  O   UNL     1      -2.875   1.538   2.385  0.00  0.00    -0.387 OA
ATOM     37  H   UNL     1      -2.548   1.017   3.131  0.00  0.00    +0.210 HD
ENDBRANCH   4  36
TORSDOF 12
