REMARK  Name = ZINC63514117
REMARK  9 active torsions:
REMARK  status: ('A' for Active; 'I' for Inactive)
REMARK    1  A    between atoms: C_1  and  C_2
REMARK    2  A    between atoms: C_7  and  C_30
REMARK    3  A    between atoms: C_9  and  C_12
REMARK    4  A    between atoms: C_12  and  C_13
REMARK    5  A    between atoms: C_13  and  N_14
REMARK    6  A    between atoms: N_14  and  S_15
REMARK    7  A    between atoms: S_15  and  C_18
REMARK    8  A    between atoms: C_21  and  O_28
REMARK    9  A    between atoms: O_28  and  C_29
REMARK                            x       y       z     vdW  Elec       q    Type
REMARK                         _______ _______ _______ _____ _____    ______ ____
ROOT
ATOM      1  N   UNL     1       0.433  -0.972   5.216  0.00  0.00    -0.190 NA
ATOM      2  H   UNL     1       0.394  -1.741   5.807  0.00  0.00    +0.148 HD
ENDROOT
BRANCH   1   3
ATOM      3  S   UNL     1       0.922   0.498   5.802  0.00  0.00    +0.059 S 
ATOM      4  O   UNL     1      -0.049   1.446   5.380  0.00  0.00    -0.153 OA
ATOM      5  O   UNL     1       1.250   0.301   7.170  0.00  0.00    -0.153 OA
BRANCH   3   6
ATOM      6  C   UNL     1       2.423   0.913   4.979  0.00  0.00    +0.113 A 
ATOM      7  C   UNL     1       2.476   2.001   4.161  0.00  0.00    +0.033 A 
ATOM      8  C   UNL     1       3.651   2.347   3.501  0.00  0.00    +0.048 A 
ATOM      9  C   UNL     1       4.788   1.605   3.656  0.00  0.00    +0.128 A 
ATOM     10  C   UNL     1       4.770   0.473   4.496  0.00  0.00    +0.026 A 
ATOM     11  C   UNL     1       3.572   0.128   5.169  0.00  0.00    +0.012 A 
ATOM     12  C   UNL     1       3.555  -0.998   6.011  0.00  0.00    +0.010 A 
ATOM     13  C   UNL     1       4.687  -1.737   6.171  0.00  0.00    +0.001 A 
ATOM     14  C   UNL     1       5.867  -1.393   5.513  0.00  0.00    +0.001 A 
ATOM     15  C   UNL     1       5.917  -0.316   4.681  0.00  0.00    +0.012 A 
BRANCH   9  16
ATOM     16  O   UNL     1       5.928   1.955   3.005  0.00  0.00    -0.495 OA
ATOM     17  C   UNL     1       5.868   3.114   2.171  0.00  0.00    +0.277 C 
ENDBRANCH   9  16
ENDBRANCH   3   6
ENDBRANCH   1   3
BRANCH   1  18
ATOM     18  C   UNL     1       0.059  -1.111   3.807  0.00  0.00    +0.110 C 
BRANCH  18  19
ATOM     19  C   UNL     1       0.019  -2.595   3.434  0.00  0.00    +0.050 C 
BRANCH  19  27
ATOM     20  C   UNL     1      -1.018   1.976   0.315  0.00  0.00    +0.044 C 
ATOM     21  C   UNL     1      -0.990   0.475   0.176  0.00  0.00    -0.050 A 
ATOM     22  C   UNL     1      -1.298  -0.102  -1.064  0.00  0.00    +0.005 A 
ATOM     23  C   UNL     1      -1.294  -1.436  -1.268  0.00  0.00    +0.026 A 
ATOM     24  C   UNL     1      -0.970  -2.325  -0.206  0.00  0.00    +0.043 A 
ATOM     25  N   UNL     1      -0.899  -3.633  -0.154  0.00  0.00    -0.378 N 
ATOM     26  C   UNL     1      -0.517  -4.027   1.207  0.00  0.00    +0.103 C 
ATOM     27  C   UNL     1      -0.364  -2.738   1.984  0.00  0.00    -0.037 C 
ATOM     28  C   UNL     1      -0.641  -1.740   1.113  0.00  0.00    -0.001 A 
ATOM     29  C   UNL     1      -0.662  -0.279   1.250  0.00  0.00    +0.013 A 
ATOM     30  C   UNL     1       0.809  -4.790   1.181  0.00  0.00    +0.035 C 
ATOM     31  H   UNL     1      -1.072  -4.239  -0.891  0.00  0.00    +0.160 HD
ENDBRANCH  19  27
ENDBRANCH  18  19
ENDBRANCH   1  18
TORSDOF 6
