REMARK  Name = ZINC10436309
REMARK  14 active torsions:
REMARK  status: ('A' for Active; 'I' for Inactive)
REMARK    1  A    between atoms: C_1  and  C_2
REMARK    2  A    between atoms: C_2  and  C_3
REMARK    3  A    between atoms: C_3  and  C_4
REMARK    4  A    between atoms: C_4  and  C_6
REMARK    5  A    between atoms: C_4  and  N_66
REMARK    6  A    between atoms: C_12  and  C_13
REMARK    7  A    between atoms: C_12  and  N_66
REMARK    8  A    between atoms: C_16  and  O_19
REMARK    9  A    between atoms: O_19  and  C_20
REMARK   10  A    between atoms: C_20  and  C_21
REMARK   11  A    between atoms: C_21  and  C_23
REMARK   12  A    between atoms: C_21  and  O_35
REMARK   13  A    between atoms: N_29  and  C_34
REMARK   14  A    between atoms: N_32  and  C_33
REMARK                            x       y       z     vdW  Elec       q    Type
REMARK                         _______ _______ _______ _____ _____    ______ ____
ROOT
ATOM      1  C   UNL     1       1.288  -2.425   1.699  0.00  0.00    -0.064 A 
ATOM      2  C   UNL     1       2.037  -3.028   2.692  0.00  0.00    +0.005 A 
ATOM      3  C   UNL     1       2.079  -4.406   2.787  0.00  0.00    +0.046 A 
ATOM      4  C   UNL     1       1.377  -5.184   1.878  0.00  0.00    +0.121 A 
ATOM      5  C   UNL     1       0.630  -4.576   0.879  0.00  0.00    +0.046 A 
ATOM      6  C   UNL     1       0.587  -3.198   0.792  0.00  0.00    +0.005 A 
ENDROOT
BRANCH   1   7
ATOM      7  C   UNL     1       1.239  -0.922   1.602  0.00  0.00    -0.046 C 
BRANCH   7   8
ATOM      8  N   UNL     1       0.112  -0.421   2.412  0.00  0.00    +0.386 N 
ATOM      9  H   UNL     1      -0.770  -0.762   2.012  0.00  0.00    -0.085 HD
ATOM     10  H   UNL     1       0.207  -0.767   3.374  0.00  0.00    -0.085 HD
BRANCH   8  11
ATOM     11  C   UNL     1       0.105   1.054   2.423  0.00  0.00    -0.040 C 
BRANCH  11  12
ATOM     12  C   UNL     1      -0.575   1.536   3.679  0.00  0.00    -0.061 A 
ATOM     13  C   UNL     1      -1.704   0.888   4.146  0.00  0.00    +0.002 A 
ATOM     14  C   UNL     1      -2.325   1.328   5.300  0.00  0.00    +0.000 A 
ATOM     15  C   UNL     1      -1.823   2.420   5.982  0.00  0.00    +0.000 A 
ATOM     16  C   UNL     1      -0.697   3.070   5.513  0.00  0.00    +0.000 A 
ATOM     17  C   UNL     1      -0.073   2.628   4.361  0.00  0.00    +0.002 A 
ENDBRANCH  11  12
BRANCH  11  18
ATOM     18  C   UNL     1      -0.657   1.569   1.201  0.00  0.00    -0.011 C 
BRANCH  18  20
ATOM     19  C   UNL     1      -1.198   3.600  -0.151  0.00  0.00    +0.004 C 
ATOM     20  C   UNL     1      -0.553   3.095   1.141  0.00  0.00    -0.005 C 
ENDBRANCH  18  20
ENDBRANCH  11  18
ENDBRANCH   8  11
ENDBRANCH   7   8
ENDBRANCH   1   7
BRANCH   4  21
ATOM     21  O   UNL     1       1.421  -6.540   1.966  0.00  0.00    -0.489 OA
BRANCH  21  22
ATOM     22  C   UNL     1       2.210  -7.096   3.019  0.00  0.00    +0.265 C 
BRANCH  22  23
ATOM     23  C   UNL     1       2.138  -8.623   2.958  0.00  0.00    +0.182 C 
BRANCH  23  24
ATOM     24  C   UNL     1       2.869  -9.208   4.139  0.00  0.00    -0.014 A 
ATOM     25  C   UNL     1       4.249  -9.311   4.114  0.00  0.00    +0.008 A 
ATOM     26  C   UNL     1       4.927  -9.841   5.194  0.00  0.00    +0.028 A 
ATOM     27  C   UNL     1       4.222 -10.283   6.303  0.00  0.00    +0.070 A 
ATOM     28  C   UNL     1       2.830 -10.184   6.326  0.00  0.00    +0.070 A 
ATOM     29  C   UNL     1       2.158  -9.645   5.239  0.00  0.00    +0.034 A 
ATOM     30  N   UNL     1       2.410 -10.698   7.550  0.00  0.00    -0.295 N 
ATOM     31  C   UNL     1       3.497 -11.092   8.240  0.00  0.00    +0.330 A 
ATOM     32  O   UNL     1       3.480 -11.589   9.351  0.00  0.00    -0.246 OA
ATOM     33  N   UNL     1       4.605 -10.854   7.514  0.00  0.00    -0.295 N 
ATOM     34  C   UNL     1       5.980 -11.147   7.927  0.00  0.00    +0.154 C 
ATOM     35  C   UNL     1       1.022 -10.795   8.009  0.00  0.00    +0.154 C 
ENDBRANCH  23  24
BRANCH  23  36
ATOM     36  O   UNL     1       2.745  -9.081   1.748  0.00  0.00    -0.384 OA
ATOM     37  H   UNL     1       3.676  -8.835   1.658  0.00  0.00    +0.210 HD
ENDBRANCH  23  36
ENDBRANCH  22  23
ENDBRANCH  21  22
ENDBRANCH   4  21
TORSDOF 11
