REMARK  Name = ZINC29619015
REMARK  8 active torsions:
REMARK  status: ('A' for Active; 'I' for Inactive)
REMARK    1  A    between atoms: C_1  and  C_2
REMARK    2  A    between atoms: C_5  and  N_9
REMARK    3  A    between atoms: C_6  and  C_8
REMARK    4  A    between atoms: C_13  and  C_15
REMARK    5  A    between atoms: C_15  and  C_17
REMARK    6  A    between atoms: C_15  and  S_18
REMARK    7  A    between atoms: S_18  and  C_19
REMARK    8  A    between atoms: C_30  and  C_32
REMARK                            x       y       z     vdW  Elec       q    Type
REMARK                         _______ _______ _______ _____ _____    ______ ____
ROOT
ATOM      1  C   UNL     1      -0.733   1.592   1.298  0.00  0.00    +0.137 C 
ATOM      2  C   UNL     1      -0.004   1.102   0.046  0.00  0.00    +0.029 C 
ENDROOT
BRANCH   1   7
ATOM      3  N   UNL     1      -3.930  -1.866   2.265  0.00  0.00    -0.269 N 
ATOM      4  C   UNL     1      -3.669  -0.636   1.780  0.00  0.00    +0.310 C 
ATOM      5  O   UNL     1      -4.572   0.048   1.340  0.00  0.00    -0.252 OA
ATOM      6  N   UNL     1      -2.406  -0.165   1.782  0.00  0.00    -0.239 N 
ATOM      7  C   UNL     1      -2.145   1.065   1.296  0.00  0.00    +0.234 C 
ATOM      8  O   UNL     1      -3.046   1.748   0.857  0.00  0.00    -0.274 OA
ATOM      9  H   UNL     1      -3.103  -2.521   2.578  0.00  0.00    +0.156 HD
ATOM     10  H   UNL     1      -1.589  -0.784   2.180  0.00  0.00    +0.159 HD
BRANCH   3  15
ATOM     11  C   UNL     1      -9.293  -3.664   2.698  0.00  0.00    +0.044 C 
ATOM     12  C   UNL     1      -7.868  -3.186   2.584  0.00  0.00    -0.050 A 
ATOM     13  C   UNL     1      -7.592  -1.831   2.592  0.00  0.00    +0.005 A 
ATOM     14  C   UNL     1      -6.288  -1.390   2.486  0.00  0.00    +0.024 A 
ATOM     15  C   UNL     1      -5.253  -2.309   2.372  0.00  0.00    +0.038 A 
ATOM     16  C   UNL     1      -5.534  -3.669   2.359  0.00  0.00    -0.029 A 
ATOM     17  C   UNL     1      -6.840  -4.104   2.470  0.00  0.00    +0.008 A 
ATOM     18  C   UNL     1      -4.414  -4.669   2.229  0.00  0.00    +0.045 C 
ENDBRANCH   3  15
ENDBRANCH   1   7
BRANCH   1  19
ATOM     19  S   UNL     1      -0.764   3.402   1.310  0.00  0.00    -0.073 S 
BRANCH  19  20
ATOM     20  C   UNL     1       0.959   3.736   1.462  0.00  0.00    +0.193 A 
ATOM     21  N   UNL     1       1.790   2.728   1.526  0.00  0.00    -0.222 NA
ATOM     22  C   UNL     1       3.128   2.907   1.643  0.00  0.00    +0.077 A 
ATOM     23  C   UNL     1       4.005   1.821   1.710  0.00  0.00    +0.028 A 
ATOM     24  C   UNL     1       5.358   2.042   1.828  0.00  0.00    +0.002 A 
ATOM     25  C   UNL     1       5.866   3.334   1.881  0.00  0.00    +0.001 A 
ATOM     26  C   UNL     1       5.022   4.421   1.818  0.00  0.00    +0.014 A 
ATOM     27  C   UNL     1       3.649   4.220   1.698  0.00  0.00    +0.045 A 
ATOM     28  C   UNL     1       2.702   5.339   1.625  0.00  0.00    +0.168 A 
ATOM     29  N   UNL     1       1.372   5.040   1.502  0.00  0.00    -0.188 N 
ATOM     30  N   UNL     1       0.705   6.271   1.448  0.00  0.00    -0.148 NA
ATOM     31  C   UNL     1       1.618   7.208   1.531  0.00  0.00    +0.149 A 
ATOM     32  N   UNL     1       2.819   6.649   1.646  0.00  0.00    -0.211 NA
ATOM     33  C   UNL     1       1.346   8.690   1.513  0.00  0.00    +0.090 C 
ENDBRANCH  19  20
ENDBRANCH   1  19
TORSDOF 4
