REMARK  Name = ZINC01753043
REMARK  7 active torsions:
REMARK  status: ('A' for Active; 'I' for Inactive)
REMARK    1  A    between atoms: C_1  and  C_2
REMARK    2  A    between atoms: C_2  and  C_4
REMARK    3  A    between atoms: C_2  and  N_47
REMARK    4  A    between atoms: C_4  and  O_6
REMARK    5  A    between atoms: O_6  and  C_7
REMARK    6  A    between atoms: C_14  and  C_28
REMARK    7  A    between atoms: C_15  and  C_18
REMARK                            x       y       z     vdW  Elec       q    Type
REMARK                         _______ _______ _______ _____ _____    ______ ____
ROOT
ATOM      1  C   UNL     1      -7.768  -3.645  -0.825  0.00  0.00    +0.135 A 
ATOM      2  C   UNL     1      -7.053  -3.731  -2.018  0.00  0.00    +0.047 A 
ATOM      3  C   UNL     1      -5.858  -3.084  -2.153  0.00  0.00    +0.019 A 
ATOM      4  C   UNL     1      -5.352  -2.334  -1.090  0.00  0.00    +0.065 A 
ATOM      5  C   UNL     1      -6.065  -2.241   0.117  0.00  0.00    +0.143 A 
ATOM      6  C   UNL     1      -7.279  -2.905   0.238  0.00  0.00    +0.093 A 
ATOM      7  O   UNL     1      -5.575  -1.516   1.143  0.00  0.00    -0.450 OA
ATOM      8  C   UNL     1      -4.415  -0.857   1.086  0.00  0.00    +0.219 A 
ATOM      9  C   UNL     1      -3.626  -0.861  -0.019  0.00  0.00    +0.077 A 
ATOM     10  C   UNL     1      -4.068  -1.617  -1.203  0.00  0.00    +0.201 A 
ATOM     11  O   UNL     1      -3.404  -1.653  -2.224  0.00  0.00    -0.286 OA
ENDROOT
BRANCH   9  12
ATOM     12  C   UNL     1      -2.345  -0.113  -0.036  0.00  0.00    -0.007 A 
ATOM     13  C   UNL     1      -2.347   1.278   0.059  0.00  0.00    +0.012 A 
ATOM     14  C   UNL     1      -1.155   1.972   0.038  0.00  0.00    +0.050 A 
ATOM     15  C   UNL     1       0.050   1.290  -0.069  0.00  0.00    +0.162 A 
ATOM     16  C   UNL     1       0.058  -0.097  -0.162  0.00  0.00    +0.163 A 
ATOM     17  C   UNL     1      -1.137  -0.798  -0.146  0.00  0.00    +0.058 A 
ATOM     18  O   UNL     1       1.230  -0.782  -0.267  0.00  0.00    -0.485 OA
ATOM     19  C   UNL     1       2.382  -0.027  -0.656  0.00  0.00    +0.270 C 
ATOM     20  C   UNL     1       2.415   1.262   0.175  0.00  0.00    +0.270 C 
ATOM     21  O   UNL     1       1.214   1.996  -0.088  0.00  0.00    -0.485 OA
ENDBRANCH   9  12
BRANCH   8  22
ATOM     22  C   UNL     1      -3.965  -0.078   2.295  0.00  0.00    +0.451 C 
ATOM     23  F   UNL     1      -4.455   1.230   2.216  0.00  0.00    -0.163 F 
ATOM     24  F   UNL     1      -4.456  -0.690   3.453  0.00  0.00    -0.163 F 
ATOM     25  F   UNL     1      -2.567  -0.051   2.338  0.00  0.00    -0.163 F 
ENDBRANCH   8  22
BRANCH   1  26
ATOM     26  O   UNL     1      -8.955  -4.293  -0.704  0.00  0.00    -0.427 OA
BRANCH  26  27
ATOM     27  C   UNL     1      -8.917  -5.634  -0.666  0.00  0.00    +0.297 C 
ATOM     28  O   UNL     1      -7.854  -6.208  -0.634  0.00  0.00    -0.252 OA
BRANCH  27  30
ATOM     29  C   UNL     1     -10.992  -6.114  -1.937  0.00  0.00    -0.003 C 
ATOM     30  C   UNL     1     -10.200  -6.425  -0.665  0.00  0.00    +0.033 C 
BRANCH  30  33
ATOM     31  H   UNL     1      -9.312  -8.081   0.176  0.00  0.00    -0.089 HD
ATOM     32  H   UNL     1     -10.734  -8.413  -0.619  0.00  0.00    -0.089 HD
ATOM     33  N   UNL     1      -9.877  -7.863  -0.642  0.00  0.00    +0.387 N 
ATOM     34  H   UNL     1      -9.348  -8.104  -1.489  0.00  0.00    -0.089 HD
ENDBRANCH  30  33
ENDBRANCH  27  30
ENDBRANCH  26  27
ENDBRANCH   1  26
TORSDOF 6
