REMARK  Name = ZINC05533736
REMARK  5 active torsions:
REMARK  status: ('A' for Active; 'I' for Inactive)
REMARK    1  A    between atoms: C_1  and  C_2
REMARK    2  A    between atoms: C_7  and  N_8
REMARK    3  A    between atoms: C_13  and  C_16
REMARK    4  A    between atoms: C_16  and  C_17
REMARK    5  A    between atoms: C_21  and  N_23
REMARK                            x       y       z     vdW  Elec       q    Type
REMARK                         _______ _______ _______ _____ _____    ______ ____
ROOT
ATOM      1  N   UNL     1       0.025  -0.037   2.399  0.00  0.00    -0.226 NA
ATOM      2  C   UNL     1      -0.054  -0.701   3.528  0.00  0.00    +0.161 C 
ATOM      3  N   UNL     1      -0.166  -0.197   4.806  0.00  0.00    -0.264 N 
ATOM      4  C   UNL     1      -0.238  -0.975   5.872  0.00  0.00    +0.232 C 
ATOM      5  O   UNL     1      -0.336  -0.524   6.994  0.00  0.00    -0.274 OA
ATOM      6  C   UNL     1      -0.190  -2.471   5.604  0.00  0.00    +0.144 C 
ATOM      7  S   UNL     1      -0.050  -2.471   3.769  0.00  0.00    -0.077 S 
ATOM      8  H   UNL     1      -0.193   0.765   4.928  0.00  0.00    +0.157 HD
ENDROOT
BRANCH   1  15
ATOM      9  C   UNL     1       2.058   0.599   0.518  0.00  0.00    +0.046 C 
ATOM     10  C   UNL     1       0.999  -0.438   0.246  0.00  0.00    -0.025 A 
ATOM     11  C   UNL     1       0.995  -1.124  -0.951  0.00  0.00    +0.005 A 
ATOM     12  C   UNL     1       0.023  -2.076  -1.203  0.00  0.00    +0.000 A 
ATOM     13  C   UNL     1      -0.950  -2.348  -0.257  0.00  0.00    +0.002 A 
ATOM     14  C   UNL     1      -0.957  -1.669   0.944  0.00  0.00    +0.028 A 
ATOM     15  C   UNL     1       0.023  -0.710   1.206  0.00  0.00    +0.069 A 
ENDBRANCH   1  15
BRANCH   6  16
ATOM     16  C   UNL     1       1.034  -3.113   6.260  0.00  0.00    +0.059 C 
BRANCH  16  17
ATOM     17  C   UNL     1       0.978  -4.607   6.074  0.00  0.00    -0.044 A 
ATOM     18  C   UNL     1       0.342  -5.397   7.014  0.00  0.00    +0.004 A 
ATOM     19  C   UNL     1       0.291  -6.768   6.843  0.00  0.00    +0.002 A 
ATOM     20  C   UNL     1       0.875  -7.349   5.733  0.00  0.00    +0.033 A 
ATOM     21  C   UNL     1       1.510  -6.559   4.793  0.00  0.00    +0.126 A 
ATOM     22  C   UNL     1       1.558  -5.188   4.962  0.00  0.00    +0.036 A 
BRANCH  21  23
ATOM     23  N   UNL     1       2.136  -7.181   3.605  0.00  0.00    +0.056 N 
ATOM     24  O   UNL     1       2.092  -8.380   3.457  0.00  0.00    -0.126 OA
ATOM     25  O   UNL     1       2.692  -6.490   2.783  0.00  0.00    -0.126 OA
ENDBRANCH  21  23
ENDBRANCH  16  17
ENDBRANCH   6  16
TORSDOF 4
