REMARK  Name = ZINC66275000
REMARK  8 active torsions:
REMARK  status: ('A' for Active; 'I' for Inactive)
REMARK    1  A    between atoms: C_1  and  C_2
REMARK    2  A    between atoms: C_2  and  C_3
REMARK    3  A    between atoms: C_6  and  C_26
REMARK    4  A    between atoms: C_13  and  O_14
REMARK    5  A    between atoms: O_14  and  C_15
REMARK    6  A    between atoms: C_15  and  C_17
REMARK    7  A    between atoms: N_20  and  C_25
REMARK    8  A    between atoms: C_21  and  C_22
REMARK                            x       y       z     vdW  Elec       q    Type
REMARK                         _______ _______ _______ _____ _____    ______ ____
ROOT
ATOM      1  C   UNL     1      -1.419  -0.436   0.019  0.00  0.00    -0.004 A 
ATOM      2  C   UNL     1      -1.999  -0.762   1.211  0.00  0.00    +0.019 A 
ATOM      3  C   UNL     1      -3.281  -1.322   1.231  0.00  0.00    +0.021 A 
ATOM      4  C   UNL     1      -3.929  -1.680   2.495  0.00  0.00    -0.033 A 
ATOM      5  C   UNL     1      -5.174  -2.220   2.447  0.00  0.00    +0.096 A 
ATOM      6  C   UNL     1      -5.805  -2.420   1.202  0.00  0.00    +0.337 A 
ATOM      7  O   UNL     1      -6.922  -2.905   1.174  0.00  0.00    -0.245 OA
ATOM      8  O   UNL     1      -5.206  -2.089   0.047  0.00  0.00    -0.422 OA
ATOM      9  C   UNL     1      -3.969  -1.549   0.024  0.00  0.00    +0.143 A 
ATOM     10  C   UNL     1      -3.365  -1.213  -1.178  0.00  0.00    +0.093 A 
ATOM     11  C   UNL     1      -2.097  -0.653  -1.178  0.00  0.00    +0.139 A 
ATOM     12  C   UNL     1      -3.232  -1.456   3.812  0.00  0.00    +0.045 C 
ENDROOT
BRANCH   1  14
ATOM     13  C   UNL     1      -0.149   1.692  -0.048  0.00  0.00    +0.009 C 
ATOM     14  C   UNL     1      -0.038   0.167  -0.002  0.00  0.00    +0.035 C 
ENDBRANCH   1  14
BRANCH  11  15
ATOM     15  O   UNL     1      -1.509  -0.320  -2.356  0.00  0.00    -0.422 OA
BRANCH  15  16
ATOM     16  C   UNL     1      -0.650  -1.201  -2.906  0.00  0.00    +0.348 C 
ATOM     17  O   UNL     1      -0.502  -2.298  -2.406  0.00  0.00    -0.244 OA
BRANCH  16  18
ATOM     18  C   UNL     1       0.108  -0.833  -4.114  0.00  0.00    +0.105 A 
ATOM     19  C   UNL     1       0.046   0.401  -4.801  0.00  0.00    +0.149 A 
ATOM     20  N   UNL     1       0.863   0.338  -5.816  0.00  0.00    -0.179 NA
ATOM     21  N   UNL     1       1.477  -0.919  -5.828  0.00  0.00    -0.265 N 
ATOM     22  C   UNL     1       1.017  -1.628  -4.785  0.00  0.00    +0.118 A 
ATOM     23  C   UNL     1       2.461  -1.381  -6.810  0.00  0.00    +0.173 C 
BRANCH  22  24
ATOM     24  C   UNL     1       1.417  -3.033  -4.415  0.00  0.00    +0.390 C 
ATOM     25  F   UNL     1       2.737  -3.263  -4.818  0.00  0.00    -0.202 F 
ATOM     26  F   UNL     1       1.317  -3.197  -3.030  0.00  0.00    -0.202 F 
ENDBRANCH  22  24
ENDBRANCH  16  18
ENDBRANCH  15  16
ENDBRANCH  11  15
TORSDOF 5
