REMARK  Name = ZINC09194736
REMARK  6 active torsions:
REMARK  status: ('A' for Active; 'I' for Inactive)
REMARK    1  A    between atoms: C_1  and  C_2
REMARK    2  A    between atoms: C_9  and  C_14
REMARK    3  A    between atoms: C_12  and  C_13
REMARK    4  A    between atoms: N_16  and  C_17
REMARK    5  A    between atoms: C_18  and  C_26
REMARK    6  A    between atoms: N_28  and  C_29
REMARK                            x       y       z     vdW  Elec       q    Type
REMARK                         _______ _______ _______ _____ _____    ______ ____
ROOT
ATOM      1  C   UNL     1      -3.609   2.276   0.049  0.00  0.00    +0.284 C 
ATOM      2  O   UNL     1      -4.701   1.743   0.056  0.00  0.00    -0.266 OA
ATOM      3  N   UNL     1      -3.516   3.621   0.055  0.00  0.00    -0.273 N 
ATOM      4  H   UNL     1      -2.644   4.047   0.049  0.00  0.00    +0.156 HD
ENDROOT
BRANCH   1  13
ATOM      5  C   UNL     1       3.684   2.152  -0.019  0.00  0.00    +0.044 C 
ATOM      6  C   UNL     1       2.380   1.398  -0.012  0.00  0.00    -0.044 A 
ATOM      7  C   UNL     1       2.390   0.010  -0.020  0.00  0.00    +0.004 A 
ATOM      8  C   UNL     1       1.216  -0.691  -0.013  0.00  0.00    +0.015 A 
ATOM      9  C   UNL     1       0.002  -0.004   0.002  0.00  0.00    +0.064 A 
ATOM     10  C   UNL     1      -1.286  -0.723   0.011  0.00  0.00    +0.193 A 
ATOM     11  O   UNL     1      -1.338  -1.940   0.004  0.00  0.00    -0.287 OA
ATOM     12  C   UNL     1      -2.505   0.100   0.027  0.00  0.00    +0.103 A 
ATOM     13  C   UNL     1      -2.381   1.449   0.033  0.00  0.00    +0.194 A 
ATOM     14  O   UNL     1      -1.189   2.064   0.030  0.00  0.00    -0.450 OA
ATOM     15  C   UNL     1      -0.017   1.401   0.010  0.00  0.00    +0.143 A 
ATOM     16  C   UNL     1       1.190   2.093   0.002  0.00  0.00    -0.005 A 
ATOM     17  C   UNL     1       1.196   3.600   0.010  0.00  0.00    +0.048 C 
ENDBRANCH   1  13
BRANCH   3  18
ATOM     18  C   UNL     1      -4.664   4.394   0.070  0.00  0.00    +0.085 A 
ATOM     19  C   UNL     1      -4.771   5.779   0.084  0.00  0.00    +0.069 A 
ATOM     20  C   UNL     1      -6.108   6.348   0.093  0.00  0.00    -0.023 A 
ATOM     21  C   UNL     1      -7.116   5.449   0.099  0.00  0.00    -0.004 A 
ATOM     22  S   UNL     1      -6.315   3.870   0.083  0.00  0.00    -0.077 S 
ATOM     23  C   UNL     1      -8.585   5.739   0.115  0.00  0.00    +0.043 C 
ATOM     24  C   UNL     1      -8.782   7.212   0.503  0.00  0.00    +0.005 C 
ATOM     25  C   UNL     1      -7.838   8.075  -0.339  0.00  0.00    +0.005 C 
ATOM     26  C   UNL     1      -6.391   7.845   0.103  0.00  0.00    +0.037 C 
BRANCH  19  27
ATOM     27  C   UNL     1      -3.580   6.634   0.085  0.00  0.00    +0.246 C 
ATOM     28  O   UNL     1      -3.093   7.000  -0.969  0.00  0.00    -0.270 OA
ATOM     29  N   UNL     1      -3.026   7.015   1.253  0.00  0.00    -0.314 N 
ATOM     30  C   UNL     1      -1.836   7.870   1.254  0.00  0.00    +0.128 C 
ATOM     31  H   UNL     1      -3.414   6.724   2.092  0.00  0.00    +0.149 HD
ENDBRANCH  19  27
ENDBRANCH   3  18
TORSDOF 3
