REMARK  Name = ZINC60219881
REMARK  7 active torsions:
REMARK  status: ('A' for Active; 'I' for Inactive)
REMARK    1  A    between atoms: C_1  and  N_2
REMARK    2  A    between atoms: N_2  and  C_3
REMARK    3  A    between atoms: C_3  and  C_4
REMARK    4  A    between atoms: N_13  and  C_14
REMARK    5  A    between atoms: C_14  and  C_15
REMARK    6  A    between atoms: N_18  and  C_21
REMARK    7  A    between atoms: C_21  and  C_22
REMARK                            x       y       z     vdW  Elec       q    Type
REMARK                         _______ _______ _______ _____ _____    ______ ____
ROOT
ATOM      1  C   UNL     1      -0.018   1.461   0.010  0.00  0.00    +0.134 C 
ATOM      2  N   UNL     1       0.002  -0.004   0.002  0.00  0.00    -0.284 N 
ATOM      3  C   UNL     1       0.000  -0.672  -1.169  0.00  0.00    +0.302 C 
ATOM      4  O   UNL     1       0.017  -1.887  -1.175  0.00  0.00    -0.253 OA
ATOM      5  N   UNL     1      -0.020   0.009  -2.332  0.00  0.00    -0.299 N 
ATOM      6  H   UNL     1      -0.033   0.978  -2.327  0.00  0.00    +0.150 HD
ENDROOT
BRANCH   2   7
ATOM      7  C   UNL     1       0.024  -0.743   1.267  0.00  0.00    +0.144 C 
BRANCH   7   8
ATOM      8  C   UNL     1      -1.389  -1.016   1.714  0.00  0.00    -0.030 A 
ATOM      9  C   UNL     1      -2.047  -0.105   2.518  0.00  0.00    +0.006 A 
ATOM     10  C   UNL     1      -3.343  -0.354   2.928  0.00  0.00    +0.015 A 
ATOM     11  C   UNL     1      -3.982  -1.516   2.533  0.00  0.00    +0.018 A 
ATOM     12  C   UNL     1      -3.323  -2.428   1.728  0.00  0.00    +0.015 A 
ATOM     13  C   UNL     1      -2.029  -2.175   1.314  0.00  0.00    +0.006 A 
ATOM     14 BR   UNL     1      -5.755  -1.859   3.094  0.00  0.00    -0.050 Br
ENDBRANCH   7   8
ENDBRANCH   2   7
BRANCH   5  15
ATOM     15  C   UNL     1      -0.022  -0.717  -3.605  0.00  0.00    +0.109 C 
BRANCH  15  16
ATOM     16  C   UNL     1      -0.047   0.283  -4.762  0.00  0.00    +0.003 C 
ATOM     17  C   UNL     1       1.254   1.091  -4.769  0.00  0.00    -0.014 C 
ATOM     18  C   UNL     1       1.257   2.033  -5.975  0.00  0.00    -0.078 C 
ATOM     19  N   UNL     1       1.159   1.250  -7.213  0.00  0.00    +0.383 N 
ATOM     20  C   UNL     1      -0.119   0.529  -7.246  0.00  0.00    -0.078 C 
ATOM     21  C   UNL     1      -0.175  -0.471  -6.089  0.00  0.00    -0.014 C 
ATOM     22  H   UNL     1       1.919   0.587  -7.251  0.00  0.00    -0.081 HD
BRANCH  19  23
ATOM     23  C   UNL     1       1.241   2.152  -8.369  0.00  0.00    -0.036 C 
BRANCH  23  24
ATOM     24  C   UNL     1       1.264   1.340  -9.639  0.00  0.00    -0.027 A 
ATOM     25  C   UNL     1       0.226   0.924 -10.405  0.00  0.00    +0.009 A 
ATOM     26  C   UNL     1       0.486   0.182 -11.541  0.00  0.00    +0.008 A 
ATOM     27  C   UNL     1       1.772  -0.108 -11.856  0.00  0.00    +0.045 A 
ATOM     28  S   UNL     1       2.665   0.684 -10.528  0.00  0.00    -0.103 S 
ENDBRANCH  23  24
ENDBRANCH  19  23
ENDBRANCH  15  16
ENDBRANCH   5  15
TORSDOF 6
