REMARK  Name = ZINC64611414
REMARK  7 active torsions:
REMARK  status: ('A' for Active; 'I' for Inactive)
REMARK    1  A    between atoms: C_1  and  C_2
REMARK    2  A    between atoms: C_5  and  N_9
REMARK    3  A    between atoms: C_6  and  C_8
REMARK    4  A    between atoms: C_10  and  C_12
REMARK    5  A    between atoms: C_12  and  N_13
REMARK    6  A    between atoms: C_22  and  C_24
REMARK    7  A    between atoms: C_29  and  C_32
REMARK                            x       y       z     vdW  Elec       q    Type
REMARK                         _______ _______ _______ _____ _____    ______ ____
ROOT
ATOM      1  N   UNL     1      -0.081  -6.880  -3.054  0.00  0.00    -0.279 NA
ATOM      2  C   UNL     1      -1.369  -6.530  -3.674  0.00  0.00    +0.090 C 
ATOM      3  C   UNL     1      -1.458  -7.226  -5.033  0.00  0.00    +0.051 C 
ATOM      4  C   UNL     1      -1.137  -8.690  -4.883  0.00  0.00    -0.041 A 
ATOM      5  C   UNL     1      -1.503  -9.556  -5.903  0.00  0.00    +0.004 A 
ATOM      6  C   UNL     1      -1.224 -10.904  -5.807  0.00  0.00    +0.000 A 
ATOM      7  C   UNL     1      -0.575 -11.395  -4.689  0.00  0.00    +0.000 A 
ATOM      8  C   UNL     1      -0.212 -10.535  -3.673  0.00  0.00    +0.006 A 
ATOM      9  C   UNL     1      -0.494  -9.180  -3.766  0.00  0.00    -0.018 A 
ATOM     10  C   UNL     1      -0.087  -8.283  -2.626  0.00  0.00    +0.175 C 
ENDROOT
BRANCH  10  11
ATOM     11  C   UNL     1       1.293  -8.667  -2.159  0.00  0.00    +0.237 C 
ATOM     12  O   UNL     1       2.270  -8.180  -2.688  0.00  0.00    -0.274 OA
ATOM     13  N   UNL     1       1.442  -9.551  -1.153  0.00  0.00    -0.300 N 
ATOM     14  C   UNL     1       0.271 -10.073  -0.435  0.00  0.00    +0.108 C 
ATOM     15  C   UNL     1       0.320 -11.604  -0.460  0.00  0.00    +0.022 C 
ATOM     16  C   UNL     1       1.663 -12.076   0.101  0.00  0.00    -0.011 C 
ATOM     17  C   UNL     1       2.800 -11.543  -0.774  0.00  0.00    +0.022 C 
ATOM     18  C   UNL     1       2.778 -10.016  -0.757  0.00  0.00    +0.108 C 
ATOM     19  C   UNL     1       1.702 -13.606   0.111  0.00  0.00    +0.007 C 
ENDBRANCH  10  11
BRANCH   1  20
ATOM     20  C   UNL     1       0.221  -5.987  -1.927  0.00  0.00    +0.181 C 
BRANCH  20  22
ATOM     21  N   UNL     1       0.757  -3.598  -1.581  0.00  0.00    -0.284 N 
ATOM     22  C   UNL     1       0.461  -4.592  -2.442  0.00  0.00    +0.231 C 
ATOM     23  O   UNL     1       0.388  -4.363  -3.631  0.00  0.00    -0.274 OA
ATOM     24  H   UNL     1       0.862  -3.789  -0.636  0.00  0.00    +0.155 HD
BRANCH  21  29
ATOM     25  C   UNL     1       1.386   1.709  -3.486  0.00  0.00    +0.044 C 
ATOM     26  C   UNL     1       1.219   0.299  -2.980  0.00  0.00    -0.050 A 
ATOM     27  C   UNL     1       1.575  -0.769  -3.783  0.00  0.00    +0.005 A 
ATOM     28  C   UNL     1       1.423  -2.062  -3.322  0.00  0.00    +0.024 A 
ATOM     29  C   UNL     1       0.912  -2.289  -2.051  0.00  0.00    +0.036 A 
ATOM     30  C   UNL     1       0.557  -1.214  -1.247  0.00  0.00    -0.029 A 
ATOM     31  C   UNL     1       0.716   0.077  -1.712  0.00  0.00    +0.008 A 
ATOM     32  C   UNL     1       0.003  -1.456   0.134  0.00  0.00    +0.045 C 
ENDBRANCH  21  29
ENDBRANCH  20  22
ENDBRANCH   1  20
TORSDOF 4
