REMARK  Name = ZINC62349315
REMARK  6 active torsions:
REMARK  status: ('A' for Active; 'I' for Inactive)
REMARK    1  A    between atoms: C_1  and  C_2
REMARK    2  A    between atoms: C_4  and  N_21
REMARK    3  A    between atoms: C_6  and  C_9
REMARK    4  A    between atoms: C_7  and  C_8
REMARK    5  A    between atoms: C_11  and  C_14
REMARK    6  A    between atoms: C_14  and  C_15
REMARK                            x       y       z     vdW  Elec       q    Type
REMARK                         _______ _______ _______ _____ _____    ______ ____
ROOT
ATOM      1  C   UNL     1       0.211  -3.013   2.349  0.00  0.00    +0.259 A 
ATOM      2  N   UNL     1       0.237  -4.326   2.384  0.00  0.00    -0.191 NA
ATOM      3  C   UNL     1       0.330  -4.747   3.647  0.00  0.00    +0.176 A 
ATOM      4  N   UNL     1       0.365  -3.713   4.440  0.00  0.00    -0.061 NA
ATOM      5  O   UNL     1       0.294  -2.562   3.613  0.00  0.00    -0.333 OA
ENDROOT
BRANCH   1  11
ATOM      6  C   UNL     1       1.794   0.872  -0.353  0.00  0.00    +0.044 C 
ATOM      7  C   UNL     1       0.873  -0.307  -0.172  0.00  0.00    -0.045 A 
ATOM      8  C   UNL     1      -0.062  -0.606  -1.146  0.00  0.00    +0.026 A 
ATOM      9  C   UNL     1      -0.916  -1.692  -0.987  0.00  0.00    +0.026 A 
ATOM     10  C   UNL     1      -0.830  -2.479   0.151  0.00  0.00    +0.036 A 
ATOM     11  C   UNL     1       0.113  -2.178   1.133  0.00  0.00    +0.044 A 
ATOM     12  C   UNL     1       0.969  -1.088   0.961  0.00  0.00    -0.035 A 
ATOM     13  C   UNL     1       1.994  -0.762   2.016  0.00  0.00    +0.045 C 
BRANCH   9  14
ATOM     14  N   UNL     1      -1.860  -1.989  -1.973  0.00  0.00    -0.358 N 
ATOM     15  H   UNL     1      -1.919  -1.437  -2.769  0.00  0.00    +0.142 HD
ATOM     16  H   UNL     1      -2.455  -2.746  -1.862  0.00  0.00    +0.142 HD
ENDBRANCH   9  14
ENDBRANCH   1  11
BRANCH   3  17
ATOM     17  C   UNL     1       0.386  -6.188   4.087  0.00  0.00    +0.114 C 
BRANCH  17  18
ATOM     18  C   UNL     1       1.822  -6.642   4.137  0.00  0.00    -0.040 A 
ATOM     19  C   UNL     1       2.411  -7.197   3.017  0.00  0.00    +0.004 A 
ATOM     20  C   UNL     1       3.728  -7.614   3.063  0.00  0.00    +0.000 A 
ATOM     21  C   UNL     1       4.456  -7.476   4.230  0.00  0.00    +0.000 A 
ATOM     22  C   UNL     1       3.867  -6.921   5.350  0.00  0.00    +0.000 A 
ATOM     23  C   UNL     1       2.551  -6.500   5.303  0.00  0.00    +0.004 A 
ENDBRANCH  17  18
ENDBRANCH   3  17
TORSDOF 4
