REMARK  Name = ZINC11854623
REMARK  7 active torsions:
REMARK  status: ('A' for Active; 'I' for Inactive)
REMARK    1  A    between atoms: C_1  and  C_2
REMARK    2  A    between atoms: C_2  and  C_3
REMARK    3  A    between atoms: C_12  and  N_21
REMARK    4  A    between atoms: C_14  and  C_16
REMARK    5  A    between atoms: C_22  and  C_24
REMARK    6  A    between atoms: C_24  and  C_25
REMARK    7  A    between atoms: C_24  and  C_31
REMARK                            x       y       z     vdW  Elec       q    Type
REMARK                         _______ _______ _______ _____ _____    ______ ____
ROOT
ATOM      1  C   UNL     1       5.512   0.075  -0.758  0.00  0.00    +0.050 A 
ATOM      2  C   UNL     1       6.793   0.479  -0.993  0.00  0.00    +0.093 A 
ATOM      3  C   UNL     1       7.042   1.843  -1.233  0.00  0.00    +0.253 A 
ATOM      4  O   UNL     1       8.176   2.241  -1.446  0.00  0.00    -0.268 OA
ATOM      5  N   UNL     1       6.001   2.703  -1.228  0.00  0.00    -0.291 N 
ATOM      6  H   UNL     1       6.148   3.647  -1.395  0.00  0.00    +0.172 HD
ATOM      7  C   UNL     1       4.745   2.241  -0.984  0.00  0.00    +0.234 A 
ATOM      8  N   UNL     1       4.521   0.964  -0.760  0.00  0.00    -0.217 NA
ATOM      9  N   UNL     1       3.687   3.128  -0.975  0.00  0.00    -0.185 N 
ATOM     10  C   UNL     1       2.376   2.812  -0.751  0.00  0.00    +0.132 A 
ATOM     11  C   UNL     1       1.658   3.961  -0.822  0.00  0.00    +0.074 A 
ATOM     12  C   UNL     1       2.554   5.014  -1.104  0.00  0.00    +0.102 A 
ATOM     13  N   UNL     1       3.767   4.508  -1.198  0.00  0.00    -0.162 NA
ENDROOT
BRANCH  12  14
ATOM     14  C   UNL     1       2.194   6.438  -1.267  0.00  0.00    +0.039 A 
ATOM     15  C   UNL     1       3.004   7.508  -1.539  0.00  0.00    +0.018 A 
ATOM     16  C   UNL     1       2.437   8.758  -1.648  0.00  0.00    +0.008 A 
ATOM     17  C   UNL     1       1.096   8.893  -1.482  0.00  0.00    +0.046 A 
ATOM     18  S   UNL     1       0.587   7.211  -1.166  0.00  0.00    -0.095 S 
ENDBRANCH  12  14
BRANCH  10  19
ATOM     19  N   UNL     1       1.870   1.541  -0.490  0.00  0.00    -0.269 N 
ATOM     20  C   UNL     1       0.550   1.371  -0.280  0.00  0.00    +0.230 C 
ATOM     21  O   UNL     1      -0.199   2.325  -0.324  0.00  0.00    -0.274 OA
ATOM     22  H   UNL     1       2.468   0.778  -0.459  0.00  0.00    +0.156 HD
BRANCH  20  23
ATOM     23  C   UNL     1       0.002  -0.004   0.002  0.00  0.00    +0.135 C 
BRANCH  23  24
ATOM     24  C   UNL     1       0.642  -0.553   1.251  0.00  0.00    -0.031 A 
ATOM     25  C   UNL     1       1.196  -1.820   1.244  0.00  0.00    +0.005 A 
ATOM     26  C   UNL     1       1.788  -2.321   2.388  0.00  0.00    +0.000 A 
ATOM     27  C   UNL     1       1.817  -1.560   3.542  0.00  0.00    +0.000 A 
ATOM     28  C   UNL     1       1.258  -0.296   3.550  0.00  0.00    +0.000 A 
ATOM     29  C   UNL     1       0.671   0.208   2.405  0.00  0.00    +0.005 A 
ENDBRANCH  23  24
BRANCH  23  30
ATOM     30  C   UNL     1      -1.490   0.080   0.198  0.00  0.00    -0.031 A 
ATOM     31  C   UNL     1      -2.017   0.962   1.122  0.00  0.00    +0.005 A 
ATOM     32  C   UNL     1      -3.386   1.043   1.297  0.00  0.00    +0.000 A 
ATOM     33  C   UNL     1      -4.227   0.233   0.557  0.00  0.00    +0.000 A 
ATOM     34  C   UNL     1      -3.699  -0.653  -0.363  0.00  0.00    +0.000 A 
ATOM     35  C   UNL     1      -2.330  -0.730  -0.543  0.00  0.00    +0.005 A 
ENDBRANCH  23  30
ENDBRANCH  20  23
ENDBRANCH  10  19
BRANCH   1  37
ATOM     36  C   UNL     1       5.185  -1.632   1.011  0.00  0.00    +0.010 C 
ATOM     37  C   UNL     1       5.217  -1.380  -0.498  0.00  0.00    +0.052 C 
ENDBRANCH   1  37
TORSDOF 6
