REMARK  Name = ZINC63279849
REMARK  5 active torsions:
REMARK  status: ('A' for Active; 'I' for Inactive)
REMARK    1  A    between atoms: C_1  and  C_2
REMARK    2  A    between atoms: C_2  and  C_3
REMARK    3  A    between atoms: C_3  and  C_4
REMARK    4  A    between atoms: C_4  and  C_5
REMARK    5  A    between atoms: C_11  and  C_14
REMARK                            x       y       z     vdW  Elec       q    Type
REMARK                         _______ _______ _______ _____ _____    ______ ____
ROOT
ATOM      1  C   UNL     1       1.444  -2.513  -2.505  0.00  0.00    +0.151 A 
ATOM      2  N   UNL     1       0.887  -2.764  -3.653  0.00  0.00    -0.132 NA
ATOM      3  N   UNL     1       1.772  -3.173  -4.493  0.00  0.00    -0.121 NA
ATOM      4  C   UNL     1       2.930  -3.217  -3.913  0.00  0.00    +0.210 A 
ATOM      5  N   UNL     1       2.800  -2.765  -2.624  0.00  0.00    -0.224 N 
ATOM      6  N   UNL     1       3.910  -2.658  -1.841  0.00  0.00    -0.265 N 
ATOM      7  C   UNL     1       5.065  -3.491  -2.271  0.00  0.00    +0.178 C 
ATOM      8  S   UNL     1       4.658  -3.617  -4.066  0.00  0.00    -0.058 S 
ATOM      9  H   UNL     1       4.182  -1.693  -1.729  0.00  0.00    +0.168 HD
ENDROOT
BRANCH   7  10
ATOM     10  C   UNL     1       6.395  -2.773  -2.038  0.00  0.00    +0.135 C 
ATOM     11  C   UNL     1       6.409  -1.449  -2.769  0.00  0.00    +0.010 C 
ATOM     12  C   UNL     1       7.432  -1.518  -3.650  0.00  0.00    -0.004 A 
ATOM     13  C   UNL     1       7.959  -0.570  -4.639  0.00  0.00    +0.010 A 
ATOM     14  C   UNL     1       9.020  -0.932  -5.396  0.00  0.00    +0.001 A 
ATOM     15  C   UNL     1       9.627  -2.188  -5.260  0.00  0.00    +0.002 A 
ATOM     16  C   UNL     1       9.200  -3.113  -4.373  0.00  0.00    +0.026 A 
ATOM     17  C   UNL     1       8.092  -2.838  -3.526  0.00  0.00    +0.043 A 
ATOM     18  N   UNL     1       7.499  -3.557  -2.602  0.00  0.00    -0.375 N 
ATOM     19  H   UNL     1       7.749  -4.456  -2.336  0.00  0.00    +0.160 HD
ENDBRANCH   7  10
BRANCH   1  20
ATOM     20  C   UNL     1       0.739  -2.027  -1.265  0.00  0.00    +0.078 C 
BRANCH  20  21
ATOM     21  C   UNL     1       0.718  -0.497  -1.257  0.00  0.00    +0.007 C 
BRANCH  21  23
ATOM     22  C   UNL     1      -0.019   1.526   0.010  0.00  0.00    +0.004 C 
ATOM     23  C   UNL     1       0.002  -0.004   0.002  0.00  0.00    -0.003 C 
ENDBRANCH  21  23
ENDBRANCH  20  21
ENDBRANCH   1  20
TORSDOF 4
