REMARK  Name = ZINC20288907
REMARK  13 active torsions:
REMARK  status: ('A' for Active; 'I' for Inactive)
REMARK    1  A    between atoms: C_1  and  C_2
REMARK    2  A    between atoms: C_3  and  C_8
REMARK    3  A    between atoms: C_8  and  S_9
REMARK    4  A    between atoms: S_9  and  C_10
REMARK    5  A    between atoms: C_10  and  C_11
REMARK    6  A    between atoms: C_11  and  N_12
REMARK    7  A    between atoms: N_12  and  C_13
REMARK    8  A    between atoms: C_13  and  C_37
REMARK    9  A    between atoms: C_15  and  C_29
REMARK   10  A    between atoms: N_17  and  C_20
REMARK   11  A    between atoms: C_23  and  N_26
REMARK   12  A    between atoms: C_32  and  O_35
REMARK   13  A    between atoms: O_35  and  C_36
REMARK                            x       y       z     vdW  Elec       q    Type
REMARK                         _______ _______ _______ _____ _____    ______ ____
ROOT
ATOM      1  C   UNL     1       3.787   1.275  -7.508  0.00  0.00    +0.015 C 
ATOM      2  C   UNL     1       3.817   1.679  -8.829  0.00  0.00    +0.083 C 
ATOM      3  C   UNL     1       5.008   2.022  -9.631  0.00  0.00    +0.103 C 
ATOM      4  N   UNL     1       4.588   2.349 -10.826  0.00  0.00    -0.171 NA
ATOM      5  N   UNL     1       3.196   2.252 -10.890  0.00  0.00    -0.156 N 
ATOM      6  C   UNL     1       2.707   1.846  -9.703  0.00  0.00    +0.274 C 
ATOM      7  O   UNL     1       1.533   1.659  -9.428  0.00  0.00    -0.268 OA
ATOM      8  C   UNL     1       5.075   1.067  -6.754  0.00  0.00    +0.061 C 
ENDROOT
BRANCH   5   9
ATOM      9  C   UNL     1       2.424   2.532 -12.023  0.00  0.00    +0.060 A 
ATOM     10  C   UNL     1       1.042   2.407 -11.971  0.00  0.00    +0.028 A 
ATOM     11  C   UNL     1       0.282   2.683 -13.091  0.00  0.00    +0.034 A 
ATOM     12  C   UNL     1       0.897   3.084 -14.264  0.00  0.00    +0.126 A 
ATOM     13  C   UNL     1       2.273   3.208 -14.319  0.00  0.00    +0.034 A 
ATOM     14  C   UNL     1       3.038   2.939 -13.201  0.00  0.00    +0.028 A 
BRANCH  12  15
ATOM     15  N   UNL     1       0.080   3.379 -15.462  0.00  0.00    +0.056 N 
ATOM     16  O   UNL     1      -1.123   3.270 -15.416  0.00  0.00    -0.126 OA
ATOM     17  O   UNL     1       0.616   3.729 -16.488  0.00  0.00    -0.126 OA
ENDBRANCH  12  15
ENDBRANCH   5   9
BRANCH   3  18
ATOM     18  C   UNL     1       6.416   2.000  -9.170  0.00  0.00    +0.003 A 
ATOM     19  C   UNL     1       7.013   0.793  -8.806  0.00  0.00    +0.013 A 
ATOM     20  C   UNL     1       8.323   0.776  -8.377  0.00  0.00    +0.046 A 
ATOM     21  C   UNL     1       9.048   1.958  -8.308  0.00  0.00    +0.120 A 
ATOM     22  C   UNL     1       8.457   3.161  -8.669  0.00  0.00    +0.046 A 
ATOM     23  C   UNL     1       7.149   3.185  -9.104  0.00  0.00    +0.013 A 
BRANCH  21  24
ATOM     24  O   UNL     1      10.339   1.938  -7.885  0.00  0.00    -0.495 OA
ATOM     25  C   UNL     1      11.026   3.190  -7.837  0.00  0.00    +0.277 C 
ENDBRANCH  21  24
ENDBRANCH   3  18
BRANCH   1  26
ATOM     26  N   UNL     1       2.604   1.067  -6.892  0.00  0.00    -0.346 N 
ATOM     27  H   UNL     1       1.775   1.201  -7.377  0.00  0.00    +0.146 HD
BRANCH  26  28
ATOM     28  C   UNL     1       2.573   0.639  -5.492  0.00  0.00    +0.112 C 
BRANCH  28  29
ATOM     29  C   UNL     1       1.120   0.476  -5.041  0.00  0.00    +0.088 C 
BRANCH  29  30
ATOM     30  S   UNL     1       1.080  -0.054  -3.306  0.00  0.00    -0.153 S 
BRANCH  30  31
ATOM     31  C   UNL     1      -0.689  -0.199  -2.932  0.00  0.00    +0.126 C 
BRANCH  31  34
ATOM     32  C   UNL     1      -0.946   1.679  -0.440  0.00  0.00    +0.065 C 
ATOM     33  C   UNL     1      -0.975   0.173  -0.432  0.00  0.00    +0.036 A 
ATOM     34  C   UNL     1      -0.865  -0.638  -1.501  0.00  0.00    +0.072 A 
ATOM     35  N   UNL     1      -0.939  -1.906  -1.069  0.00  0.00    -0.240 NA
ATOM     36  C   UNL     1      -1.091  -1.911   0.227  0.00  0.00    +0.197 A 
ATOM     37  N   UNL     1      -1.113  -0.634   0.665  0.00  0.00    -0.348 N 
ATOM     38  H   UNL     1      -1.210  -0.344   1.585  0.00  0.00    +0.166 HD
ENDBRANCH  31  34
ENDBRANCH  30  31
ENDBRANCH  29  30
ENDBRANCH  28  29
ENDBRANCH  26  28
ENDBRANCH   1  26
TORSDOF 10
