REMARK  Name = ZINC13064890
REMARK  14 active torsions:
REMARK  status: ('A' for Active; 'I' for Inactive)
REMARK    1  A    between atoms: C_1  and  C_2
REMARK    2  A    between atoms: C_2  and  C_3
REMARK    3  A    between atoms: C_3  and  C_5
REMARK    4  A    between atoms: C_3  and  N_70
REMARK    5  A    between atoms: N_9  and  C_10
REMARK    6  A    between atoms: C_10  and  C_11
REMARK    7  A    between atoms: C_14  and  O_17
REMARK    8  A    between atoms: O_17  and  C_18
REMARK    9  A    between atoms: C_19  and  C_20
REMARK   10  A    between atoms: C_19  and  N_70
REMARK   11  A    between atoms: C_25  and  C_26
REMARK   12  A    between atoms: C_25  and  N_70
REMARK   13  A    between atoms: C_29  and  C_39
REMARK   14  A    between atoms: C_31  and  C_38
REMARK                            x       y       z     vdW  Elec       q    Type
REMARK                         _______ _______ _______ _____ _____    ______ ____
ROOT
ATOM      1  N   UNL     1      -1.934   0.897   1.346  0.00  0.00    +0.394 N 
ATOM      2  H   UNL     1      -1.774  -0.117   1.384  0.00  0.00    -0.080 HD
ENDROOT
BRANCH   1   3
ATOM      3  C   UNL     1      -0.634   1.582   1.186  0.00  0.00    +0.003 C 
BRANCH   3   4
ATOM      4  C   UNL     1       0.215   1.312   2.401  0.00  0.00    +0.138 A 
ATOM      5  N   UNL     1       0.369   0.161   3.008  0.00  0.00    -0.115 NA
ATOM      6  N   UNL     1       1.172   0.339   4.000  0.00  0.00    -0.023 NA
ATOM      7  N   UNL     1       1.528   1.576   4.046  0.00  0.00    -0.044 NA
ATOM      8  N   UNL     1       0.959   2.208   3.076  0.00  0.00    -0.226 N 
BRANCH   8   9
ATOM      9  C   UNL     1       1.096   3.634   2.768  0.00  0.00    +0.182 C 
BRANCH   9  10
ATOM     10  C   UNL     1       0.034   4.411   3.502  0.00  0.00    -0.026 A 
ATOM     11  C   UNL     1      -1.191   4.641   2.903  0.00  0.00    +0.009 A 
ATOM     12  C   UNL     1      -2.169   5.348   3.576  0.00  0.00    +0.046 A 
ATOM     13  C   UNL     1      -1.917   5.837   4.850  0.00  0.00    +0.120 A 
ATOM     14  C   UNL     1      -0.685   5.609   5.447  0.00  0.00    +0.046 A 
ATOM     15  C   UNL     1       0.287   4.897   4.772  0.00  0.00    +0.009 A 
BRANCH  13  16
ATOM     16  O   UNL     1      -2.875   6.537   5.512  0.00  0.00    -0.495 OA
ATOM     17  C   UNL     1      -4.119   6.733   4.836  0.00  0.00    +0.277 C 
ENDBRANCH  13  16
ENDBRANCH   9  10
ENDBRANCH   8   9
ENDBRANCH   3   4
BRANCH   3  19
ATOM     18  C   UNL     1       1.385   1.777  -0.273  0.00  0.00    +0.002 C 
ATOM     19  C   UNL     1       0.066   1.032  -0.059  0.00  0.00    -0.011 C 
ENDBRANCH   3  19
ENDBRANCH   1   3
BRANCH   1  20
ATOM     20  C   UNL     1      -2.582   1.329   2.602  0.00  0.00    -0.002 C 
BRANCH  20  21
ATOM     21  C   UNL     1      -3.737   0.407   2.894  0.00  0.00    +0.089 A 
ATOM     22  C   UNL     1      -3.695  -0.682   3.683  0.00  0.00    +0.042 A 
ATOM     23  C   UNL     1      -4.993  -1.244   3.674  0.00  0.00    +0.041 A 
ATOM     24  C   UNL     1      -5.750  -0.465   2.880  0.00  0.00    +0.195 A 
ATOM     25  O   UNL     1      -4.986   0.536   2.416  0.00  0.00    -0.470 OA
ENDBRANCH  20  21
ENDBRANCH   1  20
BRANCH   1  26
ATOM     26  C   UNL     1      -2.811   1.201   0.195  0.00  0.00    -0.036 C 
BRANCH  26  27
ATOM     27  C   UNL     1      -2.917   2.690  -0.008  0.00  0.00    +0.001 A 
ATOM     28  C   UNL     1      -2.086   3.315  -0.879  0.00  0.00    +0.017 A 
ATOM     29  C   UNL     1      -2.216   4.762  -1.054  0.00  0.00    +0.002 A 
ATOM     30  C   UNL     1      -1.387   5.461  -1.938  0.00  0.00    -0.041 A 
ATOM     31  C   UNL     1      -1.534   6.812  -2.078  0.00  0.00    +0.007 A 
ATOM     32  C   UNL     1      -2.498   7.498  -1.351  0.00  0.00    -0.048 A 
ATOM     33  C   UNL     1      -3.324   6.830  -0.474  0.00  0.00    +0.029 A 
ATOM     34  C   UNL     1      -3.194   5.454  -0.315  0.00  0.00    +0.050 A 
ATOM     35  N   UNL     1      -4.009   4.760   0.554  0.00  0.00    -0.322 N 
ATOM     36  H   UNL     1      -4.682   5.238   1.063  0.00  0.00    +0.169 HD
ATOM     37  C   UNL     1      -3.886   3.430   0.704  0.00  0.00    +0.251 A 
ATOM     38  O   UNL     1      -4.626   2.848   1.478  0.00  0.00    -0.268 OA
ATOM     39  C   UNL     1      -2.641   8.988  -1.523  0.00  0.00    +0.044 C 
ATOM     40  C   UNL     1      -0.337   4.727  -2.732  0.00  0.00    +0.044 C 
ENDBRANCH  26  27
ENDBRANCH   1  26
TORSDOF 10
