REMARK  Name = ZINC04904402
REMARK  9 active torsions:
REMARK  status: ('A' for Active; 'I' for Inactive)
REMARK    1  A    between atoms: C_1  and  C_2
REMARK    2  A    between atoms: C_3  and  C_27
REMARK    3  A    between atoms: C_4  and  C_10
REMARK    4  A    between atoms: N_12  and  C_21
REMARK    5  A    between atoms: C_14  and  C_15
REMARK    6  A    between atoms: C_27  and  O_29
REMARK    7  A    between atoms: O_29  and  C_30
REMARK    8  A    between atoms: C_30  and  C_31
REMARK    9  A    between atoms: C_30  and  C_32
REMARK                            x       y       z     vdW  Elec       q    Type
REMARK                         _______ _______ _______ _____ _____    ______ ____
ROOT
ATOM      1  C   UNL     1      -1.895  -2.218  -1.437  0.00  0.00    +0.023 A 
ATOM      2  C   UNL     1      -1.490  -2.722  -2.623  0.00  0.00    +0.121 A 
ATOM      3  N   UNL     1      -2.599  -3.061  -3.332  0.00  0.00    -0.239 N 
ATOM      4  N   UNL     1      -3.721  -2.754  -2.553  0.00  0.00    -0.166 NA
ATOM      5  C   UNL     1      -3.303  -2.252  -1.409  0.00  0.00    +0.098 A 
ENDROOT
BRANCH   1   9
ATOM      6  C   UNL     1       1.895   0.616  -1.363  0.00  0.00    +0.061 C 
ATOM      7  C   UNL     1       1.106  -0.561  -0.850  0.00  0.00    +0.021 C 
ATOM      8  C   UNL     1      -0.243  -0.510  -0.860  0.00  0.00    +0.078 C 
ATOM      9  C   UNL     1      -0.998  -1.715  -0.335  0.00  0.00    +0.147 C 
ATOM     10  N   UNL     1      -0.192  -2.849   0.147  0.00  0.00    -0.288 N 
ATOM     11  C   UNL     1       1.151  -2.750   0.093  0.00  0.00    +0.304 C 
ATOM     12  O   UNL     1       1.825  -3.681   0.489  0.00  0.00    -0.252 OA
ATOM     13  N   UNL     1       1.767  -1.662  -0.387  0.00  0.00    -0.273 N 
ATOM     14  H   UNL     1      -0.618  -3.648   0.495  0.00  0.00    +0.151 HD
ATOM     15  H   UNL     1       2.736  -1.655  -0.402  0.00  0.00    +0.156 HD
BRANCH   8  16
ATOM     16  C   UNL     1      -0.929   0.628  -1.345  0.00  0.00    +0.339 C 
ATOM     17  O   UNL     1      -0.304   1.612  -1.694  0.00  0.00    -0.245 OA
BRANCH  16  18
ATOM     18  O   UNL     1      -2.277   0.623  -1.420  0.00  0.00    -0.459 OA
BRANCH  18  19
ATOM     19  C   UNL     1      -2.908   1.836  -1.834  0.00  0.00    +0.171 C 
ATOM     20  C   UNL     1      -3.159   1.790  -3.343  0.00  0.00    +0.052 C 
ATOM     21  C   UNL     1      -4.241   1.994  -1.100  0.00  0.00    +0.052 C 
ENDBRANCH  18  19
ENDBRANCH  16  18
ENDBRANCH   8  16
ENDBRANCH   1   9
BRANCH   5  22
ATOM     22  C   UNL     1      -4.164  -1.798  -0.289  0.00  0.00    +0.002 A 
ATOM     23  C   UNL     1      -3.796  -2.065   1.028  0.00  0.00    +0.010 A 
ATOM     24  C   UNL     1      -4.600  -1.640   2.066  0.00  0.00    +0.001 A 
ATOM     25  C   UNL     1      -5.770  -0.951   1.800  0.00  0.00    +0.000 A 
ATOM     26  C   UNL     1      -6.140  -0.684   0.494  0.00  0.00    +0.001 A 
ATOM     27  C   UNL     1      -5.340  -1.099  -0.551  0.00  0.00    +0.010 A 
ENDBRANCH   5  22
BRANCH   3  28
ATOM     28  C   UNL     1      -2.616  -3.618  -4.617  0.00  0.00    +0.065 A 
ATOM     29  C   UNL     1      -1.423  -3.878  -5.279  0.00  0.00    +0.028 A 
ATOM     30  C   UNL     1      -1.443  -4.427  -6.546  0.00  0.00    +0.002 A 
ATOM     31  C   UNL     1      -2.650  -4.720  -7.155  0.00  0.00    +0.000 A 
ATOM     32  C   UNL     1      -3.839  -4.462  -6.499  0.00  0.00    +0.002 A 
ATOM     33  C   UNL     1      -3.825  -3.918  -5.229  0.00  0.00    +0.028 A 
ENDBRANCH   3  28
TORSDOF 6
