REMARK  Name = ZINC63612646
REMARK  12 active torsions:
REMARK  status: ('A' for Active; 'I' for Inactive)
REMARK    1  A    between atoms: C_1  and  C_2
REMARK    2  A    between atoms: C_2  and  O_3
REMARK    3  A    between atoms: O_3  and  C_4
REMARK    4  A    between atoms: C_4  and  C_6
REMARK    5  A    between atoms: C_7  and  C_26
REMARK    6  A    between atoms: C_9  and  C_13
REMARK    7  A    between atoms: C_10  and  C_12
REMARK    8  A    between atoms: C_13  and  N_14
REMARK    9  A    between atoms: N_14  and  C_15
REMARK   10  A    between atoms: C_21  and  C_23
REMARK   11  A    between atoms: C_23  and  O_24
REMARK   12  A    between atoms: O_24  and  C_25
REMARK                            x       y       z     vdW  Elec       q    Type
REMARK                         _______ _______ _______ _____ _____    ______ ____
ROOT
ATOM      1  C   UNL     1       3.424  -2.546   5.742  0.00  0.00    +0.159 C 
ENDROOT
BRANCH   1   5
ATOM      2  C   UNL     1       1.474  -2.353   2.430  0.00  0.00    +0.066 C 
ATOM      3  C   UNL     1       1.677  -3.659   2.724  0.00  0.00    +0.049 C 
ATOM      4  N   UNL     1       2.353  -3.818   3.869  0.00  0.00    -0.258 NA
ATOM      5  C   UNL     1       2.668  -2.705   4.448  0.00  0.00    +0.044 C 
ATOM      6  C   UNL     1       2.133  -1.593   3.567  0.00  0.00    +0.071 C 
ATOM      7  C   UNL     1       3.272  -0.716   3.045  0.00  0.00    +0.019 C 
ATOM      8  C   UNL     1       1.197  -4.800   1.864  0.00  0.00    +0.066 C 
BRANCH   2   9
ATOM      9  C   UNL     1       0.801  -1.815   1.305  0.00  0.00    +0.337 C 
ATOM     10  O   UNL     1       0.321  -2.558   0.470  0.00  0.00    -0.245 OA
BRANCH   9  11
ATOM     11  O   UNL     1       0.693  -0.477   1.160  0.00  0.00    -0.462 OA
BRANCH  11  13
ATOM     12  C   UNL     1      -0.019   1.526   0.010  0.00  0.00    +0.048 C 
ATOM     13  C   UNL     1       0.002  -0.004   0.002  0.00  0.00    +0.229 C 
ENDBRANCH  11  13
ENDBRANCH   9  11
ENDBRANCH   2   9
ENDBRANCH   1   5
BRANCH   1  14
ATOM     14  N   UNL     1       3.767  -3.867   6.274  0.00  0.00    -0.291 N 
ATOM     15  C   UNL     1       2.918  -4.498   7.109  0.00  0.00    +0.242 C 
ATOM     16  O   UNL     1       3.202  -5.592   7.549  0.00  0.00    -0.273 OA
BRANCH  14  17
ATOM     17  C   UNL     1       5.032  -4.502   5.897  0.00  0.00    +0.077 C 
ATOM     18  C   UNL     1       4.746  -5.833   5.198  0.00  0.00    +0.022 C 
ATOM     19  C   UNL     1       6.068  -6.496   4.804  0.00  0.00    +0.002 C 
ATOM     20  C   UNL     1       6.905  -6.749   6.060  0.00  0.00    +0.000 C 
ATOM     21  C   UNL     1       7.191  -5.419   6.759  0.00  0.00    +0.002 C 
ATOM     22  C   UNL     1       5.869  -4.755   7.152  0.00  0.00    +0.022 C 
ENDBRANCH  14  17
BRANCH  15  23
ATOM     23  C   UNL     1       1.617  -3.845   7.496  0.00  0.00    +0.255 C 
BRANCH  23  24
ATOM     24  O   UNL     1       0.898  -4.704   8.383  0.00  0.00    -0.374 OA
ATOM     25  C   UNL     1      -0.358  -4.176   8.814  0.00  0.00    +0.194 C 
ENDBRANCH  23  24
ENDBRANCH  15  23
ENDBRANCH   1  14
TORSDOF 8
