REMARK  Name = ZINC33292032
REMARK  11 active torsions:
REMARK  status: ('A' for Active; 'I' for Inactive)
REMARK    1  A    between atoms: C_1  and  C_2
REMARK    2  A    between atoms: C_2  and  C_3
REMARK    3  A    between atoms: C_3  and  C_5
REMARK    4  A    between atoms: C_3  and  N_6
REMARK    5  A    between atoms: C_7  and  C_9
REMARK    6  A    between atoms: C_9  and  C_10
REMARK    7  A    between atoms: C_10  and  N_11
REMARK    8  A    between atoms: C_24  and  S_25
REMARK    9  A    between atoms: S_25  and  C_26
REMARK   10  A    between atoms: C_26  and  C_27
REMARK   11  A    between atoms: C_32  and  C_33
REMARK                            x       y       z     vdW  Elec       q    Type
REMARK                         _______ _______ _______ _____ _____    ______ ____
ROOT
ATOM      1  N   UNL     1      -6.672   1.269   2.995  0.00  0.00    -0.276 N 
ATOM      2  C   UNL     1      -7.591   1.578   2.057  0.00  0.00    +0.263 A 
ATOM      3  O   UNL     1      -7.321   2.350   1.157  0.00  0.00    -0.267 OA
ATOM      4  C   UNL     1      -8.926   0.959   2.139  0.00  0.00    +0.064 A 
ATOM      5  C   UNL     1      -9.912   1.237   1.194  0.00  0.00    +0.015 A 
ATOM      6  C   UNL     1     -11.151   0.642   1.307  0.00  0.00    +0.001 A 
ATOM      7  C   UNL     1     -11.418  -0.228   2.352  0.00  0.00    +0.002 A 
ATOM      8  C   UNL     1     -10.450  -0.511   3.295  0.00  0.00    +0.027 A 
ATOM      9  C   UNL     1      -9.198   0.078   3.197  0.00  0.00    +0.064 A 
ATOM     10  N   UNL     1      -8.203  -0.191   4.134  0.00  0.00    -0.256 N 
ATOM     11  C   UNL     1      -6.971   0.395   4.028  0.00  0.00    +0.240 A 
ATOM     12  N   UNL     1      -6.237  -0.031   5.032  0.00  0.00    -0.109 NA
ATOM     13  N   UNL     1      -7.013  -0.908   5.798  0.00  0.00    -0.120 NA
ATOM     14  C   UNL     1      -8.197  -0.994   5.243  0.00  0.00    +0.198 A 
ENDROOT
BRANCH   1  15
ATOM     15  C   UNL     1      -5.339   1.872   2.924  0.00  0.00    +0.137 C 
BRANCH  15  16
ATOM     16  C   UNL     1      -4.417   0.975   2.095  0.00  0.00    +0.117 C 
BRANCH  16  18
ATOM     17  N   UNL     1      -2.062   0.977   1.338  0.00  0.00    -0.313 N 
ATOM     18  C   UNL     1      -3.046   1.595   2.021  0.00  0.00    +0.215 C 
ATOM     19  O   UNL     1      -2.827   2.650   2.577  0.00  0.00    -0.276 OA
ATOM     20  H   UNL     1      -2.261   0.019   0.834  0.00  0.00    +0.149 HD
BRANCH  17  21
ATOM     21  C   UNL     1      -0.729   1.579   1.267  0.00  0.00    +0.070 C 
ATOM     22  C   UNL     1       0.079   1.179   2.503  0.00  0.00    +0.028 C 
BRANCH  21  24
ATOM     23  C   UNL     1      -0.753   1.593  -1.232  0.00  0.00    +0.005 C 
ATOM     24  C   UNL     1      -0.013   1.086   0.008  0.00  0.00    +0.018 C 
ENDBRANCH  21  24
ENDBRANCH  17  21
ENDBRANCH  16  18
ENDBRANCH  15  16
ENDBRANCH   1  15
BRANCH  14  25
ATOM     25  S   UNL     1      -9.545  -1.970   5.821  0.00  0.00    -0.081 S 
BRANCH  25  26
ATOM     26  C   UNL     1      -8.893  -2.781   7.308  0.00  0.00    +0.112 C 
BRANCH  26  27
ATOM     27  C   UNL     1      -9.960  -3.659   7.910  0.00  0.00    -0.034 A 
ATOM     28  C   UNL     1     -10.825  -3.144   8.858  0.00  0.00    +0.005 A 
ATOM     29  C   UNL     1     -11.806  -3.948   9.407  0.00  0.00    +0.000 A 
ATOM     30  C   UNL     1     -11.916  -5.269   9.015  0.00  0.00    +0.000 A 
ATOM     31  C   UNL     1     -11.049  -5.785   8.072  0.00  0.00    +0.003 A 
ATOM     32  C   UNL     1     -10.070  -4.980   7.519  0.00  0.00    -0.046 A 
ATOM     33  C   UNL     1      -9.123  -5.543   6.490  0.00  0.00    +0.044 C 
ENDBRANCH  26  27
ENDBRANCH  25  26
ENDBRANCH  14  25
TORSDOF 8
