REMARK  Name = ZINC09495059
REMARK  5 active torsions:
REMARK  status: ('A' for Active; 'I' for Inactive)
REMARK    1  A    between atoms: C_2  and  C_13
REMARK    2  A    between atoms: C_13  and  N_14
REMARK    3  A    between atoms: C_15  and  C_17
REMARK    4  A    between atoms: C_17  and  C_18
REMARK    5  A    between atoms: C_18  and  C_19
REMARK                            x       y       z     vdW  Elec       q    Type
REMARK                         _______ _______ _______ _____ _____    ______ ____
ROOT
ATOM      1  N   UNL     1       1.167   4.070   1.395  0.00  0.00    -0.311 N 
ATOM      2  C   UNL     1       1.155   5.394   1.648  0.00  0.00    +0.214 C 
ATOM      3  O   UNL     1       1.137   6.187   0.731  0.00  0.00    -0.276 OA
ATOM      4  H   UNL     1       1.181   3.436   2.128  0.00  0.00    +0.149 HD
ENDROOT
BRANCH   1   5
ATOM      5  C   UNL     1       1.159   3.590   0.011  0.00  0.00    +0.139 C 
BRANCH   5   7
ATOM      6  C   UNL     1      -0.017   1.380   0.010  0.00  0.00    +0.054 A 
ATOM      7  C   UNL     1       1.175   2.083   0.002  0.00  0.00    -0.025 A 
ATOM      8  C   UNL     1       2.381   1.407  -0.014  0.00  0.00    +0.029 A 
ATOM      9  C   UNL     1       2.404   0.023  -0.022  0.00  0.00    +0.086 A 
ATOM     10  C   UNL     1       1.212  -0.683  -0.013  0.00  0.00    +0.180 A 
ATOM     11  C   UNL     1       0.002  -0.004   0.002  0.00  0.00    +0.164 A 
ATOM     12  O   UNL     1      -1.167  -0.709   0.010  0.00  0.00    -0.488 OA
ATOM     13  C   UNL     1      -1.468  -1.433  -1.184  0.00  0.00    +0.232 C 
ATOM     14  C   UNL     1      -0.780  -2.789  -1.181  0.00  0.00    +0.082 C 
ATOM     15  C   UNL     1       0.736  -2.670  -1.212  0.00  0.00    +0.232 C 
ATOM     16  O   UNL     1       1.220  -2.048  -0.020  0.00  0.00    -0.487 OA
ATOM     17 CL   UNL     1       3.919  -0.824  -0.042  0.00  0.00    -0.080 Cl
ENDBRANCH   5   7
ENDBRANCH   1   5
BRANCH   2  18
ATOM     18  C   UNL     1       1.163   5.888   3.072  0.00  0.00    +0.103 C 
BRANCH  18  19
ATOM     19  C   UNL     1       1.146   7.418   3.081  0.00  0.00    +0.083 C 
BRANCH  19  20
ATOM     20  C   UNL     1       1.155   7.913   4.504  0.00  0.00    +0.111 A 
ATOM     21  N   UNL     1       1.137   9.249   4.746  0.00  0.00    -0.310 N 
ATOM     22  H   UNL     1       1.119   9.867   3.999  0.00  0.00    +0.170 HD
ATOM     23  C   UNL     1       1.143   9.733   6.002  0.00  0.00    +0.260 A 
ATOM     24  O   UNL     1       1.126  10.935   6.203  0.00  0.00    -0.267 OA
ATOM     25  C   UNL     1       1.170   8.811   7.100  0.00  0.00    +0.075 A 
ATOM     26  C   UNL     1       1.182   9.105   8.532  0.00  0.00    -0.023 A 
ATOM     27  C   UNL     1       1.207   8.049   9.373  0.00  0.00    -0.004 A 
ATOM     28  S   UNL     1       1.216   6.623   8.320  0.00  0.00    -0.073 S 
ATOM     29  C   UNL     1       1.187   7.452   6.751  0.00  0.00    +0.116 A 
ATOM     30  N   UNL     1       1.174   7.048   5.483  0.00  0.00    -0.227 NA
ATOM     31  C   UNL     1       1.225   8.082  10.871  0.00  0.00    +0.043 C 
ATOM     32  C   UNL     1       1.587   9.505  11.320  0.00  0.00    +0.005 C 
ATOM     33  C   UNL     1       0.725  10.500  10.537  0.00  0.00    +0.005 C 
ATOM     34  C   UNL     1       1.167  10.532   9.073  0.00  0.00    +0.037 C 
ENDBRANCH  19  20
ENDBRANCH  18  19
ENDBRANCH   2  18
TORSDOF 5
