REMARK  Name = ZINC62874555
REMARK  5 active torsions:
REMARK  status: ('A' for Active; 'I' for Inactive)
REMARK    1  A    between atoms: C_1  and  C_2
REMARK    2  A    between atoms: C_2  and  C_20
REMARK    3  A    between atoms: C_14  and  C_17
REMARK    4  A    between atoms: C_17  and  N_18
REMARK    5  A    between atoms: N_18  and  C_19
REMARK                            x       y       z     vdW  Elec       q    Type
REMARK                         _______ _______ _______ _____ _____    ______ ____
ROOT
ATOM      1  C   UNL     1       2.988  -3.023   2.454  0.00  0.00    +0.024 C 
ATOM      2  C   UNL     1       2.713  -2.748   0.975  0.00  0.00    +0.085 C 
ATOM      3  C   UNL     1       1.224  -2.947   0.686  0.00  0.00    +0.021 C 
ATOM      4  C   UNL     1       0.401  -2.006   1.569  0.00  0.00    +0.020 C 
ATOM      5  C   UNL     1       0.767  -0.555   1.242  0.00  0.00    +0.109 C 
ATOM      6  N   UNL     1       2.221  -0.393   1.377  0.00  0.00    -0.284 N 
ATOM      7  C   UNL     1       3.106  -1.306   0.641  0.00  0.00    +0.127 C 
ATOM      8  C   UNL     1       2.734   0.576   2.161  0.00  0.00    +0.305 C 
ATOM      9  O   UNL     1       2.008   1.197   2.914  0.00  0.00    -0.252 OA
ATOM     10  N   UNL     1       4.051   0.857   2.111  0.00  0.00    -0.285 N 
ATOM     11  C   UNL     1       4.841   0.533   0.916  0.00  0.00    +0.109 C 
ATOM     12  C   UNL     1       5.568   1.797   0.447  0.00  0.00    +0.019 C 
ATOM     13  C   UNL     1       6.388   2.368   1.606  0.00  0.00    +0.005 C 
ATOM     14  C   UNL     1       5.453   2.748   2.756  0.00  0.00    -0.011 C 
ATOM     15  C   UNL     1       4.723   1.500   3.249  0.00  0.00    +0.111 C 
ENDROOT
BRANCH   2  16
ATOM     16  C   UNL     1       3.522  -3.698   0.129  0.00  0.00    +0.363 C 
ATOM     17  O   UNL     1       4.250  -4.519   0.660  0.00  0.00    -0.246 OA
ATOM     18  O   UNL     1       3.447  -3.646  -1.087  0.00  0.00    -0.246 OA
ENDBRANCH   2  16
BRANCH  14  19
ATOM     19  C   UNL     1       6.270   3.350   3.901  0.00  0.00    -0.078 C 
BRANCH  19  20
ATOM     20  N   UNL     1       5.362   3.823   4.955  0.00  0.00    +0.377 N 
ATOM     21  C   UNL     1       6.147   4.401   6.054  0.00  0.00    -0.100 C 
ATOM     22  H   UNL     1       4.745   4.526   4.576  0.00  0.00    -0.086 HD
ATOM     23  H   UNL     1       4.817   3.048   5.302  0.00  0.00    -0.086 HD
ENDBRANCH  19  20
ENDBRANCH  14  19
TORSDOF 3
