REMARK  Name = ZINC66570321
REMARK  8 active torsions:
REMARK  status: ('A' for Active; 'I' for Inactive)
REMARK    1  A    between atoms: C_1  and  C_2
REMARK    2  A    between atoms: C_2  and  C_3
REMARK    3  A    between atoms: C_3  and  C_24
REMARK    4  A    between atoms: N_6  and  C_10
REMARK    5  A    between atoms: C_10  and  C_11
REMARK    6  A    between atoms: N_13  and  N_14
REMARK    7  A    between atoms: C_15  and  C_17
REMARK    8  A    between atoms: C_21  and  C_23
REMARK                            x       y       z     vdW  Elec       q    Type
REMARK                         _______ _______ _______ _____ _____    ______ ____
ROOT
ATOM      1  C   UNL     1      -1.433  -0.534   0.013  0.00  0.00    +0.138 C 
ATOM      2  C   UNL     1      -2.192  -0.043  -1.205  0.00  0.00    +0.251 C 
ATOM      3  O   UNL     1      -1.933  -0.267  -2.368  0.00  0.00    -0.272 OA
ATOM      4  N   UNL     1      -3.214   0.692  -0.725  0.00  0.00    -0.215 N 
ATOM      5  C   UNL     1      -3.207   0.734   0.612  0.00  0.00    +0.310 C 
ATOM      6  O   UNL     1      -4.031   1.335   1.273  0.00  0.00    -0.252 OA
ATOM      7  N   UNL     1      -2.187   0.036   1.143  0.00  0.00    -0.281 N 
ATOM      8  H   UNL     1      -1.987  -0.072   2.086  0.00  0.00    +0.152 HD
ENDROOT
BRANCH   1   9
ATOM      9  C   UNL     1      -1.441  -2.039   0.076  0.00  0.00    -0.015 A 
ATOM     10  C   UNL     1      -0.400  -2.759  -0.480  0.00  0.00    +0.006 A 
ATOM     11  C   UNL     1      -0.407  -4.141  -0.423  0.00  0.00    +0.000 A 
ATOM     12  C   UNL     1      -1.454  -4.802   0.191  0.00  0.00    +0.000 A 
ATOM     13  C   UNL     1      -2.495  -4.082   0.748  0.00  0.00    +0.000 A 
ATOM     14  C   UNL     1      -2.486  -2.700   0.694  0.00  0.00    +0.006 A 
ENDBRANCH   1   9
BRANCH   1  16
ATOM     15  C   UNL     1      -0.019   1.526   0.010  0.00  0.00    +0.007 C 
ATOM     16  C   UNL     1       0.002  -0.004   0.002  0.00  0.00    +0.037 C 
ENDBRANCH   1  16
BRANCH   4  17
ATOM     17  C   UNL     1      -4.210   1.363  -1.565  0.00  0.00    +0.215 C 
BRANCH  17  18
ATOM     18  C   UNL     1      -5.368   0.431  -1.812  0.00  0.00    +0.247 C 
ATOM     19  O   UNL     1      -5.362  -0.684  -1.335  0.00  0.00    -0.273 OA
ATOM     20  N   UNL     1      -6.410   0.837  -2.564  0.00  0.00    -0.233 N 
ATOM     21  H   UNL     1      -6.415   1.728  -2.946  0.00  0.00    +0.173 HD
BRANCH  20  22
ATOM     22  N   UNL     1      -7.487  -0.030  -2.795  0.00  0.00    -0.230 N 
ATOM     23  C   UNL     1      -8.529   0.376  -3.547  0.00  0.00    +0.260 C 
ATOM     24  O   UNL     1      -8.535   1.493  -4.026  0.00  0.00    -0.269 OA
ATOM     25  H   UNL     1      -7.482  -0.921  -2.413  0.00  0.00    +0.173 HD
BRANCH  23  26
ATOM     26  C   UNL     1      -9.665  -0.538  -3.790  0.00  0.00    +0.038 A 
ATOM     27  C   UNL     1      -9.665  -1.820  -3.237  0.00  0.00    +0.013 A 
ATOM     28  C   UNL     1     -10.728  -2.668  -3.468  0.00  0.00    +0.001 A 
ATOM     29  C   UNL     1     -11.794  -2.250  -4.245  0.00  0.00    +0.003 A 
ATOM     30  C   UNL     1     -11.801  -0.982  -4.796  0.00  0.00    -0.050 A 
ATOM     31  C   UNL     1     -10.746  -0.122  -4.569  0.00  0.00    +0.016 A 
ATOM     32  C   UNL     1     -12.966  -0.536  -5.642  0.00  0.00    +0.044 C 
ENDBRANCH  23  26
ENDBRANCH  20  22
ENDBRANCH  17  18
ENDBRANCH   4  17
TORSDOF 6
