REMARK  Name = ZINC01055960
REMARK  5 active torsions:
REMARK  status: ('A' for Active; 'I' for Inactive)
REMARK    1  A    between atoms: C_3  and  N_24
REMARK    2  A    between atoms: C_6  and  C_7
REMARK    3  A    between atoms: C_7  and  C_8
REMARK    4  A    between atoms: N_14  and  C_16
REMARK    5  A    between atoms: C_16  and  C_17
REMARK                            x       y       z     vdW  Elec       q    Type
REMARK                         _______ _______ _______ _____ _____    ______ ____
ROOT
ATOM      1  C   UNL     1      -2.870   4.167   0.052  0.00  0.00    +0.223 C 
ATOM      2  O   UNL     1      -3.352   3.054   0.051  0.00  0.00    -0.275 OA
ATOM      3  N   UNL     1      -1.532   4.322   0.040  0.00  0.00    -0.269 N 
ATOM      4  C   UNL     1      -0.696   3.197   0.026  0.00  0.00    +0.147 A 
ATOM      5  C   UNL     1      -1.116   1.857   0.017  0.00  0.00    +0.065 A 
ATOM      6  C   UNL     1      -0.013   1.076   0.008  0.00  0.00    +0.110 A 
ATOM      7  N   UNL     1       1.067   1.885   0.002  0.00  0.00    -0.265 N 
ATOM      8  N   UNL     1       0.616   3.211   0.013  0.00  0.00    -0.156 NA
ATOM      9  H   UNL     1      -1.146   5.212   0.041  0.00  0.00    +0.156 HD
ENDROOT
BRANCH   1  10
ATOM     10  C   UNL     1      -3.769   5.377   0.068  0.00  0.00    +0.131 C 
BRANCH  10  16
ATOM     11  C   UNL     1      -5.883   4.741  -1.112  0.00  0.00    +0.006 A 
ATOM     12  C   UNL     1      -7.203   4.329  -1.101  0.00  0.00    +0.033 A 
ATOM     13  C   UNL     1      -7.851   4.119   0.102  0.00  0.00    +0.126 A 
ATOM     14  C   UNL     1      -7.178   4.316   1.293  0.00  0.00    +0.033 A 
ATOM     15  C   UNL     1      -5.857   4.723   1.282  0.00  0.00    +0.006 A 
ATOM     16  C   UNL     1      -5.209   4.933   0.080  0.00  0.00    -0.038 A 
BRANCH  13  17
ATOM     17  N   UNL     1      -9.265   3.683   0.113  0.00  0.00    +0.056 N 
ATOM     18  O   UNL     1      -9.837   3.497   1.173  0.00  0.00    -0.126 OA
ATOM     19  O   UNL     1      -9.858   3.510  -0.937  0.00  0.00    -0.126 OA
ENDBRANCH  13  17
ENDBRANCH  10  16
ENDBRANCH   1  10
BRANCH   7  20
ATOM     20  C   UNL     1       2.467   1.453  -0.014  0.00  0.00    +0.178 C 
BRANCH  20  21
ATOM     21  C   UNL     1       3.176   2.090  -1.182  0.00  0.00    -0.026 A 
ATOM     22  C   UNL     1       3.209   1.446  -2.405  0.00  0.00    +0.007 A 
ATOM     23  C   UNL     1       3.855   2.033  -3.477  0.00  0.00    +0.020 A 
ATOM     24  C   UNL     1       4.477   3.259  -3.323  0.00  0.00    +0.041 A 
ATOM     25  C   UNL     1       4.448   3.900  -2.098  0.00  0.00    +0.020 A 
ATOM     26  C   UNL     1       3.798   3.315  -1.028  0.00  0.00    +0.007 A 
ATOM     27 CL   UNL     1       5.293   3.993  -4.668  0.00  0.00    -0.084 Cl
ENDBRANCH  20  21
ENDBRANCH   7  20
TORSDOF 5
