REMARK  Name = ZINC37309223
REMARK  5 active torsions:
REMARK  status: ('A' for Active; 'I' for Inactive)
REMARK    1  A    between atoms: C_3  and  N_14
REMARK    2  A    between atoms: C_4  and  C_11
REMARK    3  A    between atoms: C_6  and  S_7
REMARK    4  A    between atoms: S_7  and  N_10
REMARK    5  A    between atoms: N_14  and  C_15
REMARK                            x       y       z     vdW  Elec       q    Type
REMARK                         _______ _______ _______ _____ _____    ______ ____
ROOT
ATOM      1  C   UNL     1      -0.062   1.292   0.019  0.00  0.00    +0.030 A 
ATOM      2  C   UNL     1       1.061   2.092  -0.013  0.00  0.00    +0.025 A 
ATOM      3  C   UNL     1       2.325   1.516  -0.039  0.00  0.00    +0.042 A 
ATOM      4  C   UNL     1       2.451   0.116  -0.031  0.00  0.00    +0.086 A 
ATOM      5  C   UNL     1       1.301  -0.679   0.002  0.00  0.00    +0.045 A 
ATOM      6  C   UNL     1       0.058  -0.089   0.027  0.00  0.00    +0.106 A 
ENDROOT
BRANCH   6   7
ATOM      7  S   UNL     1      -1.389  -1.094   0.069  0.00  0.00    +0.056 S 
ATOM      8  O   UNL     1      -0.999  -2.344   0.620  0.00  0.00    -0.153 OA
ATOM      9  O   UNL     1      -2.420  -0.298   0.639  0.00  0.00    -0.153 OA
BRANCH   7  10
ATOM     10  N   UNL     1      -1.829  -1.385  -1.500  0.00  0.00    -0.204 NA
ATOM     11  H   UNL     1      -2.283  -2.210  -1.732  0.00  0.00    +0.144 HD
ATOM     12  H   UNL     1      -1.632  -0.730  -2.189  0.00  0.00    +0.144 HD
ENDBRANCH   7  10
ENDBRANCH   6   7
BRANCH   4  13
ATOM     13  C   UNL     1       3.783  -0.507  -0.059  0.00  0.00    +0.388 C 
ATOM     14  O   UNL     1       3.887  -1.722  -0.166  0.00  0.00    -0.241 OA
ATOM     15  O   UNL     1       4.786   0.188   0.025  0.00  0.00    -0.241 OA
ENDBRANCH   4  13
BRANCH   3  16
ATOM     16  N   UNL     1       3.457   2.318  -0.072  0.00  0.00    -0.340 N 
ATOM     17  H   UNL     1       4.338   1.917  -0.010  0.00  0.00    +0.146 HD
BRANCH  16  18
ATOM     18  C   UNL     1       3.321   3.771  -0.202  0.00  0.00    +0.070 C 
ATOM     19  C   UNL     1       3.194   4.141  -1.682  0.00  0.00    +0.022 C 
ATOM     20  C   UNL     1       3.053   5.658  -1.817  0.00  0.00    +0.002 C 
ATOM     21  C   UNL     1       4.287   6.341  -1.225  0.00  0.00    +0.000 C 
ATOM     22  C   UNL     1       4.414   5.971   0.254  0.00  0.00    +0.002 C 
ATOM     23  C   UNL     1       4.556   4.453   0.390  0.00  0.00    +0.022 C 
ENDBRANCH  16  18
ENDBRANCH   3  16
TORSDOF 5
