REMARK  Name = ZINC49564479
REMARK  6 active torsions:
REMARK  status: ('A' for Active; 'I' for Inactive)
REMARK    1  A    between atoms: C_1  and  C_2
REMARK    2  A    between atoms: C_2  and  C_4
REMARK    3  A    between atoms: C_2  and  N_11
REMARK    4  A    between atoms: C_4  and  C_5
REMARK    5  A    between atoms: C_5  and  C_6
REMARK    6  A    between atoms: C_15  and  N_18
REMARK                            x       y       z     vdW  Elec       q    Type
REMARK                         _______ _______ _______ _____ _____    ______ ____
ROOT
ATOM      1  N   UNL     1       0.688  -0.476  -1.203  0.00  0.00    -0.311 N 
ATOM      2  C   UNL     1       2.070  -0.590  -1.215  0.00  0.00    +0.215 A 
ATOM      3  N   UNL     1       2.753  -0.272  -0.126  0.00  0.00    -0.221 NA
ATOM      4  C   UNL     1       4.072  -0.368  -0.100  0.00  0.00    +0.138 A 
ATOM      5  C   UNL     1       4.740  -0.811  -1.238  0.00  0.00    +0.061 A 
ATOM      6  C   UNL     1       3.989  -1.135  -2.364  0.00  0.00    +0.138 A 
ATOM      7  N   UNL     1       2.672  -1.019  -2.314  0.00  0.00    -0.221 NA
ATOM      8  H   UNL     1       0.175  -0.710  -1.993  0.00  0.00    +0.149 HD
ENDROOT
BRANCH   5   9
ATOM      9  N   UNL     1       6.136  -0.925  -1.250  0.00  0.00    -0.356 N 
ATOM     10  H   UNL     1       6.649  -0.696  -0.459  0.00  0.00    +0.142 HD
ATOM     11  H   UNL     1       6.591  -1.235  -2.049  0.00  0.00    +0.142 HD
ENDBRANCH   5   9
BRANCH   1  13
ATOM     12  C   UNL     1      -0.019   1.526   0.010  0.00  0.00    +0.028 C 
ATOM     13  C   UNL     1       0.002  -0.004   0.002  0.00  0.00    +0.070 C 
BRANCH  13  14
ATOM     14  C   UNL     1      -1.433  -0.534   0.013  0.00  0.00    +0.030 C 
BRANCH  14  15
ATOM     15  C   UNL     1      -1.413  -2.059   0.130  0.00  0.00    +0.076 C 
BRANCH  15  16
ATOM     16  C   UNL     1      -2.827  -2.581   0.141  0.00  0.00    +0.105 A 
ATOM     17  C   UNL     1      -3.541  -2.941  -0.941  0.00  0.00    +0.044 A 
ATOM     18  C   UNL     1      -4.806  -3.367  -0.474  0.00  0.00    +0.041 A 
ATOM     19  C   UNL     1      -4.789  -3.241   0.865  0.00  0.00    +0.195 A 
ATOM     20  O   UNL     1      -3.586  -2.770   1.232  0.00  0.00    -0.468 OA
ENDBRANCH  15  16
ENDBRANCH  14  15
ENDBRANCH  13  14
ENDBRANCH   1  13
TORSDOF 5
