REMARK  Name = ZINC12497568
REMARK  8 active torsions:
REMARK  status: ('A' for Active; 'I' for Inactive)
REMARK    1  A    between atoms: C_1  and  O_2
REMARK    2  A    between atoms: O_2  and  C_3
REMARK    3  A    between atoms: C_3  and  C_5
REMARK    4  A    between atoms: C_5  and  C_31
REMARK    5  A    between atoms: C_10  and  C_12
REMARK    6  A    between atoms: N_21  and  C_24
REMARK    7  A    between atoms: C_31  and  C_32
REMARK    8  A    between atoms: C_35  and  O_38
REMARK                            x       y       z     vdW  Elec       q    Type
REMARK                         _______ _______ _______ _____ _____    ______ ____
ROOT
ATOM      1  C   UNL     1       0.002  -0.004   0.002  0.00  0.00    +0.048 C 
ATOM      2  C   UNL     1      -1.361  -0.536  -0.151  0.00  0.00    +0.086 C 
ATOM      3  C   UNL     1      -1.576  -0.502  -1.718  0.00  0.00    +0.077 C 
ATOM      4  C   UNL     1      -0.254  -1.190  -2.079  0.00  0.00    -0.027 C 
ATOM      5  C   UNL     1      -2.859  -1.286  -1.713  0.00  0.00    +0.229 C 
ATOM      6  O   UNL     1      -3.231  -2.088  -2.542  0.00  0.00    -0.275 OA
ATOM      7  N   UNL     1      -3.519  -0.907  -0.578  0.00  0.00    -0.207 N 
ATOM      8  C   UNL     1      -2.704  -0.263   0.312  0.00  0.00    +0.229 C 
ATOM      9  O   UNL     1      -3.037   0.391   1.277  0.00  0.00    -0.275 OA
ATOM     10  N   UNL     1       0.724  -0.514  -1.200  0.00  0.00    +0.396 N 
ATOM     11  H   UNL     1       1.450  -1.180  -0.912  0.00  0.00    -0.083 HD
ATOM     12  H   UNL     1       1.159   0.270  -1.702  0.00  0.00    -0.083 HD
ENDROOT
BRANCH   4  13
ATOM     13  C   UNL     1       0.074  -0.986  -3.536  0.00  0.00    -0.058 A 
ATOM     14  C   UNL     1      -0.189  -1.990  -4.450  0.00  0.00    +0.002 A 
ATOM     15  C   UNL     1       0.111  -1.805  -5.787  0.00  0.00    +0.003 A 
ATOM     16  C   UNL     1       0.674  -0.616  -6.211  0.00  0.00    +0.038 A 
ATOM     17  C   UNL     1       0.937   0.390  -5.297  0.00  0.00    +0.124 A 
ATOM     18  C   UNL     1       0.631   0.205  -3.959  0.00  0.00    +0.040 A 
ATOM     19  F   UNL     1       1.487   1.553  -5.710  0.00  0.00    -0.205 F 
ENDBRANCH   4  13
BRANCH   7  20
ATOM     20  C   UNL     1      -4.885  -1.141  -0.358  0.00  0.00    +0.079 A 
ATOM     21  C   UNL     1      -5.300  -2.317   0.252  0.00  0.00    +0.027 A 
ATOM     22  C   UNL     1      -6.645  -2.543   0.471  0.00  0.00    +0.002 A 
ATOM     23  C   UNL     1      -7.580  -1.604   0.075  0.00  0.00    +0.003 A 
ATOM     24  C   UNL     1      -7.172  -0.434  -0.538  0.00  0.00    +0.040 A 
ATOM     25  C   UNL     1      -5.826  -0.199  -0.756  0.00  0.00    +0.145 A 
ATOM     26  F   UNL     1      -5.427   0.945  -1.355  0.00  0.00    -0.204 F 
ENDBRANCH   7  20
BRANCH   1  27
ATOM     27  C   UNL     1       0.634  -0.528   1.266  0.00  0.00    +0.297 C 
ATOM     28  O   UNL     1      -0.061  -0.851   2.200  0.00  0.00    -0.252 OA
BRANCH  27  30
ATOM     29  C   UNL     1       2.508  -1.149   2.601  0.00  0.00    +0.280 C 
ATOM     30  O   UNL     1       1.969  -0.637   1.354  0.00  0.00    -0.469 OA
ENDBRANCH  27  30
ENDBRANCH   1  27
BRANCH   1  31
ATOM     31  C   UNL     1      -0.019   1.526   0.010  0.00  0.00    +0.034 C 
BRANCH  31  32
ATOM     32  C   UNL     1       1.395   2.047  -0.000  0.00  0.00    -0.048 A 
ATOM     33  C   UNL     1       2.052   2.285   1.193  0.00  0.00    +0.007 A 
ATOM     34  C   UNL     1       3.350   2.758   1.186  0.00  0.00    +0.045 A 
ATOM     35  C   UNL     1       3.990   3.005  -0.020  0.00  0.00    +0.117 A 
ATOM     36  C   UNL     1       3.327   2.771  -1.216  0.00  0.00    +0.045 A 
ATOM     37  C   UNL     1       2.031   2.293  -1.203  0.00  0.00    +0.007 A 
BRANCH  35  38
ATOM     38  O   UNL     1       5.266   3.475  -0.030  0.00  0.00    -0.507 OA
ATOM     39  H   UNL     1       5.329   4.440  -0.025  0.00  0.00    +0.292 HD
ENDBRANCH  35  38
ENDBRANCH  31  32
ENDBRANCH   1  31
TORSDOF 7
