REMARK  Name = ZINC59906070
REMARK  9 active torsions:
REMARK  status: ('A' for Active; 'I' for Inactive)
REMARK    1  A    between atoms: C_4  and  N_7
REMARK    2  A    between atoms: C_8  and  C_34
REMARK    3  A    between atoms: C_11  and  S_12
REMARK    4  A    between atoms: S_12  and  C_13
REMARK    5  A    between atoms: C_13  and  C_14
REMARK    6  A    between atoms: C_14  and  C_15
REMARK    7  A    between atoms: N_17  and  C_18
REMARK    8  A    between atoms: C_21  and  S_24
REMARK    9  A    between atoms: S_24  and  N_27
REMARK                            x       y       z     vdW  Elec       q    Type
REMARK                         _______ _______ _______ _____ _____    ______ ____
ROOT
ATOM      1  C   UNL     1       7.447   0.102   5.331  0.00  0.00    +0.218 C 
ATOM      2  O   UNL     1       8.233  -0.638   4.779  0.00  0.00    -0.275 OA
ATOM      3  N   UNL     1       7.731   0.598   6.552  0.00  0.00    -0.285 N 
ATOM      4  H   UNL     1       7.134   1.242   6.965  0.00  0.00    +0.155 HD
ENDROOT
BRANCH   3   5
ATOM      5  C   UNL     1       8.887   0.185   7.223  0.00  0.00    +0.033 A 
ATOM      6  C   UNL     1       8.877   0.044   8.604  0.00  0.00    +0.025 A 
ATOM      7  C   UNL     1      10.020  -0.363   9.264  0.00  0.00    +0.030 A 
ATOM      8  C   UNL     1      11.174  -0.630   8.550  0.00  0.00    +0.106 A 
ATOM      9  C   UNL     1      11.187  -0.490   7.174  0.00  0.00    +0.030 A 
ATOM     10  C   UNL     1      10.046  -0.089   6.508  0.00  0.00    +0.025 A 
BRANCH   8  11
ATOM     11  S   UNL     1      12.630  -1.150   9.395  0.00  0.00    +0.061 S 
ATOM     12  O   UNL     1      13.728  -0.810   8.559  0.00  0.00    -0.153 OA
ATOM     13  O   UNL     1      12.515  -0.677  10.730  0.00  0.00    -0.153 OA
BRANCH  11  14
ATOM     14  N   UNL     1      12.588  -2.803   9.473  0.00  0.00    -0.177 NA
ATOM     15  C   UNL     1      11.947  -3.428  10.608  0.00  0.00    +0.109 C 
ATOM     16  C   UNL     1      12.983  -3.634  11.741  0.00  0.00    +0.017 C 
ATOM     17  C   UNL     1      13.931  -4.699  11.378  0.00  0.00    +0.001 C 
ATOM     18  C   UNL     1      14.775  -4.394  10.144  0.00  0.00    +0.001 C 
ATOM     19  C   UNL     1      14.008  -4.783   8.904  0.00  0.00    +0.017 C 
ATOM     20  C   UNL     1      13.200  -3.579   8.377  0.00  0.00    +0.109 C 
ENDBRANCH  11  14
ENDBRANCH   8  11
ENDBRANCH   3   5
BRANCH   1  21
ATOM     21  C   UNL     1       6.151   0.465   4.653  0.00  0.00    +0.107 C 
BRANCH  21  22
ATOM     22  C   UNL     1       6.077  -0.227   3.290  0.00  0.00    +0.086 C 
BRANCH  22  23
ATOM     23  S   UNL     1       4.517   0.211   2.474  0.00  0.00    -0.085 S 
BRANCH  23  28
ATOM     24  N   UNL     1       3.629  -0.642  -0.041  0.00  0.00    -0.274 N 
ATOM     25  C   UNL     1       4.116  -1.445  -1.039  0.00  0.00    +0.142 A 
ATOM     26  N   UNL     1       5.277  -1.889  -0.646  0.00  0.00    -0.133 NA
ATOM     27  N   UNL     1       5.556  -1.428   0.520  0.00  0.00    -0.122 NA
ATOM     28  C   UNL     1       4.583  -0.652   0.939  0.00  0.00    +0.196 A 
BRANCH  24  32
ATOM     29  C   UNL     1       0.002   1.413  -0.008  0.00  0.00    +0.000 A 
ATOM     30  C   UNL     1       1.193   2.115  -0.015  0.00  0.00    +0.002 A 
ATOM     31  C   UNL     1       2.396   1.437  -0.026  0.00  0.00    +0.026 A 
ATOM     32  C   UNL     1       2.409   0.049  -0.030  0.00  0.00    +0.050 A 
ATOM     33  C   UNL     1       1.211  -0.653  -0.023  0.00  0.00    +0.026 A 
ATOM     34  C   UNL     1       0.011   0.030  -0.012  0.00  0.00    +0.002 A 
ENDBRANCH  24  32
BRANCH  25  35
ATOM     35  C   UNL     1       3.436  -1.757  -2.347  0.00  0.00    +0.057 C 
ATOM     36  C   UNL     1       4.065  -2.835  -3.231  0.00  0.00    +0.012 C 
ATOM     37  C   UNL     1       4.164  -1.363  -3.633  0.00  0.00    +0.012 C 
ENDBRANCH  25  35
ENDBRANCH  23  28
ENDBRANCH  22  23
ENDBRANCH  21  22
ENDBRANCH   1  21
TORSDOF 9
