REMARK  Name = ZINC13064844
REMARK  11 active torsions:
REMARK  status: ('A' for Active; 'I' for Inactive)
REMARK    1  A    between atoms: C_1  and  C_2
REMARK    2  A    between atoms: C_2  and  C_3
REMARK    3  A    between atoms: C_3  and  C_5
REMARK    4  A    between atoms: C_3  and  N_69
REMARK    5  A    between atoms: N_9  and  C_10
REMARK    6  A    between atoms: C_16  and  C_17
REMARK    7  A    between atoms: C_16  and  N_69
REMARK    8  A    between atoms: C_22  and  C_23
REMARK    9  A    between atoms: C_22  and  N_69
REMARK   10  A    between atoms: C_26  and  C_36
REMARK   11  A    between atoms: C_28  and  C_35
REMARK                            x       y       z     vdW  Elec       q    Type
REMARK                         _______ _______ _______ _____ _____    ______ ____
ROOT
ATOM      1  N   UNL     1       5.237   4.729  -1.563  0.00  0.00    +0.392 N 
ATOM      2  H   UNL     1       5.164   3.983  -2.265  0.00  0.00    -0.080 HD
ENDROOT
BRANCH   1   3
ATOM      3  C   UNL     1       6.607   5.284  -1.594  0.00  0.00    +0.003 C 
BRANCH   3   4
ATOM      4  C   UNL     1       6.832   6.201  -0.420  0.00  0.00    +0.138 A 
ATOM      5  N   UNL     1       6.597   5.930   0.841  0.00  0.00    -0.115 NA
ATOM      6  N   UNL     1       6.917   6.967   1.537  0.00  0.00    -0.023 NA
ATOM      7  N   UNL     1       7.350   7.891   0.752  0.00  0.00    -0.044 NA
ATOM      8  N   UNL     1       7.317   7.456  -0.462  0.00  0.00    -0.228 N 
BRANCH   8   9
ATOM      9  C   UNL     1       7.728   8.190  -1.661  0.00  0.00    +0.111 C 
ATOM     10  C   UNL     1       9.206   8.569  -1.545  0.00  0.00    +0.027 C 
ATOM     11  C   UNL     1       9.635   9.336  -2.798  0.00  0.00    +0.002 C 
ATOM     12  C   UNL     1       8.792  10.606  -2.932  0.00  0.00    +0.000 C 
ATOM     13  C   UNL     1       7.314  10.226  -3.048  0.00  0.00    +0.002 C 
ATOM     14  C   UNL     1       6.885   9.460  -1.796  0.00  0.00    +0.027 C 
ENDBRANCH   8   9
ENDBRANCH   3   4
BRANCH   3  16
ATOM     15  C   UNL     1       7.471   3.272  -2.797  0.00  0.00    +0.002 C 
ATOM     16  C   UNL     1       7.608   4.128  -1.537  0.00  0.00    -0.011 C 
ENDBRANCH   3  16
ENDBRANCH   1   3
BRANCH   1  17
ATOM     17  C   UNL     1       4.256   5.788  -1.885  0.00  0.00    -0.034 C 
BRANCH  17  18
ATOM     18  C   UNL     1       4.405   6.163  -3.336  0.00  0.00    -0.027 A 
ATOM     19  C   UNL     1       3.877   5.564  -4.432  0.00  0.00    +0.009 A 
ATOM     20  C   UNL     1       4.151   6.090  -5.680  0.00  0.00    +0.008 A 
ATOM     21  C   UNL     1       4.940   7.189  -5.773  0.00  0.00    +0.045 A 
ATOM     22  S   UNL     1       5.317   7.518  -4.059  0.00  0.00    -0.103 S 
ENDBRANCH  17  18
ENDBRANCH   1  17
BRANCH   1  23
ATOM     23  C   UNL     1       4.951   4.163  -0.228  0.00  0.00    -0.036 C 
BRANCH  23  24
ATOM     24  C   UNL     1       3.798   3.200  -0.349  0.00  0.00    +0.001 A 
ATOM     25  C   UNL     1       4.039   1.878  -0.527  0.00  0.00    +0.017 A 
ATOM     26  C   UNL     1       2.897   0.968  -0.642  0.00  0.00    +0.002 A 
ATOM     27  C   UNL     1       3.082  -0.406  -0.827  0.00  0.00    -0.041 A 
ATOM     28  C   UNL     1       1.996  -1.228  -0.930  0.00  0.00    +0.007 A 
ATOM     29  C   UNL     1       0.709  -0.711  -0.854  0.00  0.00    -0.048 A 
ATOM     30  C   UNL     1       0.503   0.639  -0.672  0.00  0.00    +0.029 A 
ATOM     31  C   UNL     1       1.594   1.496  -0.564  0.00  0.00    +0.050 A 
ATOM     32  N   UNL     1       1.417   2.851  -0.382  0.00  0.00    -0.322 N 
ATOM     33  H   UNL     1       0.519   3.213  -0.329  0.00  0.00    +0.169 HD
ATOM     34  C   UNL     1       2.472   3.678  -0.278  0.00  0.00    +0.251 A 
ATOM     35  O   UNL     1       2.278   4.871  -0.118  0.00  0.00    -0.268 OA
ATOM     36  C   UNL     1      -0.474  -1.637  -0.972  0.00  0.00    +0.044 C 
ATOM     37  C   UNL     1       4.474  -0.977  -0.910  0.00  0.00    +0.044 C 
ENDBRANCH  23  24
ENDBRANCH   1  23
TORSDOF 8
