REMARK  Name = ZINC03385563
REMARK  12 active torsions:
REMARK  status: ('A' for Active; 'I' for Inactive)
REMARK    1  A    between atoms: C_1  and  C_2
REMARK    2  A    between atoms: C_4  and  C_33
REMARK    3  A    between atoms: C_5  and  C_32
REMARK    4  A    between atoms: C_6  and  S_9
REMARK    5  A    between atoms: C_7  and  C_8
REMARK    6  A    between atoms: S_9  and  N_12
REMARK    7  A    between atoms: N_12  and  C_13
REMARK    8  A    between atoms: C_13  and  C_15
REMARK    9  A    between atoms: C_13  and  C_16
REMARK   10  A    between atoms: C_16  and  O_18
REMARK   11  A    between atoms: O_18  and  C_19
REMARK   12  A    between atoms: C_19  and  C_20
REMARK                            x       y       z     vdW  Elec       q    Type
REMARK                         _______ _______ _______ _____ _____    ______ ____
ROOT
ATOM      1  C   UNL     1       1.940  -1.848   3.806  0.00  0.00    +0.182 C 
ATOM      2  C   UNL     1       1.783  -1.454   5.276  0.00  0.00    +0.037 C 
ENDROOT
BRANCH   1   3
ATOM      3  N   UNL     1       1.025  -2.950   3.496  0.00  0.00    -0.176 NA
ATOM      4  H   UNL     1       1.291  -3.865   3.674  0.00  0.00    +0.149 HD
BRANCH   3   5
ATOM      5  S   UNL     1      -0.462  -2.631   2.841  0.00  0.00    +0.060 S 
ATOM      6  O   UNL     1      -1.046  -1.609   3.637  0.00  0.00    -0.153 OA
ATOM      7  O   UNL     1      -1.092  -3.888   2.633  0.00  0.00    -0.153 OA
BRANCH   5  13
ATOM      8  C   UNL     1       0.615  -3.104  -2.252  0.00  0.00    +0.044 C 
ATOM      9  C   UNL     1       0.307  -2.208  -1.080  0.00  0.00    -0.045 A 
ATOM     10  C   UNL     1       0.237  -0.839  -1.257  0.00  0.00    +0.007 A 
ATOM     11  C   UNL     1      -0.046  -0.017  -0.182  0.00  0.00    -0.045 A 
ATOM     12  C   UNL     1      -0.260  -0.564   1.069  0.00  0.00    -0.021 A 
ATOM     13  C   UNL     1      -0.191  -1.933   1.246  0.00  0.00    +0.112 A 
ATOM     14  C   UNL     1       0.088  -2.756   0.170  0.00  0.00    -0.021 A 
ATOM     15  C   UNL     1       0.158  -4.249   0.362  0.00  0.00    +0.046 C 
ATOM     16  C   UNL     1      -0.567   0.332   2.241  0.00  0.00    +0.046 C 
ATOM     17  C   UNL     1      -0.122   1.476  -0.374  0.00  0.00    +0.044 C 
ENDBRANCH   5  13
ENDBRANCH   3   5
ENDBRANCH   1   3
BRANCH   1  18
ATOM     18  C   UNL     1       3.359  -2.288   3.553  0.00  0.00    +0.326 C 
ATOM     19  O   UNL     1       3.583  -3.406   3.154  0.00  0.00    -0.249 OA
BRANCH  18  20
ATOM     20  O   UNL     1       4.374  -1.437   3.771  0.00  0.00    -0.457 OA
BRANCH  20  21
ATOM     21  C   UNL     1       5.694  -1.920   3.510  0.00  0.00    +0.287 C 
BRANCH  21  22
ATOM     22  C   UNL     1       6.695  -0.834   3.809  0.00  0.00    +0.086 A 
ATOM     23  C   UNL     1       7.607  -1.000   4.832  0.00  0.00    +0.097 A 
ATOM     24  C   UNL     1       8.528   0.023   5.091  0.00  0.00    +0.259 A 
ATOM     25  O   UNL     1       9.347  -0.093   5.988  0.00  0.00    -0.267 OA
ATOM     26  N   UNL     1       8.495   1.139   4.332  0.00  0.00    -0.267 N 
ATOM     27  C   UNL     1       9.384   2.143   4.571  0.00  0.00    +0.111 A 
ATOM     28  C   UNL     1       9.370   3.271   3.825  0.00  0.00    +0.035 A 
ATOM     29  C   UNL     1       8.435   3.419   2.790  0.00  0.00    +0.020 A 
ATOM     30  C   UNL     1       7.542   2.420   2.543  0.00  0.00    +0.048 A 
ATOM     31  C   UNL     1       7.572   1.255   3.330  0.00  0.00    +0.141 A 
ATOM     32  N   UNL     1       6.702   0.276   3.087  0.00  0.00    -0.231 NA
ATOM     33 BR   UNL     1      10.614   4.651   4.177  0.00  0.00    -0.049 Br
ENDBRANCH  21  22
ENDBRANCH  20  21
ENDBRANCH  18  20
ENDBRANCH   1  18
TORSDOF 7
