REMARK  Name = ZINC38905449
REMARK  9 active torsions:
REMARK  status: ('A' for Active; 'I' for Inactive)
REMARK    1  A    between atoms: C_1  and  C_2
REMARK    2  A    between atoms: C_2  and  C_4
REMARK    3  A    between atoms: C_2  and  N_12
REMARK    4  A    between atoms: C_4  and  C_5
REMARK    5  A    between atoms: C_5  and  C_6
REMARK    6  A    between atoms: C_13  and  C_15
REMARK    7  A    between atoms: N_20  and  C_22
REMARK    8  A    between atoms: C_22  and  C_23
REMARK    9  A    between atoms: C_25  and  C_28
REMARK                            x       y       z     vdW  Elec       q    Type
REMARK                         _______ _______ _______ _____ _____    ______ ____
ROOT
ATOM      1  C   UNL     1       2.783  -1.099   2.395  0.00  0.00    +0.058 C 
ATOM      2  C   UNL     1       2.301  -2.512   2.735  0.00  0.00    +0.009 C 
ATOM      3  C   UNL     1       3.103  -3.040   3.929  0.00  0.00    -0.018 C 
ATOM      4  C   UNL     1       4.595  -3.001   3.591  0.00  0.00    -0.078 C 
ATOM      5  N   UNL     1       4.999  -1.620   3.301  0.00  0.00    +0.386 N 
ATOM      6  C   UNL     1       4.287  -1.131   2.114  0.00  0.00    -0.065 C 
ATOM      7  H   UNL     1       4.776  -1.033   4.091  0.00  0.00    -0.081 HD
ENDROOT
BRANCH   1   9
ATOM      8  N   UNL     1       0.711  -0.489   1.189  0.00  0.00    -0.313 N 
ATOM      9  C   UNL     1       2.054  -0.600   1.174  0.00  0.00    +0.215 C 
ATOM     10  O   UNL     1       2.676  -0.297   0.177  0.00  0.00    -0.276 OA
ATOM     11  H   UNL     1       0.213  -0.731   1.986  0.00  0.00    +0.149 HD
BRANCH   8  13
ATOM     12  C   UNL     1      -0.019   1.526   0.010  0.00  0.00    +0.028 C 
ATOM     13  C   UNL     1       0.002  -0.004   0.002  0.00  0.00    +0.070 C 
BRANCH  13  14
ATOM     14  C   UNL     1      -1.433  -0.534   0.013  0.00  0.00    +0.026 C 
BRANCH  14  15
ATOM     15  C   UNL     1      -1.416  -2.058  -0.121  0.00  0.00    +0.037 C 
BRANCH  15  16
ATOM     16  C   UNL     1      -2.829  -2.579  -0.111  0.00  0.00    -0.047 A 
ATOM     17  C   UNL     1      -3.432  -2.917   1.087  0.00  0.00    +0.003 A 
ATOM     18  C   UNL     1      -4.729  -3.396   1.096  0.00  0.00    +0.000 A 
ATOM     19  C   UNL     1      -5.423  -3.536  -0.091  0.00  0.00    +0.000 A 
ATOM     20  C   UNL     1      -4.821  -3.197  -1.288  0.00  0.00    +0.000 A 
ATOM     21  C   UNL     1      -3.525  -2.714  -1.297  0.00  0.00    +0.003 A 
ENDBRANCH  15  16
ENDBRANCH  14  15
ENDBRANCH  13  14
ENDBRANCH   8  13
ENDBRANCH   1   9
BRANCH   5  22
ATOM     22  C   UNL     1       6.446  -1.577   3.054  0.00  0.00    +0.022 C 
BRANCH  22  23
ATOM     23  C   UNL     1       7.182  -1.951   4.314  0.00  0.00    +0.211 A 
ATOM     24  N   UNL     1       7.540  -3.156   4.657  0.00  0.00    -0.193 NA
ATOM     25  C   UNL     1       8.178  -3.128   5.841  0.00  0.00    +0.202 A 
ATOM     26  N   UNL     1       8.228  -1.887   6.260  0.00  0.00    -0.056 NA
ATOM     27  O   UNL     1       7.585  -1.101   5.268  0.00  0.00    -0.340 OA
BRANCH  25  28
ATOM     28  C   UNL     1       8.731  -4.305   6.555  0.00  0.00    +0.023 A 
ATOM     29  C   UNL     1       8.617  -5.577   5.998  0.00  0.00    +0.013 A 
ATOM     30  C   UNL     1       9.133  -6.669   6.665  0.00  0.00    +0.016 A 
ATOM     31  C   UNL     1       9.764  -6.503   7.886  0.00  0.00    +0.018 A 
ATOM     32  C   UNL     1       9.880  -5.241   8.443  0.00  0.00    +0.016 A 
ATOM     33  C   UNL     1       9.373  -4.142   7.781  0.00  0.00    +0.013 A 
ATOM     34 BR   UNL     1      10.469  -8.003   8.795  0.00  0.00    -0.050 Br
ENDBRANCH  25  28
ENDBRANCH  22  23
ENDBRANCH   5  22
TORSDOF 8
