REMARK  Name = ZINC33597784
REMARK  12 active torsions:
REMARK  status: ('A' for Active; 'I' for Inactive)
REMARK    1  A    between atoms: C_1  and  C_2
REMARK    2  A    between atoms: C_2  and  C_3
REMARK    3  A    between atoms: C_3  and  C_4
REMARK    4  A    between atoms: C_4  and  N_5
REMARK    5  A    between atoms: C_6  and  C_35
REMARK    6  A    between atoms: C_7  and  C_25
REMARK    7  A    between atoms: C_9  and  C_10
REMARK    8  A    between atoms: C_13  and  C_15
REMARK    9  A    between atoms: C_15  and  O_16
REMARK   10  A    between atoms: O_16  and  C_17
REMARK   11  A    between atoms: N_27  and  C_28
REMARK   12  A    between atoms: C_28  and  C_29
REMARK                            x       y       z     vdW  Elec       q    Type
REMARK                         _______ _______ _______ _____ _____    ______ ____
ROOT
ATOM      1  N   UNL     1      -6.458   7.810  -0.372  0.00  0.00    -0.342 N 
ATOM      2  C   UNL     1      -5.602   7.246  -1.250  0.00  0.00    +0.028 A 
ATOM      3  C   UNL     1      -5.066   6.119  -0.667  0.00  0.00    +0.058 A 
ATOM      4  C   UNL     1      -5.631   6.017   0.632  0.00  0.00    +0.042 A 
ATOM      5  C   UNL     1      -6.479   7.066   0.781  0.00  0.00    +0.069 A 
ATOM      6  C   UNL     1      -5.288   7.760  -2.632  0.00  0.00    +0.064 C 
ENDROOT
BRANCH   5   7
ATOM      7  C   UNL     1      -7.288   7.359   1.984  0.00  0.00    +0.095 A 
ATOM      8  C   UNL     1      -8.016   8.516   2.083  0.00  0.00    +0.076 A 
ATOM      9  S   UNL     1      -8.753   8.305   3.697  0.00  0.00    -0.077 S 
ATOM     10  C   UNL     1      -8.044   6.766   4.073  0.00  0.00    +0.116 A 
ATOM     11  N   UNL     1      -7.329   6.514   3.004  0.00  0.00    -0.239 NA
BRANCH  10  12
ATOM     12  C   UNL     1      -8.208   5.930   5.316  0.00  0.00    +0.291 C 
BRANCH  12  13
ATOM     13  O   UNL     1      -7.204   6.289   6.268  0.00  0.00    -0.485 OA
BRANCH  13  14
ATOM     14  C   UNL     1      -7.211   5.624   7.453  0.00  0.00    +0.124 A 
ATOM     15  C   UNL     1      -8.168   4.650   7.697  0.00  0.00    +0.065 A 
ATOM     16  C   UNL     1      -8.171   3.972   8.902  0.00  0.00    +0.046 A 
ATOM     17  C   UNL     1      -7.226   4.271   9.868  0.00  0.00    +0.040 A 
ATOM     18  C   UNL     1      -6.274   5.246   9.628  0.00  0.00    +0.046 A 
ATOM     19  C   UNL     1      -6.265   5.923   8.423  0.00  0.00    +0.065 A 
ATOM     20 CL   UNL     1      -5.090   5.619  10.841  0.00  0.00    -0.083 Cl
ATOM     21 CL   UNL     1      -9.365   2.749   9.206  0.00  0.00    -0.083 Cl
ENDBRANCH  13  14
ENDBRANCH  12  13
ENDBRANCH  10  12
ENDBRANCH   5   7
BRANCH   3  22
ATOM     22  C   UNL     1      -4.088   5.199  -1.273  0.00  0.00    +0.246 C 
ATOM     23  O   UNL     1      -3.680   5.402  -2.401  0.00  0.00    -0.270 OA
ATOM     24  N   UNL     1      -3.645   4.133  -0.578  0.00  0.00    -0.309 N 
ATOM     25  H   UNL     1      -4.014   3.950   0.443  0.00  0.00    +0.149 HD
BRANCH  24  26
ATOM     26  C   UNL     1      -2.673   3.218  -1.180  0.00  0.00    +0.136 C 
BRANCH  26  27
ATOM     27  C   UNL     1      -2.340   2.102  -0.188  0.00  0.00    +0.135 C 
ATOM     28  C   UNL     1      -1.315   1.124  -0.803  0.00  0.00    +0.035 C 
ATOM     29  C   UNL     1      -0.405   0.737   0.385  0.00  0.00    +0.031 C 
ATOM     30  C   UNL     1      -0.985   1.528   1.579  0.00  0.00    +0.160 C 
ATOM     31  O   UNL     1      -1.679   2.645   0.976  0.00  0.00    -0.375 OA
ENDBRANCH  26  27
ENDBRANCH  24  26
ENDBRANCH   3  22
BRANCH   1  32
ATOM     32  C   UNL     1      -7.238   9.027  -0.611  0.00  0.00    +0.122 C 
BRANCH  32  33
ATOM     33  C   UNL     1      -6.495  10.231  -0.028  0.00  0.00    +0.021 C 
BRANCH  33  35
ATOM     34  C   UNL     1      -6.565  12.706   0.305  0.00  0.00    +0.004 C 
ATOM     35  C   UNL     1      -7.309  11.502  -0.277  0.00  0.00    -0.002 C 
ENDBRANCH  33  35
ENDBRANCH  32  33
ENDBRANCH   1  32
TORSDOF 10
