REMARK  Name = ZINC23116773
REMARK  9 active torsions:
REMARK  status: ('A' for Active; 'I' for Inactive)
REMARK    1  A    between atoms: C_1  and  N_2
REMARK    2  A    between atoms: N_2  and  C_3
REMARK    3  A    between atoms: N_2  and  C_4
REMARK    4  A    between atoms: C_4  and  C_6
REMARK    5  A    between atoms: C_4  and  C_29
REMARK    6  A    between atoms: C_6  and  N_7
REMARK    7  A    between atoms: C_8  and  C_10
REMARK    8  A    between atoms: N_13  and  S_16
REMARK    9  A    between atoms: S_16  and  C_19
REMARK                            x       y       z     vdW  Elec       q    Type
REMARK                         _______ _______ _______ _____ _____    ______ ____
ROOT
ATOM      1  C   UNL     1      -7.316  -4.437   1.965  0.00  0.00    +0.077 C 
ATOM      2  C   UNL     1      -7.700  -3.641   3.214  0.00  0.00    +0.030 C 
ATOM      3  C   UNL     1      -8.835  -2.671   2.869  0.00  0.00    +0.110 C 
ATOM      4  N   UNL     1      -8.418  -1.842   1.729  0.00  0.00    -0.177 NA
ATOM      5  C   UNL     1      -7.949  -2.507   0.506  0.00  0.00    +0.110 C 
ATOM      6  C   UNL     1      -6.819  -3.478   0.880  0.00  0.00    +0.030 C 
ENDROOT
BRANCH   1   8
ATOM      7  N   UNL     1      -5.723  -6.229   1.359  0.00  0.00    -0.316 N 
ATOM      8  C   UNL     1      -6.223  -5.415   2.309  0.00  0.00    +0.216 C 
ATOM      9  O   UNL     1      -5.794  -5.471   3.442  0.00  0.00    -0.276 OA
ATOM     10  H   UNL     1      -6.113  -6.179   0.331  0.00  0.00    +0.149 HD
BRANCH   7  11
ATOM     11  C   UNL     1      -4.660  -7.181   1.693  0.00  0.00    +0.096 C 
BRANCH  11  12
ATOM     12  C   UNL     1      -4.365  -8.063   0.479  0.00  0.00    +0.016 C 
BRANCH  12  13
ATOM     13  C   UNL     1      -3.382  -9.137   0.866  0.00  0.00    +0.093 A 
ATOM     14  C   UNL     1      -2.088  -9.188   0.502  0.00  0.00    +0.043 A 
ATOM     15  C   UNL     1      -1.544 -10.356   1.084  0.00  0.00    +0.041 A 
ATOM     16  C   UNL     1      -2.538 -10.949   1.769  0.00  0.00    +0.195 A 
ATOM     17  O   UNL     1      -3.647 -10.204   1.638  0.00  0.00    -0.469 OA
ENDBRANCH  12  13
BRANCH  12  19
ATOM     18  C   UNL     1      -5.364  -9.548  -1.152  0.00  0.00    -0.096 C 
ATOM     19  N   UNL     1      -5.611  -8.685   0.011  0.00  0.00    +0.384 N 
ATOM     20  C   UNL     1      -6.264  -9.434   1.092  0.00  0.00    -0.096 C 
ATOM     21  H   UNL     1      -6.293  -7.881  -0.303  0.00  0.00    -0.082 HD
ENDBRANCH  12  19
ENDBRANCH  11  12
ENDBRANCH   7  11
ENDBRANCH   1   8
BRANCH   4  22
ATOM     22  S   UNL     1      -8.482  -0.190   1.820  0.00  0.00    +0.061 S 
ATOM     23  O   UNL     1      -9.452   0.125   2.810  0.00  0.00    -0.153 OA
ATOM     24  O   UNL     1      -8.574   0.287   0.484  0.00  0.00    -0.153 OA
BRANCH  22  25
ATOM     25  C   UNL     1      -6.928   0.358   2.445  0.00  0.00    +0.106 A 
ATOM     26  C   UNL     1      -6.739   0.497   3.807  0.00  0.00    +0.029 A 
ATOM     27  C   UNL     1      -5.520   0.929   4.288  0.00  0.00    +0.006 A 
ATOM     28  C   UNL     1      -4.482   1.227   3.415  0.00  0.00    -0.044 A 
ATOM     29  C   UNL     1      -4.669   1.085   2.059  0.00  0.00    -0.042 A 
ATOM     30  C   UNL     1      -5.897   0.651   1.576  0.00  0.00    +0.032 A 
ATOM     31  C   UNL     1      -3.586   1.381   1.055  0.00  0.00    +0.035 C 
ATOM     32  C   UNL     1      -2.491   2.239   1.685  0.00  0.00    +0.005 C 
ATOM     33  C   UNL     1      -2.049   1.575   2.994  0.00  0.00    +0.005 C 
ATOM     34  C   UNL     1      -3.182   1.707   4.009  0.00  0.00    +0.035 C 
ENDBRANCH  22  25
ENDBRANCH   4  22
TORSDOF 7
