REMARK  Name = ZINC34716327
REMARK  6 active torsions:
REMARK  status: ('A' for Active; 'I' for Inactive)
REMARK    1  A    between atoms: C_1  and  C_2
REMARK    2  A    between atoms: C_4  and  C_9
REMARK    3  A    between atoms: C_12  and  C_26
REMARK    4  A    between atoms: N_19  and  C_20
REMARK    5  A    between atoms: N_28  and  C_29
REMARK    6  A    between atoms: C_29  and  C_30
REMARK                            x       y       z     vdW  Elec       q    Type
REMARK                         _______ _______ _______ _____ _____    ______ ____
ROOT
ATOM      1  C   UNL     1      -0.255  -2.652  -2.175  0.00  0.00    +0.037 C 
ATOM      2  C   UNL     1       1.185  -3.009  -2.551  0.00  0.00    +0.024 C 
ATOM      3  C   UNL     1       1.294  -3.161  -4.070  0.00  0.00    +0.093 C 
ATOM      4  C   UNL     1       0.378  -4.299  -4.532  0.00  0.00    +0.122 C 
ATOM      5  N   UNL     1      -0.984  -4.035  -4.048  0.00  0.00    -0.284 N 
ATOM      6  C   UNL     1      -1.189  -3.783  -2.615  0.00  0.00    +0.117 C 
ATOM      7  C   UNL     1      -2.027  -4.024  -4.902  0.00  0.00    +0.306 C 
ATOM      8  O   UNL     1      -1.834  -4.138  -6.098  0.00  0.00    -0.252 OA
ATOM      9  N   UNL     1      -3.282  -3.885  -4.432  0.00  0.00    -0.269 N 
ATOM     10  H   UNL     1      -3.431  -3.717  -3.488  0.00  0.00    +0.156 HD
ENDROOT
BRANCH   1  14
ATOM     11  C   UNL     1      -1.300   0.233   1.778  0.00  0.00    +0.047 C 
ATOM     12  C   UNL     1      -0.854  -1.090   1.209  0.00  0.00    -0.015 A 
ATOM     13  C   UNL     1      -0.763  -1.258  -0.160  0.00  0.00    +0.010 A 
ATOM     14  C   UNL     1      -0.353  -2.470  -0.682  0.00  0.00    -0.042 A 
ATOM     15  C   UNL     1      -0.035  -3.517   0.164  0.00  0.00    +0.007 A 
ATOM     16  C   UNL     1      -0.126  -3.351   1.533  0.00  0.00    +0.039 A 
ATOM     17  C   UNL     1      -0.530  -2.135   2.058  0.00  0.00    +0.126 A 
ATOM     18  F   UNL     1      -0.615  -1.970   3.396  0.00  0.00    -0.205 F 
ENDBRANCH   1  14
BRANCH   9  19
ATOM     19  C   UNL     1      -4.371  -3.984  -5.305  0.00  0.00    +0.035 A 
ATOM     20  C   UNL     1      -4.314  -4.844  -6.394  0.00  0.00    +0.023 A 
ATOM     21  C   UNL     1      -5.391  -4.940  -7.254  0.00  0.00    +0.002 A 
ATOM     22  C   UNL     1      -6.525  -4.181  -7.031  0.00  0.00    +0.000 A 
ATOM     23  C   UNL     1      -6.585  -3.323  -5.948  0.00  0.00    +0.002 A 
ATOM     24  C   UNL     1      -5.514  -3.227  -5.081  0.00  0.00    +0.023 A 
ENDBRANCH   9  19
BRANCH   3  25
ATOM     25  C   UNL     1       2.719  -3.480  -4.443  0.00  0.00    +0.218 C 
ATOM     26  O   UNL     1       3.565  -3.575  -3.579  0.00  0.00    -0.275 OA
ATOM     27  N   UNL     1       3.053  -3.658  -5.736  0.00  0.00    -0.311 N 
ATOM     28  H   UNL     1       2.377  -3.582  -6.427  0.00  0.00    +0.149 HD
BRANCH  27  29
ATOM     29  C   UNL     1       4.439  -3.968  -6.099  0.00  0.00    +0.139 C 
BRANCH  29  30
ATOM     30  C   UNL     1       4.545  -4.118  -7.595  0.00  0.00    -0.027 A 
ATOM     31  C   UNL     1       4.353  -5.356  -8.179  0.00  0.00    +0.009 A 
ATOM     32  C   UNL     1       4.449  -5.499  -9.550  0.00  0.00    +0.050 A 
ATOM     33  C   UNL     1       4.739  -4.401 -10.343  0.00  0.00    +0.166 A 
ATOM     34  C   UNL     1       4.932  -3.153  -9.755  0.00  0.00    +0.167 A 
ATOM     35  C   UNL     1       4.829  -3.017  -8.380  0.00  0.00    +0.054 A 
ATOM     36  O   UNL     1       5.202  -2.245 -10.737  0.00  0.00    -0.453 OA
ATOM     37  C   UNL     1       5.574  -3.023 -11.889  0.00  0.00    +0.466 C 
ATOM     38  O   UNL     1       4.887  -4.273 -11.694  0.00  0.00    -0.453 OA
ENDBRANCH  29  30
ENDBRANCH  27  29
ENDBRANCH   3  25
TORSDOF 5
