REMARK  Name = ZINC17113228
REMARK  5 active torsions:
REMARK  status: ('A' for Active; 'I' for Inactive)
REMARK    1  A    between atoms: C_1  and  C_2
REMARK    2  A    between atoms: C_2  and  C_3
REMARK    3  A    between atoms: C_3  and  C_19
REMARK    4  A    between atoms: C_12  and  S_14
REMARK    5  A    between atoms: S_14  and  C_15
REMARK                            x       y       z     vdW  Elec       q    Type
REMARK                         _______ _______ _______ _____ _____    ______ ____
ROOT
ATOM      1  C   UNL     1      -1.433  -0.534   0.013  0.00  0.00    +0.018 C 
ATOM      2  C   UNL     1      -1.419  -2.051  -0.100  0.00  0.00    +0.054 C 
ATOM      3  C   UNL     1      -2.811  -2.652   0.049  0.00  0.00    -0.021 A 
ATOM      4  C   UNL     1      -3.845  -2.046   0.662  0.00  0.00    +0.006 A 
ATOM      5  S   UNL     1      -5.200  -3.201   0.547  0.00  0.00    -0.074 S 
ATOM      6  C   UNL     1      -4.374  -4.484  -0.329  0.00  0.00    +0.092 A 
ATOM      7  C   UNL     1      -3.080  -3.981  -0.501  0.00  0.00    +0.075 A 
ATOM      8  C   UNL     1      -2.113  -4.846  -1.222  0.00  0.00    +0.282 A 
ATOM      9  N   UNL     1      -2.585  -6.034  -1.640  0.00  0.00    -0.185 NA
ATOM     10  C   UNL     1      -3.816  -6.449  -1.445  0.00  0.00    +0.171 A 
ATOM     11  N   UNL     1      -4.764  -5.705  -0.788  0.00  0.00    -0.328 N 
ATOM     12  O   UNL     1      -0.960  -4.500  -1.425  0.00  0.00    -0.265 OA
ATOM     13  C   UNL     1      -3.933  -0.695   1.315  0.00  0.00    +0.112 C 
ATOM     14  S   UNL     1      -2.242  -0.073   1.577  0.00  0.00    -0.149 S 
ATOM     15  C   UNL     1      -2.210   0.065  -1.162  0.00  0.00    +0.023 C 
ATOM     16  H   UNL     1      -5.668  -6.034  -0.657  0.00  0.00    +0.168 HD
ENDROOT
BRANCH   1  18
ATOM     17  C   UNL     1      -0.019   1.526   0.010  0.00  0.00    +0.005 C 
ATOM     18  C   UNL     1       0.002  -0.004   0.002  0.00  0.00    +0.014 C 
ENDBRANCH   1  18
BRANCH  10  19
ATOM     19  S   UNL     1      -4.273  -8.036  -2.059  0.00  0.00    -0.091 S 
ATOM     20  C   UNL     1      -2.757  -8.658  -2.839  0.00  0.00    +0.093 C 
ENDBRANCH  10  19
TORSDOF 2
