REMARK  Name = ZINC26786693
REMARK  6 active torsions:
REMARK  status: ('A' for Active; 'I' for Inactive)
REMARK    1  A    between atoms: C_3  and  N_33
REMARK    2  A    between atoms: C_6  and  C_7
REMARK    3  A    between atoms: N_9  and  N_10
REMARK    4  A    between atoms: N_10  and  C_11
REMARK    5  A    between atoms: N_14  and  S_15
REMARK    6  A    between atoms: S_15  and  C_18
REMARK                            x       y       z     vdW  Elec       q    Type
REMARK                         _______ _______ _______ _____ _____    ______ ____
ROOT
ATOM      1  C   UNL     1      -6.379   7.521   0.201  0.00  0.00    +0.094 C 
ATOM      2  C   UNL     1      -5.196   8.169   0.122  0.00  0.00    +0.058 C 
ATOM      3  C   UNL     1      -5.167   9.636   0.152  0.00  0.00    +0.091 C 
ATOM      4  N   UNL     1      -4.024  10.265   0.077  0.00  0.00    -0.129 NA
ATOM      5  C   UNL     1      -6.426  10.408   0.268  0.00  0.00    -0.010 C 
ATOM      6  C   UNL     1      -7.598   9.765   0.347  0.00  0.00    +0.010 C 
ATOM      7  C   UNL     1      -7.630   8.293   0.312  0.00  0.00    +0.205 C 
ATOM      8  O   UNL     1      -8.696   7.710   0.380  0.00  0.00    -0.286 OA
ATOM      9  C   UNL     1      -8.900  10.507   0.466  0.00  0.00    +0.066 C 
ATOM     10  C   UNL     1      -8.698  11.892   0.995  0.00  0.00    -0.026 C 
ATOM     11  C   UNL     1      -7.563  12.516   0.918  0.00  0.00    -0.026 C 
ATOM     12  C   UNL     1      -6.345  11.910   0.293  0.00  0.00    +0.064 C 
ENDROOT
BRANCH   4  13
ATOM     13  S   UNL     1      -3.921  11.702  -0.738  0.00  0.00    +0.099 S 
ATOM     14  O   UNL     1      -4.905  11.659  -1.763  0.00  0.00    -0.146 OA
ATOM     15  O   UNL     1      -3.891  12.727   0.246  0.00  0.00    -0.146 OA
BRANCH  13  16
ATOM     16  C   UNL     1      -2.355  11.733  -1.545  0.00  0.00    +0.113 A 
ATOM     17  C   UNL     1      -1.255  12.264  -0.898  0.00  0.00    +0.030 A 
ATOM     18  C   UNL     1      -0.025  12.283  -1.528  0.00  0.00    +0.022 A 
ATOM     19  C   UNL     1       0.103  11.781  -2.811  0.00  0.00    +0.041 A 
ATOM     20  C   UNL     1      -1.000  11.255  -3.461  0.00  0.00    +0.022 A 
ATOM     21  C   UNL     1      -2.228  11.232  -2.827  0.00  0.00    +0.030 A 
ATOM     22 CL   UNL     1       1.645  11.812  -3.606  0.00  0.00    -0.084 Cl
ENDBRANCH  13  16
ENDBRANCH   4  13
BRANCH   1  23
ATOM     23  N   UNL     1      -6.417   6.133   0.173  0.00  0.00    -0.261 N 
ATOM     24  H   UNL     1      -7.381   5.607   0.237  0.00  0.00    +0.170 HD
BRANCH  23  27
ATOM     25  C   UNL     1      -5.263   4.055   0.034  0.00  0.00    +0.260 C 
ATOM     26  O   UNL     1      -6.329   3.474   0.105  0.00  0.00    -0.269 OA
ATOM     27  N   UNL     1      -5.227   5.402   0.062  0.00  0.00    -0.232 N 
ATOM     28  H   UNL     1      -4.263   5.927  -0.003  0.00  0.00    +0.173 HD
BRANCH  25  34
ATOM     29  C   UNL     1      -4.042   1.889  -0.112  0.00  0.00    +0.015 A 
ATOM     30  C   UNL     1      -2.866   1.175  -0.222  0.00  0.00    +0.033 A 
ATOM     31  C   UNL     1      -1.655   1.839  -0.304  0.00  0.00    +0.126 A 
ATOM     32  C   UNL     1      -1.614   3.221  -0.270  0.00  0.00    +0.033 A 
ATOM     33  C   UNL     1      -2.782   3.947  -0.166  0.00  0.00    +0.015 A 
ATOM     34  C   UNL     1      -4.007   3.284  -0.083  0.00  0.00    +0.038 A 
BRANCH  31  35
ATOM     35  N   UNL     1      -0.398   1.067  -0.421  0.00  0.00    +0.056 N 
ATOM     36  O   UNL     1      -0.431  -0.150  -0.447  0.00  0.00    -0.126 OA
ATOM     37  O   UNL     1       0.669   1.649  -0.498  0.00  0.00    -0.126 OA
ENDBRANCH  31  35
ENDBRANCH  25  34
ENDBRANCH  23  27
ENDBRANCH   1  23
TORSDOF 6
