REMARK  Name = ZINC26779855
REMARK  4 active torsions:
REMARK  status: ('A' for Active; 'I' for Inactive)
REMARK    1  A    between atoms: C_1  and  O_2
REMARK    2  A    between atoms: O_2  and  C_3
REMARK    3  A    between atoms: C_6  and  C_9
REMARK    4  A    between atoms: C_9  and  C_21
REMARK                            x       y       z     vdW  Elec       q    Type
REMARK                         _______ _______ _______ _____ _____    ______ ____
ROOT
ATOM      1  C   UNL     1       2.433   4.135   0.002  0.00  0.00    +0.251 C 
ATOM      2  N   UNL     1       3.680   3.354  -0.014  0.00  0.00    -0.264 N 
ATOM      3  C   UNL     1       3.591   2.011  -0.021  0.00  0.00    +0.314 C 
ATOM      4  O   UNL     1       4.610   1.349  -0.033  0.00  0.00    -0.252 OA
ATOM      5  N   UNL     1       2.401   1.381  -0.013  0.00  0.00    -0.214 N 
ATOM      6  C   UNL     1       2.393   0.005  -0.020  0.00  0.00    +0.106 C 
ATOM      7  C   UNL     1       1.236  -0.683  -0.013  0.00  0.00    +0.056 C 
ATOM      8  C   UNL     1       0.002  -0.004   0.002  0.00  0.00    +0.024 C 
ATOM      9  C   UNL     1      -0.016   1.352   0.009  0.00  0.00    +0.045 C 
ATOM     10  C   UNL     1       1.208   2.068   0.002  0.00  0.00    +0.131 C 
ATOM     11  N   UNL     1       1.169   3.384   0.009  0.00  0.00    -0.229 NA
ATOM     12 CL   UNL     1       1.265  -2.418  -0.023  0.00  0.00    -0.082 Cl
ATOM     13  H   UNL     1       4.652   3.870  -0.020  0.00  0.00    +0.153 HD
ENDROOT
BRANCH   1  17
ATOM     14  C   UNL     1       2.429   6.673  -3.437  0.00  0.00    +0.120 A 
ATOM     15  C   UNL     1       1.230   6.210  -2.913  0.00  0.00    +0.046 A 
ATOM     16  C   UNL     1       1.234   5.390  -1.802  0.00  0.00    +0.011 A 
ATOM     17  C   UNL     1       2.431   5.030  -1.211  0.00  0.00    +0.007 A 
ATOM     18  C   UNL     1       3.627   5.495  -1.727  0.00  0.00    +0.011 A 
ATOM     19  C   UNL     1       3.628   6.311  -2.842  0.00  0.00    +0.046 A 
BRANCH  14  21
ATOM     20  C   UNL     1       3.698   7.918  -5.014  0.00  0.00    +0.277 C 
ATOM     21  O   UNL     1       2.427   7.480  -4.530  0.00  0.00    -0.495 OA
ENDBRANCH  14  21
ENDBRANCH   1  17
BRANCH   1  22
ATOM     22  C   UNL     1       2.454   5.031   1.242  0.00  0.00    +0.436 C 
ATOM     23  F   UNL     1       3.560   5.886   1.180  0.00  0.00    -0.166 F 
ATOM     24  F   UNL     1       1.280   5.790   1.289  0.00  0.00    -0.166 F 
ATOM     25  F   UNL     1       2.543   4.237   2.390  0.00  0.00    -0.166 F 
ENDBRANCH   1  22
TORSDOF 3
