REMARK  Name = ZINC00647116
REMARK  11 active torsions:
REMARK  status: ('A' for Active; 'I' for Inactive)
REMARK    1  A    between atoms: C_1  and  C_2
REMARK    2  A    between atoms: C_2  and  C_3
REMARK    3  A    between atoms: C_3  and  C_4
REMARK    4  A    between atoms: C_5  and  C_22
REMARK    5  A    between atoms: C_6  and  C_12
REMARK    6  A    between atoms: C_14  and  O_20
REMARK    7  A    between atoms: C_15  and  O_19
REMARK    8  A    between atoms: O_20  and  C_21
REMARK    9  A    between atoms: C_22  and  O_24
REMARK   10  A    between atoms: O_24  and  C_25
REMARK   11  A    between atoms: C_25  and  C_26
REMARK                            x       y       z     vdW  Elec       q    Type
REMARK                         _______ _______ _______ _____ _____    ______ ____
ROOT
ATOM      1  C   UNL     1       1.083  -1.971  -1.393  0.00  0.00    +0.024 C 
ATOM      2  C   UNL     1      -0.041  -2.517  -1.905  0.00  0.00    +0.078 C 
ATOM      3  C   UNL     1      -0.203  -4.020  -1.806  0.00  0.00    +0.144 C 
ATOM      4  N   UNL     1       0.886  -4.767  -1.155  0.00  0.00    -0.288 N 
ATOM      5  C   UNL     1       1.948  -4.079  -0.691  0.00  0.00    +0.304 C 
ATOM      6  O   UNL     1       2.852  -4.687  -0.152  0.00  0.00    -0.252 OA
ATOM      7  N   UNL     1       2.042  -2.749  -0.811  0.00  0.00    -0.273 N 
ATOM      8  H   UNL     1       0.839  -5.731  -1.061  0.00  0.00    +0.151 HD
ATOM      9  H   UNL     1       2.835  -2.313  -0.460  0.00  0.00    +0.156 HD
ENDROOT
BRANCH   3  10
ATOM     10  C   UNL     1      -1.476  -4.301  -1.050  0.00  0.00    -0.018 A 
ATOM     11  C   UNL     1      -2.595  -4.753  -1.726  0.00  0.00    +0.055 A 
ATOM     12  C   UNL     1      -3.766  -5.011  -1.032  0.00  0.00    +0.163 A 
ATOM     13  C   UNL     1      -3.813  -4.816   0.345  0.00  0.00    +0.173 A 
ATOM     14  C   UNL     1      -2.688  -4.364   1.017  0.00  0.00    +0.063 A 
ATOM     15  C   UNL     1      -1.521  -4.112   0.319  0.00  0.00    +0.025 A 
ATOM     16 BR   UNL     1      -2.748  -4.098   2.888  0.00  0.00    -0.046 Br
BRANCH  13  17
ATOM     17  O   UNL     1      -4.961  -5.069   1.030  0.00  0.00    -0.503 OA
ATOM     18  H   UNL     1      -5.033  -5.977   1.355  0.00  0.00    +0.292 HD
ENDBRANCH  13  17
BRANCH  12  19
ATOM     19  O   UNL     1      -4.867  -5.455  -1.696  0.00  0.00    -0.491 OA
ATOM     20  C   UNL     1      -4.782  -5.523  -3.121  0.00  0.00    +0.277 C 
ENDBRANCH  12  19
ENDBRANCH   3  10
BRANCH   2  21
ATOM     21  C   UNL     1      -1.033  -1.712  -2.514  0.00  0.00    +0.339 C 
ATOM     22  O   UNL     1      -1.108  -1.652  -3.727  0.00  0.00    -0.245 OA
BRANCH  21  23
ATOM     23  O   UNL     1      -1.896  -1.012  -1.748  0.00  0.00    -0.462 OA
BRANCH  23  24
ATOM     24  C   UNL     1      -2.942  -0.311  -2.425  0.00  0.00    +0.229 C 
ATOM     25  C   UNL     1      -3.742   0.512  -1.414  0.00  0.00    +0.048 C 
ENDBRANCH  23  24
ENDBRANCH  21  23
ENDBRANCH   2  21
BRANCH   1  26
ATOM     26  C   UNL     1       1.284  -0.479  -1.470  0.00  0.00    +0.051 C 
BRANCH  26  28
ATOM     27  C   UNL     1       1.029   1.680  -0.240  0.00  0.00    +0.004 C 
ATOM     28  C   UNL     1       0.825   0.166  -0.161  0.00  0.00    +0.002 C 
ENDBRANCH  26  28
ENDBRANCH   1  26
TORSDOF 8
