REMARK  Name = ZINC35033580
REMARK  16 active torsions:
REMARK  status: ('A' for Active; 'I' for Inactive)
REMARK    1  A    between atoms: C_1  and  C_2
REMARK    2  A    between atoms: C_2  and  N_3
REMARK    3  A    between atoms: C_13  and  C_14
REMARK    4  A    between atoms: C_14  and  C_16
REMARK    5  A    between atoms: C_14  and  N_17
REMARK    6  A    between atoms: N_17  and  C_18
REMARK    7  A    between atoms: N_17  and  S_23
REMARK    8  A    between atoms: C_18  and  C_19
REMARK    9  A    between atoms: C_19  and  N_20
REMARK   10  A    between atoms: N_20  and  C_21
REMARK   11  A    between atoms: N_20  and  C_22
REMARK   12  A    between atoms: S_23  and  C_26
REMARK   13  A    between atoms: C_29  and  C_32
REMARK   14  A    between atoms: C_32  and  C_33
REMARK   15  A    between atoms: C_32  and  C_34
REMARK   16  A    between atoms: C_32  and  C_35
REMARK                            x       y       z     vdW  Elec       q    Type
REMARK                         _______ _______ _______ _____ _____    ______ ____
ROOT
ATOM      1  N   UNL     1       3.919  -0.780  -0.053  0.00  0.00    -0.168 NA
ENDROOT
BRANCH   1   2
ATOM      2  S   UNL     1       5.150   0.214   0.438  0.00  0.00    +0.061 S 
ATOM      3  O   UNL     1       6.302  -0.173  -0.298  0.00  0.00    -0.153 OA
ATOM      4  O   UNL     1       4.638   1.539   0.410  0.00  0.00    -0.153 OA
BRANCH   2   5
ATOM      5  C   UNL     1       5.481  -0.162   2.127  0.00  0.00    +0.106 A 
ATOM      6  C   UNL     1       4.807   0.509   3.130  0.00  0.00    +0.029 A 
ATOM      7  C   UNL     1       5.067   0.214   4.455  0.00  0.00    +0.006 A 
ATOM      8  C   UNL     1       6.001  -0.753   4.777  0.00  0.00    -0.042 A 
ATOM      9  C   UNL     1       6.675  -1.425   3.775  0.00  0.00    +0.006 A 
ATOM     10  C   UNL     1       6.411  -1.133   2.449  0.00  0.00    +0.029 A 
BRANCH   8  11
ATOM     11  C   UNL     1       6.285  -1.074   6.222  0.00  0.00    -0.013 C 
ATOM     12  C   UNL     1       5.002  -1.560   6.899  0.00  0.00    +0.015 C 
ATOM     13  C   UNL     1       7.349  -2.170   6.301  0.00  0.00    +0.015 C 
ATOM     14  C   UNL     1       6.793   0.182   6.933  0.00  0.00    +0.015 C 
ENDBRANCH   8  11
ENDBRANCH   2   5
ENDBRANCH   1   2
BRANCH   1  15
ATOM     15  C   UNL     1       2.535  -0.301  -0.024  0.00  0.00    +0.143 C 
ATOM     16  C   UNL     1       1.745  -1.087   1.024  0.00  0.00    +0.034 C 
BRANCH  15  27
ATOM     17  N   UNL     1       2.217   0.381  -2.368  0.00  0.00    -0.295 N 
ATOM     18  C   UNL     1       1.683   0.244  -3.604  0.00  0.00    +0.262 A 
ATOM     19  O   UNL     1       1.957   1.021  -4.500  0.00  0.00    -0.267 OA
ATOM     20  C   UNL     1       0.761  -0.880  -3.823  0.00  0.00    +0.065 A 
ATOM     21  C   UNL     1       0.159  -1.109  -5.058  0.00  0.00    +0.017 A 
ATOM     22  C   UNL     1      -0.692  -2.170  -5.209  0.00  0.00    +0.021 A 
ATOM     23  C   UNL     1      -0.961  -3.020  -4.144  0.00  0.00    +0.043 A 
ATOM     24  C   UNL     1      -0.378  -2.815  -2.912  0.00  0.00    +0.048 A 
ATOM     25  C   UNL     1       0.494  -1.739  -2.734  0.00  0.00    +0.080 A 
ATOM     26  N   UNL     1       1.092  -1.496  -1.541  0.00  0.00    -0.232 NA
ATOM     27  C   UNL     1       1.907  -0.498  -1.379  0.00  0.00    +0.132 A 
ATOM     28 CL   UNL     1      -2.046  -4.357  -4.367  0.00  0.00    -0.083 Cl
BRANCH  17  30
ATOM     29  C   UNL     1       4.551   1.090  -2.545  0.00  0.00    +0.027 C 
ATOM     30  C   UNL     1       3.142   1.483  -2.095  0.00  0.00    +0.123 C 
ENDBRANCH  17  30
ENDBRANCH  15  27
ENDBRANCH   1  15
BRANCH   1  31
ATOM     31  C   UNL     1       4.215  -2.138  -0.516  0.00  0.00    +0.092 C 
BRANCH  31  32
ATOM     32  C   UNL     1       4.368  -2.136  -2.038  0.00  0.00    -0.062 C 
BRANCH  32  33
ATOM     33  N   UNL     1       4.534  -3.515  -2.516  0.00  0.00    +0.377 N 
ATOM     34  C   UNL     1       4.561  -3.525  -3.984  0.00  0.00    -0.097 C 
ATOM     35  C   UNL     1       5.795  -4.063  -1.999  0.00  0.00    -0.097 C 
ATOM     36  H   UNL     1       3.764  -4.079  -2.190  0.00  0.00    -0.083 HD
ENDBRANCH  32  33
ENDBRANCH  31  32
ENDBRANCH   1  31
TORSDOF 9
