REMARK  Name = ZINC67463536
REMARK  6 active torsions:
REMARK  status: ('A' for Active; 'I' for Inactive)
REMARK    1  A    between atoms: C_5  and  C_6
REMARK    2  A    between atoms: C_8  and  C_11
REMARK    3  A    between atoms: N_13  and  N_14
REMARK    4  A    between atoms: N_14  and  C_15
REMARK    5  A    between atoms: C_15  and  N_17
REMARK    6  A    between atoms: N_17  and  C_18
REMARK                            x       y       z     vdW  Elec       q    Type
REMARK                         _______ _______ _______ _____ _____    ______ ____
ROOT
ATOM      1  C   UNL     1      -2.306  -4.387   0.010  0.00  0.00    +0.279 C 
ATOM      2  O   UNL     1      -3.374  -4.970   0.015  0.00  0.00    -0.267 OA
ATOM      3  N   UNL     1      -1.155  -5.089   0.002  0.00  0.00    -0.230 N 
ATOM      4  H   UNL     1      -0.304  -4.624  -0.002  0.00  0.00    +0.173 HD
ENDROOT
BRANCH   1   7
ATOM      5  C   UNL     1      -1.128  -0.946   0.008  0.00  0.00    +0.116 A 
ATOM      6  N   UNL     1      -1.111  -2.270   0.006  0.00  0.00    -0.234 NA
ATOM      7  C   UNL     1      -2.271  -2.915   0.012  0.00  0.00    +0.135 A 
ATOM      8  C   UNL     1      -3.434  -2.193   0.020  0.00  0.00    +0.080 A 
ATOM      9  S   UNL     1      -2.879  -0.604   0.027  0.00  0.00    -0.074 S 
BRANCH   5  14
ATOM     10  C   UNL     1      -0.017   1.368   0.010  0.00  0.00    +0.019 A 
ATOM     11  C   UNL     1       1.181   2.045   0.002  0.00  0.00    +0.028 A 
ATOM     12  C   UNL     1       2.342   1.337  -0.013  0.00  0.00    +0.079 A 
ATOM     13  S   UNL     1       1.754  -0.348  -0.017  0.00  0.00    -0.075 S 
ATOM     14  C   UNL     1       0.002  -0.004   0.002  0.00  0.00    +0.046 A 
ATOM     15 CL   UNL     1       3.977   1.922  -0.026  0.00  0.00    -0.076 Cl
ENDBRANCH   5  14
ENDBRANCH   1   7
BRANCH   3  16
ATOM     16  N   UNL     1      -1.189  -6.489  -0.000  0.00  0.00    -0.246 N 
ATOM     17  H   UNL     1      -2.040  -6.954   0.004  0.00  0.00    +0.172 HD
BRANCH  16  18
ATOM     18  C   UNL     1      -0.038  -7.191  -0.008  0.00  0.00    +0.147 C 
ATOM     19  S   UNL     1      -0.079  -8.902  -0.011  0.00  0.00    -0.017 S 
BRANCH  18  20
ATOM     20  N   UNL     1       1.145  -6.545  -0.014  0.00  0.00    -0.323 N 
ATOM     21  H   UNL     1       1.168  -5.575  -0.013  0.00  0.00    +0.148 HD
BRANCH  20  22
ATOM     22  C   UNL     1       2.396  -7.308  -0.023  0.00  0.00    +0.072 C 
ATOM     23  C   UNL     1       2.827  -7.632   1.423  0.00  0.00    +0.022 C 
ATOM     24  C   UNL     1       4.371  -7.511   1.395  0.00  0.00    +0.002 C 
ATOM     25  C   UNL     1       4.602  -6.302   0.453  0.00  0.00    +0.002 C 
ATOM     26  C   UNL     1       3.524  -6.462  -0.639  0.00  0.00    +0.022 C 
ENDBRANCH  20  22
ENDBRANCH  18  20
ENDBRANCH  16  18
ENDBRANCH   3  16
TORSDOF 6
