REMARK  Name = ZINC62933512
REMARK  5 active torsions:
REMARK  status: ('A' for Active; 'I' for Inactive)
REMARK    1  A    between atoms: C_1  and  C_2
REMARK    2  A    between atoms: C_2  and  C_4
REMARK    3  A    between atoms: C_2  and  N_11
REMARK    4  A    between atoms: C_17  and  C_19
REMARK    5  A    between atoms: C_17  and  C_20
REMARK                            x       y       z     vdW  Elec       q    Type
REMARK                         _______ _______ _______ _____ _____    ______ ____
ROOT
ATOM      1  N   UNL     1       0.688  -0.476  -1.203  0.00  0.00    -0.293 N 
ATOM      2  C   UNL     1       0.006  -0.608  -2.358  0.00  0.00    +0.303 C 
ATOM      3  O   UNL     1      -1.178  -0.335  -2.400  0.00  0.00    -0.253 OA
ATOM      4  N   UNL     1       0.637  -1.043  -3.467  0.00  0.00    -0.285 N 
ATOM      5  C   UNL     1       2.063  -1.423  -3.591  0.00  0.00    +0.110 C 
ATOM      6  C   UNL     1       2.462  -0.860  -4.978  0.00  0.00    +0.038 C 
ATOM      7  C   UNL     1       1.194  -1.106  -5.827  0.00  0.00    +0.086 C 
ATOM      8  C   UNL     1       0.047  -1.243  -4.804  0.00  0.00    +0.127 C 
ATOM      9  C   UNL     1       1.337  -2.398  -6.634  0.00  0.00    +0.024 C 
ATOM     10  H   UNL     1       1.632  -0.695  -1.170  0.00  0.00    +0.151 HD
ENDROOT
BRANCH   7  11
ATOM     11  C   UNL     1       0.944   0.062  -6.746  0.00  0.00    +0.363 C 
ATOM     12  O   UNL     1       0.393  -0.114  -7.819  0.00  0.00    -0.246 OA
ATOM     13  O   UNL     1       1.292   1.183  -6.416  0.00  0.00    -0.246 OA
ENDBRANCH   7  11
BRANCH   1  15
ATOM     14  C   UNL     1      -0.019   1.526   0.010  0.00  0.00    +0.033 C 
ATOM     15  C   UNL     1       0.002  -0.004   0.002  0.00  0.00    +0.104 C 
BRANCH  15  16
ATOM     16  C   UNL     1       0.731  -0.503   1.223  0.00  0.00    +0.008 A 
ATOM     17  C   UNL     1       2.077  -0.808   1.148  0.00  0.00    +0.008 A 
ATOM     18  C   UNL     1       2.746  -1.266   2.268  0.00  0.00    +0.000 A 
ATOM     19  C   UNL     1       2.069  -1.420   3.464  0.00  0.00    +0.003 A 
ATOM     20  C   UNL     1       0.724  -1.115   3.541  0.00  0.00    +0.039 A 
ATOM     21  C   UNL     1       0.054  -0.651   2.421  0.00  0.00    +0.128 A 
ATOM     22  F   UNL     1      -1.261  -0.349   2.497  0.00  0.00    -0.205 F 
ENDBRANCH  15  16
ENDBRANCH   1  15
TORSDOF 3
