REMARK  Name = ZINC06135196
REMARK  10 active torsions:
REMARK  status: ('A' for Active; 'I' for Inactive)
REMARK    1  A    between atoms: C_1  and  C_2
REMARK    2  A    between atoms: C_2  and  C_3
REMARK    3  A    between atoms: C_10  and  C_15
REMARK    4  A    between atoms: C_15  and  C_17
REMARK    5  A    between atoms: C_15  and  N_75
REMARK    6  A    between atoms: N_21  and  C_22
REMARK    7  A    between atoms: C_28  and  C_29
REMARK    8  A    between atoms: C_28  and  N_75
REMARK    9  A    between atoms: C_35  and  C_36
REMARK   10  A    between atoms: C_35  and  N_75
REMARK                            x       y       z     vdW  Elec       q    Type
REMARK                         _______ _______ _______ _____ _____    ______ ____
ROOT
ATOM      1  C   UNL     1       5.333  -0.499  -1.847  0.00  0.00    +0.040 C 
ENDROOT
BRANCH   1   9
ATOM      2  C   UNL     1       7.757  -4.124  -6.237  0.00  0.00    -0.047 A 
ATOM      3  C   UNL     1       7.227  -3.433  -7.319  0.00  0.00    +0.005 A 
ATOM      4  C   UNL     1       6.441  -2.319  -7.125  0.00  0.00    +0.026 A 
ATOM      5  C   UNL     1       6.174  -1.878  -5.832  0.00  0.00    +0.049 A 
ATOM      6  C   UNL     1       6.712  -2.581  -4.738  0.00  0.00    -0.001 A 
ATOM      7  C   UNL     1       7.508  -3.710  -4.959  0.00  0.00    +0.013 A 
ATOM      8  C   UNL     1       6.425  -2.110  -3.382  0.00  0.00    +0.017 A 
ATOM      9  C   UNL     1       5.648  -1.010  -3.229  0.00  0.00    +0.011 A 
ATOM     10  C   UNL     1       5.128  -0.345  -4.360  0.00  0.00    +0.251 A 
ATOM     11  O   UNL     1       4.427   0.640  -4.200  0.00  0.00    -0.268 OA
ATOM     12  N   UNL     1       5.390  -0.766  -5.610  0.00  0.00    -0.322 N 
ATOM     13  H   UNL     1       5.012  -0.266  -6.388  0.00  0.00    +0.169 HD
BRANCH   2  15
ATOM     14  C   UNL     1       7.729  -6.588  -6.513  0.00  0.00    +0.009 C 
ATOM     15  C   UNL     1       8.614  -5.341  -6.474  0.00  0.00    +0.032 C 
ENDBRANCH   2  15
ENDBRANCH   1   9
BRANCH   1  16
ATOM     16  C   UNL     1       5.997   0.838  -1.642  0.00  0.00    +0.143 A 
ATOM     17  N   UNL     1       5.617   1.986  -2.148  0.00  0.00    -0.115 NA
ATOM     18  N   UNL     1       6.439   2.891  -1.742  0.00  0.00    -0.023 NA
ATOM     19  N   UNL     1       7.333   2.350  -0.990  0.00  0.00    -0.044 NA
ATOM     20  N   UNL     1       7.092   1.086  -0.900  0.00  0.00    -0.227 N 
BRANCH  20  21
ATOM     21  C   UNL     1       7.866   0.105  -0.136  0.00  0.00    +0.111 C 
ATOM     22  C   UNL     1       7.860   0.491   1.345  0.00  0.00    +0.027 C 
ATOM     23  C   UNL     1       8.669  -0.534   2.142  0.00  0.00    +0.002 C 
ATOM     24  C   UNL     1      10.109  -0.560   1.627  0.00  0.00    +0.000 C 
ATOM     25  C   UNL     1      10.115  -0.946   0.147  0.00  0.00    +0.002 C 
ATOM     26  C   UNL     1       9.306   0.079  -0.651  0.00  0.00    +0.027 C 
ENDBRANCH  20  21
ENDBRANCH   1  16
BRANCH   1  27
ATOM     27  N   UNL     1       3.869  -0.339  -1.723  0.00  0.00    +0.395 N 
ATOM     28  H   UNL     1       3.507   0.097  -2.580  0.00  0.00    -0.079 HD
BRANCH  27  29
ATOM     29  C   UNL     1       3.551   0.531  -0.571  0.00  0.00    -0.041 C 
BRANCH  29  30
ATOM     30  C   UNL     1       2.080   0.856  -0.598  0.00  0.00    -0.064 A 
ATOM     31  C   UNL     1       1.181   0.048   0.073  0.00  0.00    +0.002 A 
ATOM     32  C   UNL     1      -0.168   0.346   0.048  0.00  0.00    +0.000 A 
ATOM     33  C   UNL     1      -0.619   1.452  -0.648  0.00  0.00    +0.000 A 
ATOM     34  C   UNL     1       0.279   2.260  -1.319  0.00  0.00    +0.000 A 
ATOM     35  C   UNL     1       1.629   1.962  -1.294  0.00  0.00    +0.002 A 
ENDBRANCH  29  30
ENDBRANCH  27  29
BRANCH  27  36
ATOM     36  C   UNL     1       3.229  -1.660  -1.549  0.00  0.00    -0.040 C 
BRANCH  36  37
ATOM     37  C   UNL     1       3.201  -2.363  -2.882  0.00  0.00    -0.046 A 
ATOM     38  C   UNL     1       2.414  -1.877  -3.916  0.00  0.00    +0.005 A 
ATOM     39  C   UNL     1       2.424  -2.553  -5.126  0.00  0.00    +0.020 A 
ATOM     40  C   UNL     1       3.204  -3.686  -5.258  0.00  0.00    +0.111 A 
ATOM     41  N   UNL     1       3.936  -4.122  -4.252  0.00  0.00    -0.263 NA
ATOM     42  C   UNL     1       3.955  -3.502  -3.088  0.00  0.00    +0.112 A 
ENDBRANCH  36  37
ENDBRANCH  27  36
ENDBRANCH   1  27
TORSDOF 9
