REMARK  Name = ZINC33498242
REMARK  17 active torsions:
REMARK  status: ('A' for Active; 'I' for Inactive)
REMARK    1  A    between atoms: C_1  and  C_2
REMARK    2  A    between atoms: C_2  and  C_3
REMARK    3  A    between atoms: C_3  and  C_4
REMARK    4  A    between atoms: C_4  and  C_5
REMARK    5  A    between atoms: C_5  and  C_7
REMARK    6  A    between atoms: C_5  and  C_9
REMARK    7  A    between atoms: C_7  and  C_8
REMARK    8  A    between atoms: C_9  and  N_10
REMARK    9  A    between atoms: C_14  and  C_15
REMARK   10  A    between atoms: C_16  and  N_27
REMARK   11  A    between atoms: C_19  and  C_26
REMARK   12  A    between atoms: N_27  and  C_28
REMARK   13  A    between atoms: C_28  and  C_29
REMARK   14  A    between atoms: C_29  and  O_30
REMARK   15  A    between atoms: O_30  and  C_31
REMARK   16  A    between atoms: C_31  and  C_32
REMARK   17  A    between atoms: C_32  and  O_33
REMARK                            x       y       z     vdW  Elec       q    Type
REMARK                         _______ _______ _______ _____ _____    ______ ____
ROOT
ATOM      1  C   UNL     1      -0.325   2.082   2.702  0.00  0.00    +0.081 A 
ATOM      2  C   UNL     1       0.391   2.181   1.486  0.00  0.00    +0.134 A 
ATOM      3  N   UNL     1       1.591   1.627   1.388  0.00  0.00    -0.214 NA
ATOM      4  C   UNL     1       2.144   0.970   2.407  0.00  0.00    +0.145 A 
ATOM      5  C   UNL     1       3.421   0.403   2.244  0.00  0.00    -0.007 A 
ATOM      6  C   UNL     1       3.994  -0.270   3.281  0.00  0.00    +0.008 A 
ATOM      7  C   UNL     1       3.304  -0.389   4.495  0.00  0.00    +0.019 A 
ATOM      8  C   UNL     1       2.077   0.162   4.634  0.00  0.00    +0.096 A 
ATOM      9  N   UNL     1       1.495   0.839   3.604  0.00  0.00    -0.267 N 
ATOM     10  C   UNL     1       0.269   1.377   3.776  0.00  0.00    +0.267 A 
ATOM     11  O   UNL     1      -0.314   1.264   4.841  0.00  0.00    -0.267 OA
ATOM     12  C   UNL     1       4.150   0.540   0.932  0.00  0.00    +0.047 C 
ENDROOT
BRANCH   1  17
ATOM     13  N   UNL     1      -1.262   5.412   5.242  0.00  0.00    -0.255 N 
ATOM     14  C   UNL     1      -0.833   4.419   4.482  0.00  0.00    +0.258 C 
ATOM     15  O   UNL     1       0.347   4.115   4.456  0.00  0.00    -0.269 OA
ATOM     16  C   UNL     1      -1.788   3.715   3.695  0.00  0.00    +0.077 C 
ATOM     17  C   UNL     1      -1.605   2.668   2.839  0.00  0.00    +0.037 C 
ATOM     18  S   UNL     1      -3.291   4.583   4.126  0.00  0.00    -0.061 S 
ATOM     19  C   UNL     1      -2.570   5.750   5.270  0.00  0.00    +0.121 C 
ATOM     20  S   UNL     1      -3.340   6.987   6.169  0.00  0.00    -0.027 S 
BRANCH  13  21
ATOM     21  C   UNL     1      -0.305   6.157   6.064  0.00  0.00    +0.118 C 
BRANCH  21  22
ATOM     22  C   UNL     1       0.363   7.240   5.214  0.00  0.00    +0.007 C 
BRANCH  22  23
ATOM     23  C   UNL     1      -0.677   8.287   4.811  0.00  0.00    +0.002 C 
ATOM     24  C   UNL     1      -1.170   9.023   6.058  0.00  0.00    +0.004 C 
ENDBRANCH  22  23
BRANCH  22  25
ATOM     25  C   UNL     1       1.474   7.911   6.024  0.00  0.00    +0.005 C 
BRANCH  25  26
ATOM     26  C   UNL     1       2.240   8.886   5.129  0.00  0.00    +0.000 C 
BRANCH  26  28
ATOM     27  C   UNL     1       4.196  10.437   5.006  0.00  0.00    +0.004 C 
ATOM     28  C   UNL     1       3.430   9.461   5.901  0.00  0.00    -0.003 C 
ENDBRANCH  26  28
ENDBRANCH  25  26
ENDBRANCH  22  25
ENDBRANCH  21  22
ENDBRANCH  13  21
ENDBRANCH   1  17
BRANCH   2  29
ATOM     29  N   UNL     1      -0.153   2.853   0.413  0.00  0.00    -0.326 N 
ATOM     30  H   UNL     1      -1.149   3.311   0.499  0.00  0.00    +0.148 HD
BRANCH  29  31
ATOM     31  C   UNL     1       0.596   2.958  -0.842  0.00  0.00    +0.131 C 
BRANCH  31  32
ATOM     32  C   UNL     1      -0.227   3.748  -1.862  0.00  0.00    +0.178 C 
BRANCH  32  33
ATOM     33  O   UNL     1      -0.389   5.092  -1.405  0.00  0.00    -0.376 OA
BRANCH  33  34
ATOM     34  C   UNL     1      -1.147   5.919  -2.290  0.00  0.00    +0.187 C 
BRANCH  34  35
ATOM     35  C   UNL     1      -1.255   7.328  -1.703  0.00  0.00    +0.184 C 
BRANCH  35  36
ATOM     36  O   UNL     1       0.043   7.923  -1.649  0.00  0.00    -0.393 OA
ATOM     37  H   UNL     1       0.164   8.942  -1.253  0.00  0.00    +0.209 HD
ENDBRANCH  35  36
ENDBRANCH  34  35
ENDBRANCH  33  34
ENDBRANCH  32  33
ENDBRANCH  31  32
ENDBRANCH  29  31
ENDBRANCH   2  29
TORSDOF 14
