REMARK  Name = ZINC22157801
REMARK  7 active torsions:
REMARK  status: ('A' for Active; 'I' for Inactive)
REMARK    1  A    between atoms: C_1  and  C_2
REMARK    2  A    between atoms: C_8  and  N_10
REMARK    3  A    between atoms: N_10  and  S_11
REMARK    4  A    between atoms: S_11  and  C_14
REMARK    5  A    between atoms: C_16  and  C_20
REMARK    6  A    between atoms: N_17  and  C_19
REMARK    7  A    between atoms: N_22  and  N_23
REMARK                            x       y       z     vdW  Elec       q    Type
REMARK                         _______ _______ _______ _____ _____    ______ ____
ROOT
ATOM      1  C   UNL     1       0.099  -0.140  -0.014  0.00  0.00    +0.123 A 
ATOM      2  C   UNL     1      -0.095   1.245  -0.033  0.00  0.00    +0.061 A 
ATOM      3  C   UNL     1       1.154   1.829  -0.018  0.00  0.00    +0.107 A 
ATOM      4  N   UNL     1       2.085   0.816   0.010  0.00  0.00    -0.344 N 
ATOM      5  C   UNL     1       1.433  -0.372   0.012  0.00  0.00    +0.114 A 
ATOM      6  C   UNL     1       3.539   0.992   0.034  0.00  0.00    +0.149 C 
ENDROOT
BRANCH   3   7
ATOM      7  C   UNL     1       1.438   3.268  -0.029  0.00  0.00    +0.274 C 
ATOM      8  O   UNL     1       2.587   3.660  -0.118  0.00  0.00    -0.267 OA
ATOM      9  N   UNL     1       0.428   4.155   0.059  0.00  0.00    -0.248 N 
ATOM     10  H   UNL     1      -0.601   3.803   0.223  0.00  0.00    +0.169 HD
BRANCH   9  11
ATOM     11  N   UNL     1       0.681   5.493  -0.056  0.00  0.00    -0.254 NA
ATOM     12  H   UNL     1      -0.260   6.054   0.042  0.00  0.00    +0.140 HD
ATOM     13  H   UNL     1       1.378   5.803   0.737  0.00  0.00    +0.140 HD
ENDBRANCH   9  11
ENDBRANCH   3   7
BRANCH   1  14
ATOM     14  S   UNL     1      -1.168  -1.365  -0.023  0.00  0.00    +0.060 S 
ATOM     15  O   UNL     1      -0.604  -2.536   0.550  0.00  0.00    -0.153 OA
ATOM     16  O   UNL     1      -2.335  -0.746   0.500  0.00  0.00    -0.153 OA
BRANCH  14  17
ATOM     17  N   UNL     1      -1.492  -1.722  -1.607  0.00  0.00    -0.187 NA
ATOM     18  H   UNL     1      -2.413  -1.337  -2.068  0.00  0.00    +0.148 HD
BRANCH  17  25
ATOM     19  C   UNL     1      -0.376  -0.309  -3.876  0.00  0.00    +0.009 C 
ATOM     20  C   UNL     1      -0.577  -1.826  -3.873  0.00  0.00    +0.005 C 
ATOM     21  C   UNL     1       0.496  -2.484  -4.743  0.00  0.00    +0.005 C 
ATOM     22  C   UNL     1       0.295  -4.001  -4.740  0.00  0.00    +0.000 C 
ATOM     23  C   UNL     1       0.407  -4.527  -3.308  0.00  0.00    +0.002 C 
ATOM     24  C   UNL     1      -0.666  -3.869  -2.438  0.00  0.00    +0.020 C 
ATOM     25  C   UNL     1      -0.465  -2.352  -2.441  0.00  0.00    +0.079 C 
ENDBRANCH  17  25
ENDBRANCH  14  17
ENDBRANCH   1  14
TORSDOF 5
