REMARK  Name = ZINC57311737
REMARK  8 active torsions:
REMARK  status: ('A' for Active; 'I' for Inactive)
REMARK    1  A    between atoms: C_1  and  C_2
REMARK    2  A    between atoms: C_2  and  C_3
REMARK    3  A    between atoms: C_6  and  C_9
REMARK    4  A    between atoms: C_11  and  C_27
REMARK    5  A    between atoms: C_13  and  C_26
REMARK    6  A    between atoms: N_15  and  C_18
REMARK    7  A    between atoms: N_29  and  C_30
REMARK    8  A    between atoms: C_30  and  C_31
REMARK                            x       y       z     vdW  Elec       q    Type
REMARK                         _______ _______ _______ _____ _____    ______ ____
ROOT
ATOM      1  C   UNL     1       2.747  -2.478   4.488  0.00  0.00    +0.074 A 
ATOM      2  C   UNL     1       2.016  -2.825   5.628  0.00  0.00    +0.042 A 
ATOM      3  C   UNL     1       2.689  -3.054   6.823  0.00  0.00    +0.051 A 
ATOM      4  C   UNL     1       4.097  -2.923   6.826  0.00  0.00    +0.054 A 
ATOM      5  C   UNL     1       5.088  -3.073   7.819  0.00  0.00    +0.070 A 
ATOM      6  N   UNL     1       6.251  -2.833   7.284  0.00  0.00    -0.174 NA
ATOM      7  N   UNL     1       6.093  -2.517   5.929  0.00  0.00    -0.241 N 
ATOM      8  C   UNL     1       4.756  -2.569   5.631  0.00  0.00    +0.160 A 
ATOM      9  N   UNL     1       4.064  -2.368   4.520  0.00  0.00    -0.228 NA
ATOM     10  C   UNL     1       4.842  -3.447   9.258  0.00  0.00    +0.068 C 
ENDROOT
BRANCH   7  11
ATOM     11  C   UNL     1       7.170  -2.187   4.993  0.00  0.00    +0.132 C 
ATOM     12  C   UNL     1       7.927  -0.948   5.500  0.00  0.00    +0.051 C 
ATOM     13  C   UNL     1       9.238  -0.809   4.674  0.00  0.00    +0.168 C 
ATOM     14  S   UNL     1       9.759  -2.573   4.569  0.00  0.00    -0.029 S 
ATOM     15  O   UNL     1      10.637  -2.862   5.648  0.00  0.00    -0.174 OA
ATOM     16  O   UNL     1      10.170  -2.855   3.238  0.00  0.00    -0.174 OA
ATOM     17  C   UNL     1       8.140  -3.388   4.881  0.00  0.00    +0.192 C 
ENDBRANCH   7  11
BRANCH   1  21
ATOM     18  C   UNL     1       0.690  -1.778   0.833  0.00  0.00    -0.048 A 
ATOM     19  C   UNL     1       2.068  -1.666   0.880  0.00  0.00    +0.004 A 
ATOM     20  C   UNL     1       2.741  -1.892   2.064  0.00  0.00    +0.010 A 
ATOM     21  C   UNL     1       2.029  -2.233   3.213  0.00  0.00    +0.000 A 
ATOM     22  C   UNL     1       0.641  -2.344   3.159  0.00  0.00    +0.010 A 
ATOM     23  C   UNL     1      -0.022  -2.111   1.971  0.00  0.00    +0.004 A 
BRANCH  18  25
ATOM     24  C   UNL     1      -0.404  -0.047  -0.566  0.00  0.00    +0.009 C 
ATOM     25  C   UNL     1      -0.038  -1.529  -0.463  0.00  0.00    +0.032 C 
ENDBRANCH  18  25
ENDBRANCH   1  21
BRANCH   3  26
ATOM     26  C   UNL     1       1.954  -3.422   8.052  0.00  0.00    +0.245 C 
ATOM     27  O   UNL     1       2.424  -4.242   8.818  0.00  0.00    -0.270 OA
ATOM     28  N   UNL     1       0.765  -2.850   8.324  0.00  0.00    -0.307 N 
ATOM     29  H   UNL     1       0.390  -2.196   7.713  0.00  0.00    +0.149 HD
BRANCH  28  30
ATOM     30  C   UNL     1       0.037  -3.215   9.542  0.00  0.00    +0.145 C 
BRANCH  30  31
ATOM     31  C   UNL     1      -1.253  -2.439   9.609  0.00  0.00    +0.040 A 
ATOM     32  C   UNL     1      -1.286  -1.203  10.230  0.00  0.00    +0.131 A 
ATOM     33  C   UNL     1      -2.473  -0.491  10.291  0.00  0.00    +0.039 A 
ATOM     34  C   UNL     1      -3.623  -1.014   9.730  0.00  0.00    +0.006 A 
ATOM     35  C   UNL     1      -3.590  -2.249   9.110  0.00  0.00    +0.039 A 
ATOM     36  C   UNL     1      -2.404  -2.960   9.043  0.00  0.00    +0.131 A 
ATOM     37  F   UNL     1      -2.371  -4.164   8.431  0.00  0.00    -0.205 F 
ATOM     38  F   UNL     1      -0.163  -0.692  10.778  0.00  0.00    -0.205 F 
ENDBRANCH  30  31
ENDBRANCH  28  30
ENDBRANCH   3  26
TORSDOF 6
