REMARK  Name = ZINC18199042
REMARK  6 active torsions:
REMARK  status: ('A' for Active; 'I' for Inactive)
REMARK    1  A    between atoms: C_1  and  O_2
REMARK    2  A    between atoms: O_2  and  C_3
REMARK    3  A    between atoms: C_6  and  C_11
REMARK    4  A    between atoms: C_8  and  O_9
REMARK    5  A    between atoms: O_9  and  C_10
REMARK    6  A    between atoms: C_16  and  C_25
REMARK                            x       y       z     vdW  Elec       q    Type
REMARK                         _______ _______ _______ _____ _____    ______ ____
ROOT
ATOM      1  C   UNL     1       4.985   1.471  -3.494  0.00  0.00    +0.032 C 
ATOM      2  C   UNL     1       5.071   2.618  -2.485  0.00  0.00    +0.060 C 
ATOM      3  C   UNL     1       4.338   2.238  -1.221  0.00  0.00    +0.020 C 
ATOM      4  C   UNL     1       3.262   1.427  -1.260  0.00  0.00    +0.041 C 
ATOM      5  C   UNL     1       2.490   1.047  -0.016  0.00  0.00    +0.176 C 
ATOM      6  N   UNL     1       3.256   1.400   1.172  0.00  0.00    -0.219 N 
ATOM      7  C   UNL     1       4.343   2.211   1.146  0.00  0.00    +0.220 A 
ATOM      8  N   UNL     1       4.789   2.331   2.366  0.00  0.00    -0.180 NA
ATOM      9  C   UNL     1       4.021   1.611   3.197  0.00  0.00    +0.233 A 
ATOM     10  N   UNL     1       3.071   1.024   2.502  0.00  0.00    -0.132 NA
ATOM     11  N   UNL     1       4.200   1.502   4.577  0.00  0.00    -0.326 N 
ATOM     12  N   UNL     1       4.809   2.757  -0.039  0.00  0.00    -0.287 N 
ATOM     13  C   UNL     1       2.808   0.888  -2.481  0.00  0.00    +0.164 C 
ATOM     14  O   UNL     1       1.831   0.166  -2.485  0.00  0.00    -0.292 OA
ATOM     15  C   UNL     1       3.506   1.188  -3.778  0.00  0.00    +0.088 C 
ATOM     16  H   UNL     1       3.595   0.958   5.103  0.00  0.00    +0.145 HD
ATOM     17  H   UNL     1       4.931   1.971   5.009  0.00  0.00    +0.145 HD
ATOM     18  H   UNL     1       5.450   3.485  -0.034  0.00  0.00    +0.155 HD
ENDROOT
BRANCH   5  19
ATOM     19  C   UNL     1       1.175   1.783   0.000  0.00  0.00    -0.017 A 
ATOM     20  C   UNL     1       1.157   3.166   0.007  0.00  0.00    +0.007 A 
ATOM     21  C   UNL     1      -0.048   3.842   0.022  0.00  0.00    +0.022 A 
ATOM     22  C   UNL     1      -1.238   3.135   0.030  0.00  0.00    +0.059 A 
ATOM     23  C   UNL     1      -1.220   1.751   0.017  0.00  0.00    +0.060 A 
ATOM     24  C   UNL     1      -0.013   1.076   0.008  0.00  0.00    +0.027 A 
ATOM     25 CL   UNL     1      -2.712   0.863   0.019  0.00  0.00    -0.082 Cl
ATOM     26 CL   UNL     1      -2.752   3.984   0.049  0.00  0.00    -0.082 Cl
ENDBRANCH   5  19
BRANCH   1  30
ATOM     27  C   UNL     1       6.959   2.594  -7.118  0.00  0.00    +0.161 A 
ATOM     28  C   UNL     1       5.882   3.332  -6.655  0.00  0.00    +0.049 A 
ATOM     29  C   UNL     1       5.245   2.966  -5.483  0.00  0.00    +0.008 A 
ATOM     30  C   UNL     1       5.682   1.864  -4.771  0.00  0.00    -0.040 A 
ATOM     31  C   UNL     1       6.759   1.127  -5.225  0.00  0.00    +0.053 A 
ATOM     32  C   UNL     1       7.398   1.484  -6.401  0.00  0.00    +0.162 A 
BRANCH  27  34
ATOM     33  C   UNL     1       7.081   4.101  -8.953  0.00  0.00    +0.277 C 
ATOM     34  O   UNL     1       7.586   2.952  -8.270  0.00  0.00    -0.491 OA
ENDBRANCH  27  34
BRANCH  32  35
ATOM     35  O   UNL     1       8.454   0.756  -6.851  0.00  0.00    -0.491 OA
ATOM     36  C   UNL     1       8.850  -0.369  -6.064  0.00  0.00    +0.277 C 
ENDBRANCH  32  35
ENDBRANCH   1  30
TORSDOF 4
