REMARK  Name = ZINC40515232
REMARK  8 active torsions:
REMARK  status: ('A' for Active; 'I' for Inactive)
REMARK    1  A    between atoms: C_1  and  C_2
REMARK    2  A    between atoms: C_4  and  C_16
REMARK    3  A    between atoms: C_6  and  O_11
REMARK    4  A    between atoms: C_7  and  C_8
REMARK    5  A    between atoms: O_11  and  C_12
REMARK    6  A    between atoms: C_12  and  C_13
REMARK    7  A    between atoms: C_12  and  C_14
REMARK    8  A    between atoms: C_12  and  C_15
REMARK                            x       y       z     vdW  Elec       q    Type
REMARK                         _______ _______ _______ _____ _____    ______ ____
ROOT
ATOM      1  C   UNL     1      -0.018   1.503   0.010  0.00  0.00    +0.045 C 
ATOM      2  C   UNL     1       0.002  -0.004   0.002  0.00  0.00    -0.033 A 
ATOM      3  C   UNL     1       0.006  -0.707  -1.190  0.00  0.00    +0.027 A 
ATOM      4  C   UNL     1       0.025  -2.089  -1.165  0.00  0.00    +0.042 A 
ATOM      5  N   UNL     1       0.039  -2.751  -0.024  0.00  0.00    -0.218 NA
ATOM      6  C   UNL     1       0.036  -2.128   1.142  0.00  0.00    +0.226 A 
ATOM      7  C   UNL     1       0.023  -0.727   1.199  0.00  0.00    +0.076 A 
ATOM      8  C   UNL     1       0.029  -2.853  -2.464  0.00  0.00    +0.066 C 
ENDROOT
BRANCH   7   9
ATOM      9  C   UNL     1       0.027  -0.028   2.500  0.00  0.00    +0.100 C 
ATOM     10  N   UNL     1       1.082  -0.128   3.307  0.00  0.00    -0.387 N 
ATOM     11  N   UNL     1      -1.026   0.704   2.866  0.00  0.00    -0.344 N 
ATOM     12  H   UNL     1       1.848  -0.660   3.041  0.00  0.00    +0.157 HD
ATOM     13  H   UNL     1      -1.794   0.776   2.278  0.00  0.00    +0.144 HD
ATOM     14  H   UNL     1      -1.023   1.163   3.720  0.00  0.00    +0.144 HD
ATOM     15  H   UNL     1       1.084   0.332   4.162  0.00  0.00    +0.157 HD
ENDBRANCH   7   9
BRANCH   6  16
ATOM     16  O   UNL     1       0.051  -2.848   2.290  0.00  0.00    -0.470 OA
BRANCH  16  17
ATOM     17  C   UNL     1       0.069  -4.271   2.162  0.00  0.00    +0.104 C 
ATOM     18  C   UNL     1       1.321  -4.699   1.393  0.00  0.00    +0.055 C 
ATOM     19  C   UNL     1       0.084  -4.908   3.554  0.00  0.00    +0.055 C 
ATOM     20  C   UNL     1      -1.178  -4.732   1.404  0.00  0.00    +0.055 C 
ENDBRANCH  16  17
ENDBRANCH   6  16
TORSDOF 3
