REMARK  Name = ZINC06321322
REMARK  9 active torsions:
REMARK  status: ('A' for Active; 'I' for Inactive)
REMARK    1  A    between atoms: C_1  and  C_2
REMARK    2  A    between atoms: C_6  and  C_15
REMARK    3  A    between atoms: C_13  and  C_14
REMARK    4  A    between atoms: C_15  and  C_17
REMARK    5  A    between atoms: C_15  and  N_74
REMARK    6  A    between atoms: N_21  and  C_22
REMARK    7  A    between atoms: C_22  and  C_23
REMARK    8  A    between atoms: C_31  and  C_34
REMARK    9  A    between atoms: C_34  and  C_35
REMARK                            x       y       z     vdW  Elec       q    Type
REMARK                         _______ _______ _______ _____ _____    ______ ____
ROOT
ATOM      1  C   UNL     1      -2.791   1.332  -4.981  0.00  0.00    +0.039 C 
ENDROOT
BRANCH   1   7
ATOM      2  C   UNL     1     -10.230   1.548  -5.462  0.00  0.00    +0.044 C 
ATOM      3  C   UNL     1      -8.948   0.782  -5.261  0.00  0.00    -0.047 A 
ATOM      4  C   UNL     1      -7.752   1.442  -5.295  0.00  0.00    +0.013 A 
ATOM      5  C   UNL     1      -6.562   0.732  -5.109  0.00  0.00    -0.001 A 
ATOM      6  C   UNL     1      -5.264   1.409  -5.136  0.00  0.00    +0.017 A 
ATOM      7  C   UNL     1      -4.143   0.667  -4.955  0.00  0.00    +0.011 A 
ATOM      8  C   UNL     1      -4.239  -0.724  -4.736  0.00  0.00    +0.251 A 
ATOM      9  O   UNL     1      -3.219  -1.371  -4.571  0.00  0.00    -0.268 OA
ATOM     10  N   UNL     1      -5.427  -1.353  -4.705  0.00  0.00    -0.322 N 
ATOM     11  H   UNL     1      -5.456  -2.311  -4.553  0.00  0.00    +0.169 HD
ATOM     12  C   UNL     1      -6.603  -0.658  -4.888  0.00  0.00    +0.049 A 
ATOM     13  C   UNL     1      -7.832  -1.308  -4.856  0.00  0.00    +0.030 A 
ATOM     14  C   UNL     1      -8.992  -0.588  -5.042  0.00  0.00    -0.046 A 
ATOM     15  C   UNL     1     -10.322  -1.295  -5.008  0.00  0.00    +0.044 C 
ENDBRANCH   1   7
BRANCH   1  21
ATOM     16  C   UNL     1      -0.746   1.659  -3.727  0.00  0.00    -0.077 C 
ATOM     17  C   UNL     1       0.029   1.203  -2.489  0.00  0.00    -0.015 C 
ATOM     18  C   UNL     1      -0.753   1.593  -1.232  0.00  0.00    -0.010 C 
ATOM     19  C   UNL     1      -2.147   0.962  -1.289  0.00  0.00    -0.015 C 
ATOM     20  C   UNL     1      -2.858   1.423  -2.563  0.00  0.00    -0.077 C 
ATOM     21  N   UNL     1      -2.068   0.997  -3.737  0.00  0.00    +0.389 N 
ATOM     22  H   UNL     1      -1.931  -0.020  -3.695  0.00  0.00    -0.080 HD
BRANCH  18  23
ATOM     23  C   UNL     1      -0.013   1.086   0.008  0.00  0.00    +0.038 C 
BRANCH  23  24
ATOM     24  C   UNL     1      -0.718   1.572   1.248  0.00  0.00    -0.047 A 
ATOM     25  C   UNL     1      -0.360   2.779   1.819  0.00  0.00    +0.003 A 
ATOM     26  C   UNL     1      -1.010   3.227   2.953  0.00  0.00    +0.000 A 
ATOM     27  C   UNL     1      -2.012   2.463   3.523  0.00  0.00    +0.000 A 
ATOM     28  C   UNL     1      -2.366   1.254   2.955  0.00  0.00    +0.000 A 
ATOM     29  C   UNL     1      -1.719   0.808   1.818  0.00  0.00    +0.003 A 
ENDBRANCH  23  24
ENDBRANCH  18  23
ENDBRANCH   1  21
BRANCH   1  30
ATOM     30  C   UNL     1      -2.002   0.818  -6.157  0.00  0.00    +0.143 A 
ATOM     31  N   UNL     1      -1.418  -0.351  -6.258  0.00  0.00    -0.115 NA
ATOM     32  N   UNL     1      -0.849  -0.414  -7.412  0.00  0.00    -0.023 NA
ATOM     33  N   UNL     1      -1.047   0.688  -8.047  0.00  0.00    -0.044 NA
ATOM     34  N   UNL     1      -1.754   1.473  -7.307  0.00  0.00    -0.228 N 
BRANCH  34  35
ATOM     35  C   UNL     1      -2.203   2.824  -7.652  0.00  0.00    +0.178 C 
BRANCH  35  36
ATOM     36  C   UNL     1      -1.153   3.842  -7.200  0.00  0.00    +0.140 C 
ATOM     37  C   UNL     1      -1.668   5.274  -7.456  0.00  0.00    +0.035 C 
ATOM     38  C   UNL     1      -0.387   6.003  -7.945  0.00  0.00    +0.031 C 
ATOM     39  C   UNL     1       0.324   4.862  -8.716  0.00  0.00    +0.160 C 
ATOM     40  O   UNL     1       0.048   3.671  -7.962  0.00  0.00    -0.375 OA
ENDBRANCH  35  36
ENDBRANCH  34  35
ENDBRANCH   1  30
TORSDOF 7
