REMARK  Name = ZINC16755321
REMARK  8 active torsions:
REMARK  status: ('A' for Active; 'I' for Inactive)
REMARK    1  A    between atoms: C_1  and  C_2
REMARK    2  A    between atoms: C_2  and  C_4
REMARK    3  A    between atoms: C_2  and  O_13
REMARK    4  A    between atoms: N_6  and  C_7
REMARK    5  A    between atoms: C_7  and  C_8
REMARK    6  A    between atoms: O_13  and  C_14
REMARK    7  A    between atoms: C_14  and  C_16
REMARK    8  A    between atoms: C_19  and  N_22
REMARK                            x       y       z     vdW  Elec       q    Type
REMARK                         _______ _______ _______ _____ _____    ______ ____
ROOT
ATOM      1  C   UNL     1       3.682   1.275  -0.665  0.00  0.00    +0.059 A 
ATOM      2  C   UNL     1       4.170   2.159   0.301  0.00  0.00    +0.017 A 
ATOM      3  C   UNL     1       5.484   2.570   0.255  0.00  0.00    +0.025 A 
ATOM      4  C   UNL     1       6.321   2.116  -0.758  0.00  0.00    +0.045 A 
ATOM      5  C   UNL     1       5.837   1.241  -1.726  0.00  0.00    +0.025 A 
ATOM      6  C   UNL     1       4.527   0.821  -1.683  0.00  0.00    +0.017 A 
ENDROOT
BRANCH   4   7
ATOM      7  N   UNL     1       7.651   2.539  -0.805  0.00  0.00    -0.202 N 
ATOM      8  C   UNL     1       8.584   1.819  -0.152  0.00  0.00    +0.258 C 
ATOM      9  O   UNL     1       8.258   0.822   0.462  0.00  0.00    -0.269 OA
ATOM     10  C   UNL     1       9.995   2.231  -0.182  0.00  0.00    +0.046 A 
ATOM     11  C   UNL     1      10.989   1.516   0.471  0.00  0.00    +0.014 A 
ATOM     12  C   UNL     1      12.309   1.948   0.417  0.00  0.00    +0.001 A 
ATOM     13  C   UNL     1      12.666   3.072  -0.270  0.00  0.00    +0.008 A 
ATOM     14  C   UNL     1      11.690   3.825  -0.945  0.00  0.00    -0.016 A 
ATOM     15  C   UNL     1      10.347   3.397  -0.898  0.00  0.00    +0.006 A 
ATOM     16  C   UNL     1       9.341   4.132  -1.568  0.00  0.00    +0.046 A 
ATOM     17  C   UNL     1       9.697   5.275  -2.268  0.00  0.00    +0.014 A 
ATOM     18  C   UNL     1      11.024   5.686  -2.307  0.00  0.00    +0.001 A 
ATOM     19  C   UNL     1      12.008   4.989  -1.667  0.00  0.00    +0.008 A 
ATOM     20  C   UNL     1       7.953   3.655  -1.496  0.00  0.00    +0.258 C 
ATOM     21  O   UNL     1       7.072   4.271  -2.064  0.00  0.00    -0.269 OA
ENDBRANCH   4   7
BRANCH   1  22
ATOM     22  C   UNL     1       2.278   0.828  -0.616  0.00  0.00    +0.340 C 
ATOM     23  O   UNL     1       1.853   0.063  -1.460  0.00  0.00    -0.245 OA
BRANCH  22  24
ATOM     24  O   UNL     1       1.465   1.266   0.365  0.00  0.00    -0.449 OA
BRANCH  24  26
ATOM     25  C   UNL     1      -0.772   1.736  -0.475  0.00  0.00    +0.062 C 
ATOM     26  C   UNL     1       0.095   0.784   0.351  0.00  0.00    +0.259 C 
BRANCH  26  27
ATOM     27  C   UNL     1      -0.430   0.723   1.763  0.00  0.00    +0.254 C 
ATOM     28  O   UNL     1       0.246   1.138   2.680  0.00  0.00    -0.272 OA
ATOM     29  N   UNL     1      -1.651   0.207   2.005  0.00  0.00    -0.308 N 
ATOM     30  H   UNL     1      -2.192  -0.124   1.272  0.00  0.00    +0.149 HD
BRANCH  29  31
ATOM     31  C   UNL     1      -2.162   0.148   3.377  0.00  0.00    +0.146 C 
BRANCH  31  32
ATOM     32  C   UNL     1      -3.538  -0.467   3.375  0.00  0.00    +0.007 A 
ATOM     33  C   UNL     1      -3.890  -1.771   3.485  0.00  0.00    +0.013 A 
ATOM     34  C   UNL     1      -5.231  -2.107   3.461  0.00  0.00    +0.008 A 
ATOM     35  C   UNL     1      -6.153  -1.124   3.317  0.00  0.00    +0.045 A 
ATOM     36  S   UNL     1      -5.126   0.333   3.218  0.00  0.00    -0.100 S 
ENDBRANCH  31  32
ENDBRANCH  29  31
ENDBRANCH  26  27
ENDBRANCH  24  26
ENDBRANCH  22  24
ENDBRANCH   1  22
TORSDOF 7
