REMARK  Name = ZINC02229673
REMARK  11 active torsions:
REMARK  status: ('A' for Active; 'I' for Inactive)
REMARK    1  A    between atoms: C_1  and  C_2
REMARK    2  A    between atoms: C_5  and  C_8
REMARK    3  A    between atoms: C_8  and  N_9
REMARK    4  A    between atoms: C_10  and  C_34
REMARK    5  A    between atoms: C_16  and  C_24
REMARK    6  A    between atoms: C_18  and  C_22
REMARK    7  A    between atoms: C_19  and  N_21
REMARK    8  A    between atoms: C_26  and  O_32
REMARK    9  A    between atoms: C_29  and  O_30
REMARK   10  A    between atoms: O_30  and  C_31
REMARK   11  A    between atoms: O_32  and  C_33
REMARK                            x       y       z     vdW  Elec       q    Type
REMARK                         _______ _______ _______ _____ _____    ______ ____
ROOT
ATOM      1  N   UNL     1      -0.015   1.306   0.218  0.00  0.00    -0.308 N 
ATOM      2  C   UNL     1       1.107   2.055   0.056  0.00  0.00    +0.023 A 
ATOM      3  C   UNL     1       2.305   1.473  -0.166  0.00  0.00    +0.068 A 
ATOM      4  C   UNL     1       2.398   0.067  -0.230  0.00  0.00    +0.141 A 
ATOM      5  C   UNL     1       1.256  -0.687  -0.064  0.00  0.00    +0.072 A 
ATOM      6  C   UNL     1       0.035  -0.039   0.164  0.00  0.00    +0.259 A 
ATOM      7  O   UNL     1      -0.985  -0.693   0.314  0.00  0.00    -0.267 OA
ATOM      8  C   UNL     1       1.310  -2.189  -0.123  0.00  0.00    +0.107 C 
ATOM      9  C   UNL     1       2.597  -2.635  -0.760  0.00  0.00    +0.098 C 
ATOM     10  C   UNL     1       3.648  -1.790  -0.887  0.00  0.00    +0.199 C 
ATOM     11  O   UNL     1       3.594  -0.519  -0.453  0.00  0.00    -0.441 OA
ATOM     12  C   UNL     1       1.013   3.558   0.124  0.00  0.00    +0.064 C 
ENDROOT
BRANCH   8  13
ATOM     13  C   UNL     1       1.224  -2.748   1.274  0.00  0.00    +0.011 A 
ATOM     14  C   UNL     1       2.186  -2.419   2.210  0.00  0.00    +0.053 A 
ATOM     15  C   UNL     1       2.105  -2.929   3.497  0.00  0.00    +0.121 A 
ATOM     16  C   UNL     1       1.063  -3.779   3.841  0.00  0.00    +0.049 A 
ATOM     17  C   UNL     1       0.105  -4.111   2.904  0.00  0.00    +0.049 A 
ATOM     18  C   UNL     1       0.183  -3.596   1.618  0.00  0.00    +0.124 A 
BRANCH  18  19
ATOM     19  O   UNL     1      -0.760  -3.925   0.696  0.00  0.00    -0.495 OA
ATOM     20  C   UNL     1      -1.804  -4.804   1.119  0.00  0.00    +0.277 C 
ENDBRANCH  18  19
BRANCH  15  21
ATOM     21  O   UNL     1       3.048  -2.601   4.419  0.00  0.00    -0.495 OA
ATOM     22  C   UNL     1       2.905  -3.168   5.723  0.00  0.00    +0.277 C 
ENDBRANCH  15  21
ENDBRANCH   8  13
BRANCH  10  23
ATOM     23  N   UNL     1       4.801  -2.246  -1.475  0.00  0.00    -0.328 N 
ATOM     24  H   UNL     1       4.855  -3.160  -1.793  0.00  0.00    +0.145 HD
ATOM     25  H   UNL     1       5.562  -1.652  -1.573  0.00  0.00    +0.145 HD
ENDBRANCH  10  23
BRANCH   9  26
ATOM     26  C   UNL     1       2.714  -3.978  -1.242  0.00  0.00    +0.101 C 
ATOM     27  N   UNL     1       2.806  -5.044  -1.625  0.00  0.00    -0.191 NA
ENDBRANCH   9  26
BRANCH   1  28
ATOM     28  C   UNL     1      -1.299   1.970   0.450  0.00  0.00    +0.160 C 
BRANCH  28  33
ATOM     29  C   UNL     1      -2.256   2.388   6.133  0.00  0.00    +0.044 C 
ATOM     30  C   UNL     1      -2.007   2.279   4.651  0.00  0.00    -0.050 A 
ATOM     31  C   UNL     1      -1.339   3.291   3.987  0.00  0.00    +0.004 A 
ATOM     32  C   UNL     1      -1.110   3.191   2.627  0.00  0.00    +0.005 A 
ATOM     33  C   UNL     1      -1.548   2.079   1.932  0.00  0.00    -0.028 A 
ATOM     34  C   UNL     1      -2.220   1.070   2.596  0.00  0.00    +0.005 A 
ATOM     35  C   UNL     1      -2.446   1.167   3.956  0.00  0.00    +0.004 A 
ENDBRANCH  28  33
ENDBRANCH   1  28
TORSDOF 7
