REMARK  Name = ZINC59306352
REMARK  10 active torsions:
REMARK  status: ('A' for Active; 'I' for Inactive)
REMARK    1  A    between atoms: C_1  and  O_2
REMARK    2  A    between atoms: O_2  and  C_3
REMARK    3  A    between atoms: C_7  and  C_18
REMARK    4  A    between atoms: C_8  and  O_9
REMARK    5  A    between atoms: O_9  and  C_10
REMARK    6  A    between atoms: C_10  and  C_11
REMARK    7  A    between atoms: N_19  and  C_20
REMARK    8  A    between atoms: C_21  and  C_29
REMARK    9  A    between atoms: N_31  and  C_32
REMARK   10  A    between atoms: C_32  and  C_33
REMARK                            x       y       z     vdW  Elec       q    Type
REMARK                         _______ _______ _______ _____ _____    ______ ____
ROOT
ATOM      1  C   UNL     1       1.502  -4.052   2.168  0.00  0.00    +0.123 C 
ATOM      2  N   UNL     1       0.900  -4.756   1.244  0.00  0.00    -0.247 NA
ENDROOT
BRANCH   2   3
ATOM      3  C   UNL     1       0.892  -6.104   1.321  0.00  0.00    +0.114 A 
ATOM      4  C   UNL     1       0.387  -7.037   0.408  0.00  0.00    +0.073 A 
ATOM      5  C   UNL     1       0.497  -8.405   0.715  0.00  0.00    -0.023 A 
ATOM      6  C   UNL     1       1.094  -8.724   1.890  0.00  0.00    -0.004 A 
ATOM      7  S   UNL     1       1.530  -7.163   2.609  0.00  0.00    -0.073 S 
ATOM      8  C   UNL     1       1.332 -10.092   2.447  0.00  0.00    +0.043 C 
ATOM      9  C   UNL     1       0.470 -11.092   1.662  0.00  0.00    +0.005 C 
ATOM     10  C   UNL     1       0.649 -10.824   0.165  0.00  0.00    +0.005 C 
ATOM     11  C   UNL     1      -0.020  -9.502  -0.212  0.00  0.00    +0.037 C 
BRANCH   4  12
ATOM     12  C   UNL     1      -0.245  -6.598  -0.841  0.00  0.00    +0.247 C 
ATOM     13  O   UNL     1       0.411  -6.528  -1.863  0.00  0.00    -0.270 OA
ATOM     14  N   UNL     1      -1.553  -6.271  -0.856  0.00  0.00    -0.304 N 
ATOM     15  H   UNL     1      -2.058  -6.253  -0.028  0.00  0.00    +0.149 HD
BRANCH  14  16
ATOM     16  C   UNL     1      -2.211  -5.944  -2.123  0.00  0.00    +0.179 C 
BRANCH  16  17
ATOM     17  C   UNL     1      -3.627  -5.502  -1.854  0.00  0.00    +0.122 A 
ATOM     18  C   UNL     1      -4.027  -4.238  -1.629  0.00  0.00    +0.046 A 
ATOM     19  C   UNL     1      -5.426  -4.281  -1.426  0.00  0.00    +0.041 A 
ATOM     20  C   UNL     1      -5.796  -5.569  -1.540  0.00  0.00    +0.195 A 
ATOM     21  O   UNL     1      -4.703  -6.303  -1.805  0.00  0.00    -0.466 OA
ENDBRANCH  16  17
ENDBRANCH  14  16
ENDBRANCH   4  12
ENDBRANCH   2   3
BRANCH   1  26
ATOM     22  C   UNL     1       1.871  -0.445   3.167  0.00  0.00    +0.162 A 
ATOM     23  C   UNL     1       1.246   0.186   2.103  0.00  0.00    +0.049 A 
ATOM     24  C   UNL     1       0.708  -0.558   1.066  0.00  0.00    +0.004 A 
ATOM     25  C   UNL     1       0.787  -1.933   1.080  0.00  0.00    +0.013 A 
ATOM     26  C   UNL     1       1.415  -2.586   2.148  0.00  0.00    +0.038 A 
ATOM     27  C   UNL     1       1.966  -1.832   3.195  0.00  0.00    +0.171 A 
BRANCH  22  29
ATOM     28  C   UNL     1       2.265   1.712   4.087  0.00  0.00    +0.277 C 
ATOM     29  O   UNL     1       2.398   0.292   4.181  0.00  0.00    -0.491 OA
ENDBRANCH  22  29
BRANCH  27  30
ATOM     30  O   UNL     1       2.582  -2.454   4.233  0.00  0.00    -0.483 OA
BRANCH  30  31
ATOM     31  C   UNL     1       1.756  -2.876   5.320  0.00  0.00    +0.264 C 
BRANCH  31  32
ATOM     32  C   UNL     1       2.621  -3.429   6.423  0.00  0.00    -0.010 A 
ATOM     33  C   UNL     1       2.860  -4.788   6.498  0.00  0.00    +0.010 A 
ATOM     34  C   UNL     1       3.654  -5.296   7.509  0.00  0.00    +0.039 A 
ATOM     35  C   UNL     1       4.209  -4.443   8.447  0.00  0.00    +0.123 A 
ATOM     36  C   UNL     1       3.970  -3.082   8.371  0.00  0.00    +0.039 A 
ATOM     37  C   UNL     1       3.180  -2.575   7.356  0.00  0.00    +0.010 A 
ATOM     38  F   UNL     1       4.985  -4.939   9.436  0.00  0.00    -0.205 F 
ENDBRANCH  31  32
ENDBRANCH  30  31
ENDBRANCH  27  30
ENDBRANCH   1  26
TORSDOF 9
