REMARK  Name = ZINC09184919
REMARK  17 active torsions:
REMARK  status: ('A' for Active; 'I' for Inactive)
REMARK    1  A    between atoms: C_1  and  C_2
REMARK    2  A    between atoms: C_2  and  N_69
REMARK    3  A    between atoms: C_3  and  C_4
REMARK    4  A    between atoms: C_3  and  N_69
REMARK    5  A    between atoms: C_5  and  C_6
REMARK    6  A    between atoms: C_5  and  N_69
REMARK    7  A    between atoms: C_6  and  C_7
REMARK    8  A    between atoms: C_7  and  N_8
REMARK    9  A    between atoms: C_9  and  C_30
REMARK   10  A    between atoms: C_12  and  C_13
REMARK   11  A    between atoms: C_12  and  O_25
REMARK   12  A    between atoms: C_14  and  C_24
REMARK   13  A    between atoms: C_15  and  C_20
REMARK   14  A    between atoms: C_18  and  C_19
REMARK   15  A    between atoms: C_20  and  O_22
REMARK   16  A    between atoms: O_22  and  C_23
REMARK   17  A    between atoms: C_34  and  N_36
REMARK                            x       y       z     vdW  Elec       q    Type
REMARK                         _______ _______ _______ _____ _____    ______ ____
ROOT
ATOM      1  N   UNL     1       0.979   5.858  -0.841  0.00  0.00    -0.284 N 
ATOM      2  C   UNL     1      -0.080   5.315   0.015  0.00  0.00    +0.145 C 
ATOM      3  C   UNL     1       0.190   5.823   1.412  0.00  0.00    +0.071 C 
ATOM      4  C   UNL     1      -0.554   5.564   2.549  0.00  0.00    +0.135 C 
ATOM      5  C   UNL     1       1.346   6.609   1.325  0.00  0.00    +0.249 C 
ATOM      6  O   UNL     1       1.883   7.195   2.249  0.00  0.00    -0.282 OA
ATOM      7  C   UNL     1       1.805   6.606  -0.090  0.00  0.00    +0.288 C 
ATOM      8  O   UNL     1       2.784   7.192  -0.505  0.00  0.00    -0.266 OA
ENDROOT
BRANCH   4   9
ATOM      9  C   UNL     1      -0.151   6.140   3.839  0.00  0.00    +0.041 A 
ATOM     10  C   UNL     1      -0.824   7.160   4.552  0.00  0.00    -0.008 A 
ATOM     11  C   UNL     1      -0.109   7.388   5.691  0.00  0.00    +0.128 A 
ATOM     12  N   UNL     1       0.980   6.542   5.698  0.00  0.00    -0.352 N 
ATOM     13  H   UNL     1       1.652   6.498   6.395  0.00  0.00    +0.166 HD
ATOM     14  C   UNL     1       0.958   5.784   4.590  0.00  0.00    +0.024 A 
ATOM     15  C   UNL     1       1.970   4.729   4.224  0.00  0.00    +0.064 C 
ATOM     16  C   UNL     1      -2.091   7.860   4.133  0.00  0.00    +0.047 C 
BRANCH  11  17
ATOM     17  C   UNL     1      -0.442   8.368   6.731  0.00  0.00    +0.356 C 
ATOM     18  O   UNL     1      -1.432   9.063   6.616  0.00  0.00    -0.243 OA
BRANCH  17  19
ATOM     19  O   UNL     1       0.352   8.497   7.814  0.00  0.00    -0.463 OA
ATOM     20  C   UNL     1      -0.038   9.486   8.803  0.00  0.00    +0.280 C 
ENDBRANCH  17  19
ENDBRANCH  11  17
ENDBRANCH   4   9
BRANCH   2  21
ATOM     21  C   UNL     1      -0.038   3.809  -0.004  0.00  0.00    -0.020 A 
ATOM     22  C   UNL     1       1.179   3.151  -0.014  0.00  0.00    +0.006 A 
ATOM     23  C   UNL     1       1.218   1.770  -0.032  0.00  0.00    +0.003 A 
ATOM     24  C   UNL     1       0.041   1.045  -0.039  0.00  0.00    +0.033 A 
ATOM     25  C   UNL     1      -1.175   1.702  -0.033  0.00  0.00    +0.127 A 
ATOM     26  C   UNL     1      -1.214   3.084  -0.010  0.00  0.00    +0.038 A 
BRANCH  25  27
ATOM     27  N   UNL     1      -2.436   0.926  -0.047  0.00  0.00    +0.056 N 
ATOM     28  O   UNL     1      -2.402  -0.291  -0.062  0.00  0.00    -0.126 OA
ATOM     29  O   UNL     1      -3.508   1.505  -0.042  0.00  0.00    -0.126 OA
ENDBRANCH  25  27
ENDBRANCH   2  21
BRANCH   4  30
ATOM     30  O   UNL     1      -1.652   4.781   2.473  0.00  0.00    -0.506 OA
ATOM     31  H   UNL     1      -2.066   4.700   3.380  0.00  0.00    +0.292 HD
ENDBRANCH   4  30
BRANCH   1  32
ATOM     32  C   UNL     1       1.115   5.623  -2.280  0.00  0.00    +0.107 C 
BRANCH  32  33
ATOM     33  C   UNL     1       0.351   6.704  -3.047  0.00  0.00    +0.000 C 
BRANCH  33  34
ATOM     34  C   UNL     1       0.493   6.459  -4.551  0.00  0.00    -0.077 C 
BRANCH  34  35
ATOM     35  N   UNL     1      -0.364   7.424  -5.271  0.00  0.00    +0.379 N 
ATOM     36  H   UNL     1      -1.263   7.501  -4.782  0.00  0.00    -0.082 HD
BRANCH  35  38
ATOM     37  C   UNL     1      -0.713   9.776  -5.845  0.00  0.00    -0.017 C 
ATOM     38  C   UNL     1       0.283   8.753  -5.298  0.00  0.00    -0.082 C 
ENDBRANCH  35  38
BRANCH  35  39
ATOM     39  C   UNL     1      -0.607   6.953  -6.651  0.00  0.00    -0.082 C 
ATOM     40  C   UNL     1      -1.659   5.843  -6.612  0.00  0.00    -0.017 C 
ENDBRANCH  35  39
ENDBRANCH  34  35
ENDBRANCH  33  34
ENDBRANCH  32  33
ENDBRANCH   1  32
TORSDOF 12
