REMARK  Name = ZINC20283820
REMARK  13 active torsions:
REMARK  status: ('A' for Active; 'I' for Inactive)
REMARK    1  A    between atoms: C_1  and  C_2
REMARK    2  A    between atoms: C_2  and  O_3
REMARK    3  A    between atoms: O_3  and  C_4
REMARK    4  A    between atoms: C_4  and  C_6
REMARK    5  A    between atoms: C_7  and  C_24
REMARK    6  A    between atoms: C_12  and  C_14
REMARK    7  A    between atoms: C_18  and  O_22
REMARK    8  A    between atoms: C_19  and  O_20
REMARK    9  A    between atoms: O_20  and  C_21
REMARK   10  A    between atoms: O_22  and  C_23
REMARK   11  A    between atoms: C_24  and  N_25
REMARK   12  A    between atoms: N_28  and  C_31
REMARK   13  A    between atoms: C_34  and  N_37
REMARK                            x       y       z     vdW  Elec       q    Type
REMARK                         _______ _______ _______ _____ _____    ______ ____
ROOT
ATOM      1  C   UNL     1       4.106  -0.887  -1.610  0.00  0.00    +0.079 C 
ATOM      2  C   UNL     1       5.338  -0.424  -1.916  0.00  0.00    +0.038 C 
ATOM      3  N   UNL     1       6.106   0.206  -0.980  0.00  0.00    -0.271 N 
ATOM      4  C   UNL     1       5.717   0.412   0.285  0.00  0.00    +0.304 C 
ATOM      5  O   UNL     1       6.472   0.983   1.047  0.00  0.00    -0.252 OA
ATOM      6  N   UNL     1       4.515   0.008   0.739  0.00  0.00    -0.288 N 
ATOM      7  C   UNL     1       3.608  -0.684  -0.193  0.00  0.00    +0.147 C 
ATOM      8  H   UNL     1       7.106   0.577  -1.248  0.00  0.00    +0.156 HD
ATOM      9  H   UNL     1       4.204   0.183   1.780  0.00  0.00    +0.151 HD
ENDROOT
BRANCH   7  10
ATOM     10  C   UNL     1       2.324   0.102  -0.261  0.00  0.00    +0.023 A 
ATOM     11  C   UNL     1       2.020   0.833  -1.394  0.00  0.00    +0.009 A 
ATOM     12  C   UNL     1       0.843   1.555  -1.459  0.00  0.00    +0.004 A 
ATOM     13  C   UNL     1      -0.036   1.548  -0.391  0.00  0.00    +0.049 A 
ATOM     14  C   UNL     1       0.263   0.818   0.747  0.00  0.00    +0.162 A 
ATOM     15  C   UNL     1       1.448   0.091   0.813  0.00  0.00    +0.167 A 
BRANCH  15  16
ATOM     16  O   UNL     1       1.746  -0.627   1.928  0.00  0.00    -0.491 OA
ATOM     17  C   UNL     1       1.200  -1.945   2.016  0.00  0.00    +0.277 C 
ENDBRANCH  15  16
BRANCH  14  18
ATOM     18  O   UNL     1      -0.600   0.811   1.799  0.00  0.00    -0.491 OA
ATOM     19  C   UNL     1      -1.796   1.580   1.661  0.00  0.00    +0.277 C 
ENDBRANCH  14  18
ENDBRANCH   7  10
BRANCH   1  20
ATOM     20  C   UNL     1       3.309  -1.540  -2.579  0.00  0.00    +0.339 C 
ATOM     21  O   UNL     1       3.102  -2.736  -2.491  0.00  0.00    -0.245 OA
BRANCH  20  22
ATOM     22  O   UNL     1       2.777  -0.836  -3.600  0.00  0.00    -0.462 OA
BRANCH  22  24
ATOM     23  C   UNL     1       1.655  -0.633  -5.731  0.00  0.00    +0.048 C 
ATOM     24  C   UNL     1       2.076  -1.576  -4.602  0.00  0.00    +0.229 C 
ENDBRANCH  22  24
ENDBRANCH  20  22
ENDBRANCH   1  20
BRANCH   2  25
ATOM     25  C   UNL     1       5.872  -0.606  -3.313  0.00  0.00    +0.136 C 
BRANCH  25  26
ATOM     26  N   UNL     1       6.072   0.709  -3.936  0.00  0.00    -0.294 NA
ATOM     27  C   UNL     1       4.788   1.395  -4.142  0.00  0.00    +0.103 C 
ATOM     28  C   UNL     1       5.044   2.790  -4.717  0.00  0.00    +0.120 C 
ATOM     29  N   UNL     1       5.782   2.667  -5.983  0.00  0.00    -0.327 N 
ATOM     30  C   UNL     1       7.065   1.981  -5.777  0.00  0.00    +0.120 C 
ATOM     31  C   UNL     1       6.809   0.586  -5.201  0.00  0.00    +0.103 C 
BRANCH  29  32
ATOM     32  C   UNL     1       5.972   3.917  -6.575  0.00  0.00    +0.030 A 
ATOM     33  C   UNL     1       7.254   4.356  -6.880  0.00  0.00    +0.025 A 
ATOM     34  C   UNL     1       7.438   5.590  -7.470  0.00  0.00    +0.034 A 
ATOM     35  C   UNL     1       6.348   6.395  -7.748  0.00  0.00    +0.126 A 
ATOM     36  C   UNL     1       5.070   5.964  -7.440  0.00  0.00    +0.034 A 
ATOM     37  C   UNL     1       4.879   4.728  -6.855  0.00  0.00    +0.025 A 
BRANCH  35  38
ATOM     38  N   UNL     1       6.549   7.721  -8.375  0.00  0.00    +0.056 N 
ATOM     39  O   UNL     1       5.590   8.431  -8.619  0.00  0.00    -0.126 OA
ATOM     40  O   UNL     1       7.674   8.101  -8.646  0.00  0.00    -0.126 OA
ENDBRANCH  35  38
ENDBRANCH  29  32
ENDBRANCH  25  26
ENDBRANCH   2  25
TORSDOF 10
