REMARK  Name = ZINC63221894
REMARK  8 active torsions:
REMARK  status: ('A' for Active; 'I' for Inactive)
REMARK    1  A    between atoms: C_1  and  O_2
REMARK    2  A    between atoms: O_2  and  C_3
REMARK    3  A    between atoms: C_6  and  C_9
REMARK    4  A    between atoms: C_9  and  C_11
REMARK    5  A    between atoms: C_9  and  C_28
REMARK    6  A    between atoms: C_11  and  N_12
REMARK    7  A    between atoms: C_16  and  S_19
REMARK    8  A    between atoms: S_19  and  N_22
REMARK                            x       y       z     vdW  Elec       q    Type
REMARK                         _______ _______ _______ _____ _____    ______ ____
ROOT
ATOM      1  C   UNL     1       2.505  -2.503  -4.381  0.00  0.00    +0.064 C 
ENDROOT
BRANCH   1   2
ATOM      2  C   UNL     1       1.505  -3.369  -5.104  0.00  0.00    -0.033 C 
ATOM      3  C   UNL     1       1.118  -3.260  -6.396  0.00  0.00    -0.000 A 
ATOM      4  C   UNL     1       1.498  -2.337  -7.473  0.00  0.00    +0.010 A 
ATOM      5  C   UNL     1       0.925  -2.479  -8.690  0.00  0.00    +0.001 A 
ATOM      6  C   UNL     1      -0.019  -3.482  -8.948  0.00  0.00    +0.002 A 
ATOM      7  C   UNL     1      -0.418  -4.367  -8.010  0.00  0.00    +0.026 A 
ATOM      8  C   UNL     1       0.119  -4.311  -6.694  0.00  0.00    +0.043 A 
ATOM      9  N   UNL     1      -0.103  -5.041  -5.629  0.00  0.00    -0.380 N 
ATOM     10  C   UNL     1       0.735  -4.539  -4.534  0.00  0.00    +0.145 C 
ATOM     11  H   UNL     1      -0.716  -5.791  -5.574  0.00  0.00    +0.160 HD
ENDBRANCH   1   2
BRANCH   1  15
ATOM     12  C   UNL     1       0.606  -0.607  -1.056  0.00  0.00    +0.120 A 
ATOM     13  C   UNL     1       1.173   0.161  -2.062  0.00  0.00    +0.046 A 
ATOM     14  C   UNL     1       1.786  -0.455  -3.136  0.00  0.00    +0.008 A 
ATOM     15  C   UNL     1       1.835  -1.835  -3.209  0.00  0.00    -0.038 A 
ATOM     16  C   UNL     1       1.270  -2.602  -2.207  0.00  0.00    +0.008 A 
ATOM     17  C   UNL     1       0.661  -1.992  -1.128  0.00  0.00    +0.046 A 
BRANCH  12  19
ATOM     18  C   UNL     1      -0.017   1.425   0.010  0.00  0.00    +0.277 C 
ATOM     19  O   UNL     1       0.002  -0.004   0.002  0.00  0.00    -0.495 OA
ENDBRANCH  12  19
ENDBRANCH   1  15
BRANCH   1  20
ATOM     20  C   UNL     1       3.662  -3.370  -3.882  0.00  0.00    +0.115 C 
BRANCH  20  21
ATOM     21  N   UNL     1       4.387  -3.925  -5.028  0.00  0.00    -0.328 N 
ATOM     22  C   UNL     1       5.486  -4.750  -4.822  0.00  0.00    +0.119 A 
ATOM     23  C   UNL     1       5.890  -5.050  -3.524  0.00  0.00    +0.045 A 
ATOM     24  C   UNL     1       6.985  -5.872  -3.334  0.00  0.00    +0.033 A 
ATOM     25  C   UNL     1       7.643  -6.370  -4.451  0.00  0.00    +0.124 A 
ATOM     26  C   UNL     1       7.188  -6.031  -5.710  0.00  0.00    +0.141 A 
ATOM     27  N   UNL     1       6.137  -5.249  -5.862  0.00  0.00    -0.239 NA
ATOM     28  H   UNL     1       4.099  -3.716  -5.931  0.00  0.00    +0.147 HD
BRANCH  25  29
ATOM     29  S   UNL     1       9.044  -7.421  -4.264  0.00  0.00    +0.062 S 
ATOM     30  O   UNL     1       9.802  -7.305  -5.461  0.00  0.00    -0.153 OA
ATOM     31  O   UNL     1       9.594  -7.141  -2.984  0.00  0.00    -0.153 OA
BRANCH  29  32
ATOM     32  N   UNL     1       8.484  -8.978  -4.208  0.00  0.00    -0.177 NA
ATOM     33  C   UNL     1       8.120  -9.597  -2.927  0.00  0.00    +0.109 C 
ATOM     34  C   UNL     1       6.691 -10.142  -3.030  0.00  0.00    +0.017 C 
ATOM     35  C   UNL     1       6.595 -11.083  -4.233  0.00  0.00    +0.003 C 
ATOM     36  C   UNL     1       6.911 -10.310  -5.515  0.00  0.00    +0.017 C 
ATOM     37  C   UNL     1       8.336  -9.765  -5.440  0.00  0.00    +0.109 C 
ENDBRANCH  29  32
ENDBRANCH  25  29
ENDBRANCH  20  21
ENDBRANCH   1  20
TORSDOF 7
