REMARK  Name = ZINC10561798
REMARK  8 active torsions:
REMARK  status: ('A' for Active; 'I' for Inactive)
REMARK    1  A    between atoms: C_1  and  C_2
REMARK    2  A    between atoms: C_12  and  C_14
REMARK    3  A    between atoms: C_14  and  O_15
REMARK    4  A    between atoms: O_15  and  C_16
REMARK    5  A    between atoms: C_16  and  C_18
REMARK    6  A    between atoms: C_19  and  S_23
REMARK    7  A    between atoms: S_23  and  N_26
REMARK    8  A    between atoms: N_26  and  C_27
REMARK                            x       y       z     vdW  Elec       q    Type
REMARK                         _______ _______ _______ _____ _____    ______ ____
ROOT
ATOM      1  C   UNL     1      -1.505   1.451   5.998  0.00  0.00    +0.348 C 
ATOM      2  O   UNL     1      -2.484   2.167   5.902  0.00  0.00    -0.244 OA
ENDROOT
BRANCH   1   3
ATOM      3  C   UNL     1      -0.885   1.230   7.305  0.00  0.00    +0.122 A 
ATOM      4  C   UNL     1      -1.186   1.817   8.526  0.00  0.00    +0.126 A 
ATOM      5  C   UNL     1      -0.440   1.424   9.608  0.00  0.00    +0.037 A 
ATOM      6  C   UNL     1       0.539   0.497   9.438  0.00  0.00    +0.048 A 
ATOM      7  S   UNL     1       0.449   0.131   7.746  0.00  0.00    -0.088 S 
BRANCH   4   8
ATOM      8  S   UNL     1      -2.469   3.014   8.679  0.00  0.00    +0.060 S 
ATOM      9  O   UNL     1      -2.537   3.364  10.055  0.00  0.00    -0.153 OA
ATOM     10  O   UNL     1      -2.249   3.978   7.658  0.00  0.00    -0.153 OA
BRANCH   8  11
ATOM     11  N   UNL     1      -3.894   2.254   8.313  0.00  0.00    -0.187 NA
ATOM     12  H   UNL     1      -4.402   2.525   7.532  0.00  0.00    +0.148 HD
BRANCH  11  13
ATOM     13  C   UNL     1      -4.389   1.174   9.170  0.00  0.00    +0.077 C 
ATOM     14  C   UNL     1      -5.163   0.038   8.498  0.00  0.00    +0.022 C 
ATOM     15  C   UNL     1      -5.902   1.061   9.363  0.00  0.00    +0.022 C 
ENDBRANCH  11  13
ENDBRANCH   8  11
ENDBRANCH   4   8
ENDBRANCH   1   3
BRANCH   1  16
ATOM     16  O   UNL     1      -0.990   0.861   4.899  0.00  0.00    -0.451 OA
BRANCH  16  17
ATOM     17  C   UNL     1      -1.657   1.125   3.636  0.00  0.00    +0.328 C 
BRANCH  17  28
ATOM     18  C   UNL     1       0.657   0.284  -0.082  0.00  0.00    +0.029 C 
ATOM     19  C   UNL     1      -0.787  -0.184   0.106  0.00  0.00    +0.083 C 
ATOM     20  C   UNL     1      -1.645   0.235  -1.099  0.00  0.00    +0.059 C 
ATOM     21  C   UNL     1      -2.707   1.138  -0.514  0.00  0.00    -0.024 A 
ATOM     22  C   UNL     1      -3.755   1.811  -1.114  0.00  0.00    +0.005 A 
ATOM     23  C   UNL     1      -4.606   2.589  -0.352  0.00  0.00    +0.000 A 
ATOM     24  C   UNL     1      -4.408   2.693   1.012  0.00  0.00    +0.002 A 
ATOM     25  C   UNL     1      -3.364   2.024   1.615  0.00  0.00    +0.024 A 
ATOM     26  C   UNL     1      -2.499   1.236   0.852  0.00  0.00    +0.040 A 
ATOM     27  N   UNL     1      -1.391   0.484   1.262  0.00  0.00    -0.265 N 
ATOM     28  C   UNL     1      -0.947   0.387   2.530  0.00  0.00    +0.258 C 
ATOM     29  O   UNL     1       0.025  -0.294   2.782  0.00  0.00    -0.271 OA
ENDBRANCH  17  28
ENDBRANCH  16  17
ENDBRANCH   1  16
TORSDOF 7
