REMARK  Name = ZINC09685774
REMARK  7 active torsions:
REMARK  status: ('A' for Active; 'I' for Inactive)
REMARK    1  A    between atoms: C_1  and  C_2
REMARK    2  A    between atoms: C_2  and  C_3
REMARK    3  A    between atoms: C_8  and  S_9
REMARK    4  A    between atoms: S_9  and  N_12
REMARK    5  A    between atoms: N_12  and  C_13
REMARK    6  A    between atoms: C_27  and  C_29
REMARK    7  A    between atoms: C_27  and  C_30
REMARK                            x       y       z     vdW  Elec       q    Type
REMARK                         _______ _______ _______ _____ _____    ______ ____
ROOT
ATOM      1  C   UNL     1       2.992   3.348  -0.066  0.00  0.00    -0.020 A 
ATOM      2  C   UNL     1       1.634   3.356  -0.297  0.00  0.00    +0.016 A 
ATOM      3  C   UNL     1       0.904   2.176  -0.179  0.00  0.00    +0.011 A 
ATOM      4  C   UNL     1       1.557   0.980   0.175  0.00  0.00    +0.049 A 
ATOM      5  C   UNL     1       2.928   0.995   0.404  0.00  0.00    +0.055 A 
ATOM      6  C   UNL     1       3.636   2.171   0.283  0.00  0.00    +0.114 A 
ATOM      7  N   UNL     1       0.606  -0.024   0.220  0.00  0.00    -0.357 N 
ATOM      8  H   UNL     1       0.792  -0.950   0.438  0.00  0.00    +0.166 HD
ATOM      9  C   UNL     1      -0.606   0.459  -0.084  0.00  0.00    +0.028 A 
ATOM     10  C   UNL     1      -0.506   1.817  -0.345  0.00  0.00    +0.046 A 
ATOM     11  C   UNL     1      -1.623   2.611  -0.700  0.00  0.00    +0.166 C 
ATOM     12  O   UNL     1      -1.510   3.805  -0.891  0.00  0.00    -0.292 OA
ATOM     13  C   UNL     1      -2.962   1.919  -0.832  0.00  0.00    +0.086 C 
ATOM     14  C   UNL     1      -3.043   0.746   0.145  0.00  0.00    -0.023 C 
ATOM     15  C   UNL     1      -1.929  -0.269  -0.138  0.00  0.00    +0.060 C 
ATOM     16  C   UNL     1      -2.897   1.270   1.575  0.00  0.00    +0.011 C 
ATOM     17  C   UNL     1      -4.402   0.058  -0.003  0.00  0.00    +0.011 C 
ENDROOT
BRANCH   6  18
ATOM     18  S   UNL     1       5.373   2.178   0.575  0.00  0.00    +0.073 S 
ATOM     19  O   UNL     1       5.727   0.857   0.959  0.00  0.00    -0.150 OA
ATOM     20  O   UNL     1       5.969   2.834  -0.537  0.00  0.00    -0.150 OA
BRANCH  18  21
ATOM     21  N   UNL     1       5.644   3.143   1.894  0.00  0.00    -0.216 N 
ATOM     22  H   UNL     1       6.122   3.980   1.792  0.00  0.00    +0.174 HD
BRANCH  21  23
ATOM     23  C   UNL     1       5.184   2.749   3.154  0.00  0.00    +0.048 A 
ATOM     24  C   UNL     1       3.887   2.276   3.304  0.00  0.00    +0.027 A 
ATOM     25  C   UNL     1       3.436   1.883   4.549  0.00  0.00    +0.040 A 
ATOM     26  C   UNL     1       4.272   1.971   5.649  0.00  0.00    +0.124 A 
ATOM     27  C   UNL     1       5.564   2.447   5.503  0.00  0.00    +0.040 A 
ATOM     28  C   UNL     1       6.021   2.836   4.258  0.00  0.00    +0.027 A 
ATOM     29  F   UNL     1       3.827   1.591   6.866  0.00  0.00    -0.205 F 
ENDBRANCH  21  23
ENDBRANCH  18  21
ENDBRANCH   6  18
BRANCH   1  31
ATOM     30  C   UNL     1       4.254   4.792  -1.639  0.00  0.00    +0.009 C 
ATOM     31  C   UNL     1       3.782   4.626  -0.193  0.00  0.00    +0.034 C 
ENDBRANCH   1  31
TORSDOF 4
