REMARK  Name = ZINC00228737
REMARK  4 active torsions:
REMARK  status: ('A' for Active; 'I' for Inactive)
REMARK    1  A    between atoms: C_3  and  C_10
REMARK    2  A    between atoms: C_5  and  N_7
REMARK    3  A    between atoms: N_11  and  N_12
REMARK    4  A    between atoms: N_15  and  C_18
REMARK                            x       y       z     vdW  Elec       q    Type
REMARK                         _______ _______ _______ _____ _____    ______ ____
ROOT
ATOM      1  N   UNL     1       4.834   4.182   0.083  0.00  0.00    -0.253 N 
ATOM      2  C   UNL     1       6.124   3.478   0.080  0.00  0.00    +0.144 C 
ATOM      3  C   UNL     1       6.995   4.055  -1.043  0.00  0.00    +0.125 C 
ATOM      4  N   UNL     1       6.988   5.521  -0.936  0.00  0.00    -0.327 N 
ATOM      5  C   UNL     1       5.698   6.225  -0.932  0.00  0.00    +0.125 C 
ATOM      6  C   UNL     1       4.828   5.648   0.185  0.00  0.00    +0.144 C 
ENDROOT
BRANCH   4   7
ATOM      7  C   UNL     1       8.187   6.232  -0.838  0.00  0.00    +0.030 A 
ATOM      8  C   UNL     1       9.401   5.570  -0.969  0.00  0.00    +0.024 A 
ATOM      9  C   UNL     1      10.585   6.276  -0.872  0.00  0.00    +0.022 A 
ATOM     10  C   UNL     1      10.562   7.641  -0.646  0.00  0.00    +0.041 A 
ATOM     11  C   UNL     1       9.354   8.303  -0.516  0.00  0.00    +0.022 A 
ATOM     12  C   UNL     1       8.167   7.603  -0.617  0.00  0.00    +0.024 A 
ATOM     13 CL   UNL     1      12.051   8.524  -0.525  0.00  0.00    -0.084 Cl
ENDBRANCH   4   7
BRANCH   1  15
ATOM     14  C   UNL     1       3.644   2.172   0.006  0.00  0.00    +0.138 C 
ATOM     15  N   UNL     1       3.632   3.469  -0.014  0.00  0.00    -0.192 NA
BRANCH  14  18
ATOM     16  C   UNL     1      -0.029   1.400   0.004  0.00  0.00    +0.003 A 
ATOM     17  C   UNL     1       1.156   2.107  -0.003  0.00  0.00    +0.009 A 
ATOM     18  C   UNL     1       2.373   1.423   0.013  0.00  0.00    -0.003 A 
ATOM     19  C   UNL     1       2.382   0.026   0.034  0.00  0.00    +0.042 A 
ATOM     20  C   UNL     1       1.190  -0.668   0.040  0.00  0.00    +0.127 A 
ATOM     21  C   UNL     1      -0.013   0.017   0.025  0.00  0.00    +0.033 A 
BRANCH  20  22
ATOM     22  N   UNL     1       1.198  -2.148   0.062  0.00  0.00    +0.056 N 
ATOM     23  O   UNL     1       2.248  -2.747   0.076  0.00  0.00    -0.126 OA
ATOM     24  O   UNL     1       0.154  -2.757   0.067  0.00  0.00    -0.126 OA
ENDBRANCH  20  22
ENDBRANCH  14  18
ENDBRANCH   1  15
TORSDOF 4
