REMARK  Name = ZINC05536060
REMARK  8 active torsions:
REMARK  status: ('A' for Active; 'I' for Inactive)
REMARK    1  A    between atoms: C_1  and  C_2
REMARK    2  A    between atoms: C_3  and  C_27
REMARK    3  A    between atoms: C_4  and  N_26
REMARK    4  A    between atoms: N_5  and  C_18
REMARK    5  A    between atoms: C_8  and  N_9
REMARK    6  A    between atoms: N_10  and  C_11
REMARK    7  A    between atoms: C_21  and  O_24
REMARK    8  A    between atoms: O_24  and  C_25
REMARK                            x       y       z     vdW  Elec       q    Type
REMARK                         _______ _______ _______ _____ _____    ______ ____
ROOT
ATOM      1  C   UNL     1       0.132   1.478  -0.357  0.00  0.00    +0.047 C 
ATOM      2  C   UNL     1       0.071  -0.017  -0.173  0.00  0.00    +0.003 A 
ATOM      3  C   UNL     1      -0.282  -0.853  -1.242  0.00  0.00    +0.095 A 
ATOM      4  C   UNL     1      -0.335  -2.239  -1.061  0.00  0.00    +0.122 A 
ATOM      5  N   UNL     1      -0.049  -2.803   0.142  0.00  0.00    -0.262 N 
ATOM      6  C   UNL     1       0.296  -2.046   1.200  0.00  0.00    +0.285 A 
ATOM      7  O   UNL     1       0.549  -2.571   2.270  0.00  0.00    -0.265 OA
ATOM      8  C   UNL     1       0.371  -0.591   1.061  0.00  0.00    +0.155 A 
ENDROOT
BRANCH   5   9
ATOM      9  C   UNL     1      -0.114  -4.197   0.282  0.00  0.00    +0.052 A 
ATOM     10  C   UNL     1       0.918  -4.992  -0.197  0.00  0.00    +0.030 A 
ATOM     11  C   UNL     1       0.854  -6.364  -0.057  0.00  0.00    +0.047 A 
ATOM     12  C   UNL     1      -0.242  -6.949   0.561  0.00  0.00    +0.120 A 
ATOM     13  C   UNL     1      -1.274  -6.154   1.040  0.00  0.00    +0.047 A 
ATOM     14  C   UNL     1      -1.208  -4.782   0.906  0.00  0.00    +0.030 A 
BRANCH  12  15
ATOM     15  O   UNL     1      -0.305  -8.300   0.699  0.00  0.00    -0.495 OA
ATOM     16  C   UNL     1      -1.462  -8.833   1.345  0.00  0.00    +0.277 C 
ENDBRANCH  12  15
ENDBRANCH   5   9
BRANCH   4  17
ATOM     17  N   UNL     1      -0.681  -3.040  -2.112  0.00  0.00    -0.343 N 
ATOM     18  H   UNL     1      -0.757  -2.665  -3.004  0.00  0.00    +0.144 HD
ATOM     19  H   UNL     1      -0.851  -3.984  -1.968  0.00  0.00    +0.144 HD
ENDBRANCH   4  17
BRANCH   8  20
ATOM     20  N   UNL     1       0.722   0.187   2.119  0.00  0.00    -0.143 NA
ATOM     21  N   UNL     1       1.097  -0.360   3.225  0.00  0.00    -0.149 NA
BRANCH  21  22
ATOM     22  C   UNL     1       1.451   0.423   4.289  0.00  0.00    +0.086 A 
ATOM     23  C   UNL     1       1.401   1.815   4.183  0.00  0.00    +0.031 A 
ATOM     24  C   UNL     1       1.758   2.599   5.260  0.00  0.00    +0.022 A 
ATOM     25  C   UNL     1       2.166   2.009   6.444  0.00  0.00    +0.041 A 
ATOM     26  C   UNL     1       2.218   0.629   6.556  0.00  0.00    +0.022 A 
ATOM     27  C   UNL     1       1.858  -0.166   5.489  0.00  0.00    +0.031 A 
ATOM     28 CL   UNL     1       2.616   3.003   7.795  0.00  0.00    -0.084 Cl
ENDBRANCH  21  22
ENDBRANCH   8  20
BRANCH   3  29
ATOM     29  C   UNL     1      -0.589  -0.286  -2.521  0.00  0.00    +0.103 C 
ATOM     30  N   UNL     1      -0.833   0.163  -3.536  0.00  0.00    -0.191 NA
ENDBRANCH   3  29
TORSDOF 6
