REMARK  Name = ZINC12313125
REMARK  8 active torsions:
REMARK  status: ('A' for Active; 'I' for Inactive)
REMARK    1  A    between atoms: C_1  and  C_2
REMARK    2  A    between atoms: C_2  and  C_4
REMARK    3  A    between atoms: C_2  and  N_12
REMARK    4  A    between atoms: C_4  and  C_5
REMARK    5  A    between atoms: C_5  and  C_6
REMARK    6  A    between atoms: C_13  and  C_15
REMARK    7  A    between atoms: N_17  and  C_18
REMARK    8  A    between atoms: N_22  and  C_23
REMARK                            x       y       z     vdW  Elec       q    Type
REMARK                         _______ _______ _______ _____ _____    ______ ____
ROOT
ATOM      1  C   UNL     1       5.779  -4.901   0.704  0.00  0.00    +0.304 C 
ATOM      2  O   UNL     1       4.740  -5.527   0.679  0.00  0.00    -0.265 OA
ATOM      3  N   UNL     1       6.918  -5.500   1.102  0.00  0.00    -0.262 N 
ATOM      4  H   UNL     1       7.758  -5.016   1.070  0.00  0.00    +0.157 HD
ENDROOT
BRANCH   3   5
ATOM      5  C   UNL     1       6.890  -6.815   1.559  0.00  0.00    +0.133 A 
ATOM      6  C   UNL     1       5.978  -7.782   1.199  0.00  0.00    +0.026 A 
ATOM      7  C   UNL     1       6.305  -8.945   1.875  0.00  0.00    +0.079 A 
ATOM      8  N   UNL     1       7.369  -8.704   2.628  0.00  0.00    -0.168 NA
ATOM      9  N   UNL     1       7.752  -7.374   2.445  0.00  0.00    -0.218 N 
ATOM     10  C   UNL     1       5.417 -10.162   1.618  0.00  0.00    +0.127 C 
ATOM     11  S   UNL     1       4.525  -9.660   0.089  0.00  0.00    -0.150 S 
ATOM     12  C   UNL     1       4.773  -7.846   0.263  0.00  0.00    +0.110 C 
BRANCH   9  13
ATOM     13  C   UNL     1       8.832  -6.732   3.066  0.00  0.00    +0.068 A 
ATOM     14  C   UNL     1       9.643  -5.873   2.336  0.00  0.00    +0.029 A 
ATOM     15  C   UNL     1      10.704  -5.238   2.950  0.00  0.00    +0.022 A 
ATOM     16  C   UNL     1      10.965  -5.464   4.291  0.00  0.00    +0.041 A 
ATOM     17  C   UNL     1      10.161  -6.324   5.019  0.00  0.00    +0.022 A 
ATOM     18  C   UNL     1       9.096  -6.958   4.410  0.00  0.00    +0.029 A 
ATOM     19 CL   UNL     1      12.304  -4.670   5.059  0.00  0.00    -0.084 Cl
ENDBRANCH   9  13
ENDBRANCH   3   5
BRANCH   1  21
ATOM     20  N   UNL     1       4.655  -2.865  -0.103  0.00  0.00    -0.305 N 
ATOM     21  C   UNL     1       5.795  -3.465   0.294  0.00  0.00    +0.300 C 
ATOM     22  O   UNL     1       6.834  -2.838   0.320  0.00  0.00    -0.265 OA
ATOM     23  H   UNL     1       3.825  -3.366  -0.124  0.00  0.00    +0.149 HD
BRANCH  20  25
ATOM     24  C   UNL     1       5.068  -1.351  -1.980  0.00  0.00    +0.028 C 
ATOM     25  C   UNL     1       4.671  -1.457  -0.506  0.00  0.00    +0.071 C 
BRANCH  25  26
ATOM     26  C   UNL     1       3.279  -0.854  -0.309  0.00  0.00    +0.026 C 
BRANCH  26  27
ATOM     27  C   UNL     1       2.933  -0.846   1.182  0.00  0.00    +0.037 C 
BRANCH  27  28
ATOM     28  C   UNL     1       1.561  -0.253   1.376  0.00  0.00    -0.047 A 
ATOM     29  C   UNL     1       0.446  -1.070   1.358  0.00  0.00    +0.003 A 
ATOM     30  C   UNL     1      -0.812  -0.525   1.536  0.00  0.00    +0.000 A 
ATOM     31  C   UNL     1      -0.956   0.836   1.731  0.00  0.00    +0.000 A 
ATOM     32  C   UNL     1       0.160   1.652   1.749  0.00  0.00    +0.000 A 
ATOM     33  C   UNL     1       1.418   1.108   1.571  0.00  0.00    +0.003 A 
ENDBRANCH  27  28
ENDBRANCH  26  27
ENDBRANCH  25  26
ENDBRANCH  20  25
ENDBRANCH   1  21
TORSDOF 7
