REMARK  Name = ZINC02082005
REMARK  10 active torsions:
REMARK  status: ('A' for Active; 'I' for Inactive)
REMARK    1  A    between atoms: C_1  and  C_2
REMARK    2  A    between atoms: C_2  and  C_3
REMARK    3  A    between atoms: C_3  and  C_4
REMARK    4  A    between atoms: C_11  and  N_16
REMARK    5  A    between atoms: C_12  and  C_13
REMARK    6  A    between atoms: C_17  and  C_19
REMARK    7  A    between atoms: C_20  and  C_21
REMARK    8  A    between atoms: C_24  and  C_27
REMARK    9  A    between atoms: C_27  and  C_28
REMARK   10  A    between atoms: C_27  and  C_29
REMARK                            x       y       z     vdW  Elec       q    Type
REMARK                         _______ _______ _______ _____ _____    ______ ____
ROOT
ATOM      1  C   UNL     1      -6.985   8.144  11.434  0.00  0.00    -0.006 C 
ATOM      2  C   UNL     1      -5.922   9.229  11.236  0.00  0.00    +0.008 C 
ATOM      3  C   UNL     1      -5.606   9.382   9.748  0.00  0.00    +0.037 C 
ATOM      4  C   UNL     1      -5.268   8.011   9.175  0.00  0.00    -0.023 A 
ATOM      5  C   UNL     1      -5.623   6.880   9.822  0.00  0.00    -0.004 A 
ATOM      6  S   UNL     1      -5.035   5.566   8.792  0.00  0.00    -0.077 S 
ATOM      7  C   UNL     1      -4.318   6.503   7.523  0.00  0.00    +0.085 A 
ATOM      8  C   UNL     1      -4.557   7.811   7.923  0.00  0.00    +0.068 A 
ATOM      9  C   UNL     1      -6.359   6.776  11.121  0.00  0.00    +0.046 C 
ENDROOT
BRANCH   8  10
ATOM     10  C   UNL     1      -4.110   8.948   7.113  0.00  0.00    +0.244 C 
ATOM     11  O   UNL     1      -4.841   9.411   6.257  0.00  0.00    -0.270 OA
ATOM     12  N   UNL     1      -2.888   9.480   7.316  0.00  0.00    -0.325 N 
ATOM     13  H   UNL     1      -2.305   9.111   7.997  0.00  0.00    +0.145 HD
ATOM     14  H   UNL     1      -2.592  10.232   6.779  0.00  0.00    +0.145 HD
ENDBRANCH   8  10
BRANCH   7  15
ATOM     15  N   UNL     1      -3.669   6.057   6.384  0.00  0.00    -0.276 N 
ATOM     16  C   UNL     1      -3.530   4.735   6.163  0.00  0.00    +0.241 C 
ATOM     17  O   UNL     1      -3.975   3.933   6.963  0.00  0.00    -0.270 OA
ATOM     18  H   UNL     1      -3.314   6.696   5.746  0.00  0.00    +0.156 HD
BRANCH  16  19
ATOM     19  C   UNL     1      -2.844   4.263   4.959  0.00  0.00    +0.068 C 
ATOM     20  C   UNL     1      -2.705   2.940   4.737  0.00  0.00    +0.013 C 
BRANCH  20  21
ATOM     21  C   UNL     1      -2.015   2.465   3.527  0.00  0.00    -0.025 A 
ATOM     22  C   UNL     1      -1.869   1.094   3.293  0.00  0.00    +0.008 A 
ATOM     23  C   UNL     1      -1.222   0.657   2.156  0.00  0.00    +0.004 A 
ATOM     24  C   UNL     1      -0.718   1.572   1.248  0.00  0.00    -0.045 A 
ATOM     25  C   UNL     1      -0.854   2.930   1.475  0.00  0.00    +0.004 A 
ATOM     26  C   UNL     1      -1.503   3.383   2.604  0.00  0.00    +0.008 A 
BRANCH  24  27
ATOM     27  C   UNL     1      -0.013   1.086   0.008  0.00  0.00    +0.013 C 
ATOM     28  C   UNL     1       1.423   1.615  -0.003  0.00  0.00    +0.012 C 
ATOM     29  C   UNL     1      -0.753   1.593  -1.232  0.00  0.00    +0.012 C 
ENDBRANCH  24  27
ENDBRANCH  20  21
ENDBRANCH  16  19
ENDBRANCH   7  15
BRANCH   1  30
ATOM     30  C   UNL     1      -7.476   8.164  12.883  0.00  0.00    +0.003 C 
BRANCH  30  32
ATOM     31  C   UNL     1      -9.114   7.186  14.495  0.00  0.00    +0.004 C 
ATOM     32  C   UNL     1      -8.623   7.166  13.047  0.00  0.00    -0.003 C 
ENDBRANCH  30  32
ENDBRANCH   1  30
TORSDOF 7
