REMARK  Name = ZINC67166206
REMARK  7 active torsions:
REMARK  status: ('A' for Active; 'I' for Inactive)
REMARK    1  A    between atoms: C_6  and  C_7
REMARK    2  A    between atoms: C_7  and  N_8
REMARK    3  A    between atoms: C_9  and  C_11
REMARK    4  A    between atoms: C_11  and  C_12
REMARK    5  A    between atoms: C_12  and  C_13
REMARK    6  A    between atoms: C_13  and  C_14
REMARK    7  A    between atoms: C_14  and  C_15
REMARK                            x       y       z     vdW  Elec       q    Type
REMARK                         _______ _______ _______ _____ _____    ______ ____
ROOT
ATOM      1  C   UNL     1      -3.311  -1.946  -3.024  0.00  0.00    +0.096 C 
ENDROOT
BRANCH   1   3
ATOM      2  N   UNL     1      -1.725  -1.019  -1.367  0.00  0.00    -0.311 N 
ATOM      3  C   UNL     1      -2.866  -1.696  -1.606  0.00  0.00    +0.213 C 
ATOM      4  O   UNL     1      -3.534  -2.105  -0.680  0.00  0.00    -0.276 OA
ATOM      5  H   UNL     1      -1.191  -0.692  -2.108  0.00  0.00    +0.149 HD
BRANCH   2   6
ATOM      6  C   UNL     1      -1.292  -0.776   0.011  0.00  0.00    +0.139 C 
BRANCH   6  12
ATOM      7  C   UNL     1      -0.017   1.378   0.010  0.00  0.00    +0.005 A 
ATOM      8  C   UNL     1       1.171   2.083   0.002  0.00  0.00    +0.004 A 
ATOM      9  C   UNL     1       2.381   1.411  -0.014  0.00  0.00    -0.044 A 
ATOM     10  C   UNL     1       2.400   0.028  -0.021  0.00  0.00    -0.044 A 
ATOM     11  C   UNL     1       1.208  -0.677  -0.014  0.00  0.00    +0.009 A 
ATOM     12  C   UNL     1       0.002  -0.004   0.002  0.00  0.00    -0.030 A 
ATOM     13  C   UNL     1       3.831  -0.464  -0.038  0.00  0.00    +0.036 C 
ATOM     14  C   UNL     1       4.671   0.753  -0.480  0.00  0.00    +0.009 C 
ATOM     15  C   UNL     1       3.799   1.942  -0.025  0.00  0.00    +0.036 C 
ENDBRANCH   6  12
ENDBRANCH   2   6
ENDBRANCH   1   3
BRANCH   1  16
ATOM     16  C   UNL     1      -4.625  -2.729  -3.015  0.00  0.00    +0.009 C 
BRANCH  16  17
ATOM     17  C   UNL     1      -5.078  -2.983  -4.455  0.00  0.00    +0.002 C 
BRANCH  17  18
ATOM     18  C   UNL     1      -6.392  -3.767  -4.446  0.00  0.00    +0.016 C 
BRANCH  18  19
ATOM     19  C   UNL     1      -6.844  -4.020  -5.885  0.00  0.00    +0.069 C 
ATOM     20  C   UNL     1      -8.147  -4.847  -5.919  0.00  0.00    +0.108 C 
ATOM     21  C   UNL     1      -9.133  -4.398  -7.001  0.00  0.00    +0.105 C 
ATOM     22  C   UNL     1      -8.625  -3.213  -7.850  0.00  0.00    +0.093 C 
ATOM     23  S   UNL     1      -7.385  -2.453  -6.696  0.00  0.00    -0.154 S 
ATOM     24  N   UNL     1      -9.272  -5.577  -7.871  0.00  0.00    -0.294 N 
ATOM     25  C   UNL     1      -8.502  -6.564  -7.393  0.00  0.00    +0.300 C 
ATOM     26  O   UNL     1      -8.423  -7.658  -7.918  0.00  0.00    -0.253 OA
ATOM     27  N   UNL     1      -7.827  -6.234  -6.293  0.00  0.00    -0.294 N 
ATOM     28  H   UNL     1      -9.830  -5.631  -8.662  0.00  0.00    +0.151 HD
ATOM     29  H   UNL     1      -7.221  -6.821  -5.814  0.00  0.00    +0.151 HD
ENDBRANCH  18  19
ENDBRANCH  17  18
ENDBRANCH  16  17
ENDBRANCH   1  16
TORSDOF 7
