REMARK  Name = ZINC22839325
REMARK  7 active torsions:
REMARK  status: ('A' for Active; 'I' for Inactive)
REMARK    1  A    between atoms: C_1  and  C_2
REMARK    2  A    between atoms: C_13  and  C_18
REMARK    3  A    between atoms: N_22  and  C_23
REMARK    4  A    between atoms: C_23  and  O_24
REMARK    5  A    between atoms: O_24  and  C_25
REMARK    6  A    between atoms: C_32  and  C_34
REMARK    7  A    between atoms: N_37  and  C_39
REMARK                            x       y       z     vdW  Elec       q    Type
REMARK                         _______ _______ _______ _____ _____    ______ ____
ROOT
ATOM      1  C   UNL     1      -0.018   1.503   0.010  0.00  0.00    +0.065 C 
ATOM      2  C   UNL     1       0.002  -0.004   0.002  0.00  0.00    +0.041 A 
ATOM      3  C   UNL     1       0.008  -0.790  -1.085  0.00  0.00    +0.048 A 
ATOM      4  C   UNL     1       0.029  -2.135  -0.656  0.00  0.00    +0.245 A 
ATOM      5  N   UNL     1       0.035  -2.141   0.646  0.00  0.00    -0.135 NA
ATOM      6  N   UNL     1       0.024  -0.809   1.090  0.00  0.00    -0.278 N 
ATOM      7  H   UNL     1       0.029  -0.516   2.014  0.00  0.00    +0.189 HD
ATOM      8  O   UNL     1       0.040  -3.171  -1.532  0.00  0.00    -0.418 OA
ATOM      9  C   UNL     1      -0.275  -2.920  -2.832  0.00  0.00    +0.232 A 
ATOM     10  C   UNL     1      -0.310  -1.654  -3.348  0.00  0.00    +0.071 A 
ATOM     11  C   UNL     1      -0.655  -1.535  -4.708  0.00  0.00    +0.167 A 
ATOM     12  N   UNL     1      -0.783  -0.500  -5.502  0.00  0.00    -0.205 NA
ATOM     13  C   UNL     1      -1.134  -0.918  -6.726  0.00  0.00    +0.200 A 
ATOM     14  N   UNL     1      -1.235  -2.239  -6.729  0.00  0.00    -0.142 NA
ATOM     15  N   UNL     1      -0.934  -2.670  -5.446  0.00  0.00    -0.201 N 
ATOM     16  C   UNL     1      -0.879  -3.900  -4.875  0.00  0.00    +0.229 A 
ATOM     17  N   UNL     1      -0.557  -3.982  -3.609  0.00  0.00    -0.201 NA
ATOM     18  C   UNL     1      -0.004  -0.419  -2.545  0.00  0.00    +0.098 C 
ENDROOT
BRANCH  18  19
ATOM     19  C   UNL     1       1.346   0.121  -2.941  0.00  0.00    +0.002 A 
ATOM     20  C   UNL     1       2.561  -0.567  -2.867  0.00  0.00    +0.139 A 
ATOM     21  N   UNL     1       3.507   0.227  -3.298  0.00  0.00    -0.180 NA
ATOM     22  N   UNL     1       2.923   1.447  -3.661  0.00  0.00    -0.274 N 
ATOM     23  C   UNL     1       1.595   1.355  -3.438  0.00  0.00    +0.112 A 
ATOM     24  C   UNL     1       3.627   2.616  -4.194  0.00  0.00    +0.172 C 
ENDBRANCH  18  19
BRANCH  13  25
ATOM     25  C   UNL     1      -1.371  -0.039  -7.894  0.00  0.00    +0.111 A 
ATOM     26  C   UNL     1      -1.267   1.323  -7.916  0.00  0.00    +0.052 A 
ATOM     27  C   UNL     1      -1.573   1.753  -9.207  0.00  0.00    +0.135 A 
ATOM     28  N   UNL     1      -1.851   0.706  -9.942  0.00  0.00    -0.176 NA
ATOM     29  N   UNL     1      -1.728  -0.440  -9.146  0.00  0.00    -0.225 N 
BRANCH  29  30
ATOM     30  C   UNL     1      -1.946  -1.822  -9.582  0.00  0.00    +0.374 C 
BRANCH  30  31
ATOM     31  O   UNL     1      -3.317  -2.172  -9.385  0.00  0.00    -0.470 OA
BRANCH  31  32
ATOM     32  C   UNL     1      -3.690  -3.430  -9.742  0.00  0.00    +0.123 A 
ATOM     33  C   UNL     1      -2.754  -4.310 -10.264  0.00  0.00    +0.047 A 
ATOM     34  C   UNL     1      -3.135  -5.588 -10.626  0.00  0.00    +0.023 A 
ATOM     35  C   UNL     1      -4.449  -5.990 -10.467  0.00  0.00    +0.041 A 
ATOM     36  C   UNL     1      -5.384  -5.114  -9.946  0.00  0.00    +0.023 A 
ATOM     37  C   UNL     1      -5.006  -3.837  -9.577  0.00  0.00    +0.047 A 
ATOM     38 CL   UNL     1      -4.925  -7.596 -10.923  0.00  0.00    -0.084 Cl
ENDBRANCH  31  32
ENDBRANCH  30  31
ENDBRANCH  29  30
ENDBRANCH  13  25
TORSDOF 5
