REMARK  Name = ZINC04986765
REMARK  5 active torsions:
REMARK  status: ('A' for Active; 'I' for Inactive)
REMARK    1  A    between atoms: C_1  and  C_2
REMARK    2  A    between atoms: C_7  and  C_13
REMARK    3  A    between atoms: C_23  and  C_25
REMARK    4  A    between atoms: C_25  and  O_27
REMARK    5  A    between atoms: O_27  and  C_28
REMARK                            x       y       z     vdW  Elec       q    Type
REMARK                         _______ _______ _______ _____ _____    ______ ____
ROOT
ATOM      1  C   UNL     1      -0.013   1.086   0.008  0.00  0.00    +0.009 C 
ATOM      2  C   UNL     1      -0.729   1.579   1.267  0.00  0.00    +0.013 C 
ATOM      3  C   UNL     1       0.009   1.074   2.509  0.00  0.00    +0.055 C 
ATOM      4  C   UNL     1      -0.000  -0.434   2.525  0.00  0.00    +0.018 C 
ATOM      5  C   UNL     1      -1.024  -1.125   1.980  0.00  0.00    +0.021 C 
ATOM      6  C   UNL     1      -1.014  -2.636   2.013  0.00  0.00    +0.063 C 
ATOM      7  C   UNL     1      -0.360  -3.111   3.311  0.00  0.00    +0.109 C 
ATOM      8  C   UNL     1       0.936  -2.369   3.512  0.00  0.00    +0.218 C 
ATOM      9  O   UNL     1       1.875  -2.924   4.042  0.00  0.00    -0.275 OA
ATOM     10  N   UNL     1       1.053  -1.094   3.104  0.00  0.00    -0.289 N 
ATOM     11  C   UNL     1      -2.108  -0.470   1.373  0.00  0.00    +0.175 C 
ATOM     12  O   UNL     1      -3.018  -1.126   0.907  0.00  0.00    -0.291 OA
ATOM     13  C   UNL     1      -2.160   1.032   1.292  0.00  0.00    +0.171 C 
ATOM     14  H   UNL     1       1.898  -0.632   3.222  0.00  0.00    +0.155 HD
ENDROOT
BRANCH   6  15
ATOM     15  C   UNL     1      -0.233  -3.159   0.835  0.00  0.00    -0.038 A 
ATOM     16  C   UNL     1      -0.849  -3.978  -0.093  0.00  0.00    +0.006 A 
ATOM     17  C   UNL     1      -0.134  -4.458  -1.174  0.00  0.00    +0.022 A 
ATOM     18  C   UNL     1       1.199  -4.120  -1.327  0.00  0.00    +0.059 A 
ATOM     19  C   UNL     1       1.815  -3.300  -0.398  0.00  0.00    +0.060 A 
ATOM     20  C   UNL     1       1.096  -2.815   0.681  0.00  0.00    +0.025 A 
ATOM     21 CL   UNL     1       3.487  -2.874  -0.589  0.00  0.00    -0.082 Cl
ATOM     22 CL   UNL     1       2.097  -4.722  -2.685  0.00  0.00    -0.082 Cl
ENDBRANCH   6  15
BRANCH  13  23
ATOM     23  C   UNL     1      -2.880   1.445   0.035  0.00  0.00    +0.318 C 
ATOM     24  O   UNL     1      -2.310   2.109  -0.798  0.00  0.00    -0.250 OA
BRANCH  23  25
ATOM     25  O   UNL     1      -4.156   1.076  -0.160  0.00  0.00    -0.467 OA
ATOM     26  C   UNL     1      -4.787   1.510  -1.394  0.00  0.00    +0.280 C 
ENDBRANCH  23  25
ENDBRANCH  13  23
TORSDOF 3
