REMARK  Name = ZINC35553351
REMARK  6 active torsions:
REMARK  status: ('A' for Active; 'I' for Inactive)
REMARK    1  A    between atoms: C_1  and  O_2
REMARK    2  A    between atoms: O_2  and  C_3
REMARK    3  A    between atoms: C_3  and  C_5
REMARK    4  A    between atoms: C_9  and  N_10
REMARK    5  A    between atoms: C_11  and  C_13
REMARK    6  A    between atoms: C_17  and  C_19
REMARK                            x       y       z     vdW  Elec       q    Type
REMARK                         _______ _______ _______ _____ _____    ______ ____
ROOT
ATOM      1  N   UNL     1      -1.446  -2.346   2.362  0.00  0.00    -0.275 N 
ATOM      2  C   UNL     1      -2.309  -3.215   2.925  0.00  0.00    +0.249 C 
ATOM      3  O   UNL     1      -2.090  -4.409   2.873  0.00  0.00    -0.270 OA
ATOM      4  H   UNL     1      -1.620  -1.393   2.404  0.00  0.00    +0.156 HD
ENDROOT
BRANCH   1   9
ATOM      5  C   UNL     1       0.680  -2.076   1.092  0.00  0.00    +0.091 A 
ATOM      6  C   UNL     1       1.781  -2.814   0.496  0.00  0.00    -0.021 A 
ATOM      7  C   UNL     1       1.687  -4.153   0.635  0.00  0.00    -0.004 A 
ATOM      8  S   UNL     1       0.183  -4.409   1.530  0.00  0.00    -0.077 S 
ATOM      9  C   UNL     1      -0.310  -2.815   1.722  0.00  0.00    +0.087 A 
ATOM     10  C   UNL     1       2.656  -5.180   0.134  0.00  0.00    +0.043 C 
ATOM     11  C   UNL     1       3.582  -4.508  -0.891  0.00  0.00    +0.005 C 
ATOM     12  C   UNL     1       4.097  -3.191  -0.306  0.00  0.00    +0.005 C 
ATOM     13  C   UNL     1       2.956  -2.174  -0.228  0.00  0.00    +0.037 C 
BRANCH   5  14
ATOM     14  C   UNL     1       0.621  -0.614   1.034  0.00  0.00    +0.342 C 
ATOM     15  O   UNL     1       1.131   0.051   1.916  0.00  0.00    -0.245 OA
BRANCH  14  17
ATOM     16  C   UNL     1      -0.017   1.425   0.010  0.00  0.00    +0.280 C 
ATOM     17  O   UNL     1       0.002  -0.004   0.002  0.00  0.00    -0.464 OA
ENDBRANCH  14  17
ENDBRANCH   5  14
ENDBRANCH   1   9
BRANCH   2  18
ATOM     18  C   UNL     1      -3.523  -2.713   3.609  0.00  0.00    +0.040 A 
ATOM     19  C   UNL     1      -3.796  -1.343   3.676  0.00  0.00    +0.033 A 
ATOM     20  C   UNL     1      -4.941  -0.920   4.324  0.00  0.00    +0.112 A 
ATOM     21  N   UNL     1      -5.768  -1.787   4.873  0.00  0.00    -0.259 NA
ATOM     22  C   UNL     1      -5.548  -3.086   4.833  0.00  0.00    +0.048 A 
ATOM     23  C   UNL     1      -4.431  -3.597   4.201  0.00  0.00    +0.037 A 
BRANCH  22  24
ATOM     24  C   UNL     1      -6.532  -4.027   5.480  0.00  0.00    +0.014 C 
ATOM     25  C   UNL     1      -5.773  -5.079   6.291  0.00  0.00    +0.016 C 
ATOM     26  C   UNL     1      -6.772  -6.034   6.948  0.00  0.00    -0.010 C 
ATOM     27  C   UNL     1      -7.698  -5.245   7.876  0.00  0.00    +0.007 C 
ATOM     28  C   UNL     1      -8.456  -4.192   7.064  0.00  0.00    -0.010 C 
ATOM     29  C   UNL     1      -7.458  -3.237   6.408  0.00  0.00    +0.016 C 
ATOM     30  C   UNL     1      -9.288  -4.884   5.982  0.00  0.00    +0.007 C 
ATOM     31  C   UNL     1      -8.362  -5.674   5.055  0.00  0.00    -0.010 C 
ATOM     32  C   UNL     1      -7.603  -6.726   5.866  0.00  0.00    +0.007 C 
ATOM     33  C   UNL     1      -7.363  -4.719   4.398  0.00  0.00    +0.016 C 
ENDBRANCH  22  24
ENDBRANCH   2  18
TORSDOF 5
