REMARK  Name = ZINC42869814
REMARK  7 active torsions:
REMARK  status: ('A' for Active; 'I' for Inactive)
REMARK    1  A    between atoms: C_1  and  C_2
REMARK    2  A    between atoms: C_8  and  C_10
REMARK    3  A    between atoms: C_10  and  N_11
REMARK    4  A    between atoms: N_11  and  S_12
REMARK    5  A    between atoms: S_12  and  C_15
REMARK    6  A    between atoms: C_20  and  N_21
REMARK    7  A    between atoms: N_21  and  N_22
REMARK                            x       y       z     vdW  Elec       q    Type
REMARK                         _______ _______ _______ _____ _____    ______ ____
ROOT
ATOM      1  S   UNL     1       0.466   0.114   5.224  0.00  0.00    +0.062 S 
ATOM      2  O   UNL     1       1.257  -0.518   6.221  0.00  0.00    -0.153 OA
ATOM      3  O   UNL     1       0.584   1.497   4.921  0.00  0.00    -0.153 OA
ENDROOT
BRANCH   1   4
ATOM      4  C   UNL     1      -1.217  -0.164   5.666  0.00  0.00    +0.147 A 
ATOM      5  C   UNL     1      -2.114   0.889   5.705  0.00  0.00    +0.048 A 
ATOM      6  C   UNL     1      -3.431   0.625   6.058  0.00  0.00    +0.038 A 
ATOM      7  C   UNL     1      -3.804  -0.672   6.358  0.00  0.00    +0.128 A 
ATOM      8  N   UNL     1      -2.926  -1.655   6.312  0.00  0.00    -0.236 NA
ATOM      9  C   UNL     1      -1.663  -1.444   5.974  0.00  0.00    +0.159 A 
ATOM     10 BR   UNL     1      -4.701   2.024   6.129  0.00  0.00    -0.049 Br
BRANCH   9  11
ATOM     11  N   UNL     1      -0.773  -2.512   5.933  0.00  0.00    -0.266 N 
ATOM     12  H   UNL     1       0.129  -2.379   5.603  0.00  0.00    +0.167 HD
BRANCH  11  13
ATOM     13  N   UNL     1      -1.170  -3.749   6.356  0.00  0.00    -0.255 NA
ATOM     14  H   UNL     1      -1.991  -4.056   5.856  0.00  0.00    +0.140 HD
ATOM     15  H   UNL     1      -0.421  -4.419   6.267  0.00  0.00    +0.140 HD
ENDBRANCH  11  13
ENDBRANCH   9  11
ENDBRANCH   1   4
BRANCH   1  16
ATOM     16  N   UNL     1       0.743  -0.705   3.812  0.00  0.00    -0.190 NA
ATOM     17  H   UNL     1       1.369  -1.446   3.795  0.00  0.00    +0.148 HD
BRANCH  16  18
ATOM     18  C   UNL     1       0.042  -0.311   2.587  0.00  0.00    +0.109 C 
BRANCH  18  25
ATOM     19  C   UNL     1      -0.154   0.884  -0.081  0.00  0.00    +0.008 C 
ATOM     20  C   UNL     1      -0.066  -0.631   0.111  0.00  0.00    -0.010 C 
ATOM     21  C   UNL     1       0.629  -1.259  -1.099  0.00  0.00    +0.003 C 
ATOM     22  C   UNL     1       2.038  -0.679  -1.235  0.00  0.00    +0.000 C 
ATOM     23  C   UNL     1       2.841  -0.987   0.031  0.00  0.00    +0.000 C 
ATOM     24  C   UNL     1       2.146  -0.359   1.241  0.00  0.00    +0.005 C 
ATOM     25  C   UNL     1       0.736  -0.939   1.377  0.00  0.00    +0.007 C 
ENDBRANCH  18  25
ENDBRANCH  16  18
ENDBRANCH   1  16
TORSDOF 6
