REMARK  Name = ZINC01890448
REMARK  16 active torsions:
REMARK  status: ('A' for Active; 'I' for Inactive)
REMARK    1  A    between atoms: C_1  and  C_2
REMARK    2  A    between atoms: C_2  and  C_3
REMARK    3  A    between atoms: C_3  and  C_4
REMARK    4  A    between atoms: C_4  and  O_5
REMARK    5  A    between atoms: O_5  and  C_6
REMARK    6  A    between atoms: C_6  and  C_8
REMARK    7  A    between atoms: C_9  and  N_40
REMARK    8  A    between atoms: C_14  and  C_15
REMARK    9  A    between atoms: C_19  and  O_21
REMARK   10  A    between atoms: O_21  and  C_22
REMARK   11  A    between atoms: C_25  and  C_36
REMARK   12  A    between atoms: C_26  and  C_28
REMARK   13  A    between atoms: C_32  and  O_34
REMARK   14  A    between atoms: O_34  and  C_35
REMARK   15  A    between atoms: C_36  and  O_38
REMARK   16  A    between atoms: O_38  and  C_39
REMARK                            x       y       z     vdW  Elec       q    Type
REMARK                         _______ _______ _______ _____ _____    ______ ____
ROOT
ATOM      1  C   UNL     1       1.968  -4.114  -3.085  0.00  0.00    +0.087 C 
ATOM      2  C   UNL     1       2.487  -5.321  -3.414  0.00  0.00    +0.115 C 
ATOM      3  N   UNL     1       3.311  -5.537  -4.522  0.00  0.00    -0.257 N 
ATOM      4  C   UNL     1       3.821  -6.745  -4.838  0.00  0.00    +0.271 A 
ATOM      5  O   UNL     1       3.578  -7.722  -4.155  0.00  0.00    -0.266 OA
ATOM      6  C   UNL     1       4.676  -6.853  -6.027  0.00  0.00    +0.079 A 
ATOM      7  C   UNL     1       5.298  -7.941  -6.545  0.00  0.00    +0.028 C 
ATOM      8  S   UNL     1       4.676  -5.164  -6.607  0.00  0.00    -0.065 S 
ATOM      9  C   UNL     1       3.628  -4.474  -5.342  0.00  0.00    +0.100 A 
ATOM     10  C   UNL     1       3.186  -3.192  -5.147  0.00  0.00    +0.079 C 
ATOM     11  C   UNL     1       2.285  -2.918  -3.959  0.00  0.00    +0.099 C 
ENDROOT
BRANCH   7  12
ATOM     12  C   UNL     1       6.240  -7.787  -7.663  0.00  0.00    -0.020 A 
ATOM     13  C   UNL     1       6.584  -8.892  -8.450  0.00  0.00    +0.008 A 
ATOM     14  C   UNL     1       7.468  -8.742  -9.497  0.00  0.00    +0.004 A 
ATOM     15  C   UNL     1       8.017  -7.503  -9.774  0.00  0.00    +0.045 A 
ATOM     16  C   UNL     1       7.682  -6.399  -9.000  0.00  0.00    +0.121 A 
ATOM     17  C   UNL     1       6.792  -6.535  -7.949  0.00  0.00    +0.053 A 
BRANCH  16  18
ATOM     18  O   UNL     1       8.225  -5.185  -9.278  0.00  0.00    -0.495 OA
ATOM     19  C   UNL     1       9.132  -5.117 -10.380  0.00  0.00    +0.277 C 
ENDBRANCH  16  18
ENDBRANCH   7  12
BRANCH  11  20
ATOM     20  C   UNL     1       2.946  -1.869  -3.103  0.00  0.00    -0.032 A 
ATOM     21  C   UNL     1       4.137  -2.154  -2.459  0.00  0.00    +0.005 A 
ATOM     22  C   UNL     1       4.746  -1.194  -1.673  0.00  0.00    +0.004 A 
ATOM     23  C   UNL     1       4.167   0.052  -1.528  0.00  0.00    +0.045 A 
ATOM     24  C   UNL     1       2.973   0.340  -2.173  0.00  0.00    +0.120 A 
ATOM     25  C   UNL     1       2.366  -0.623  -2.967  0.00  0.00    +0.050 A 
BRANCH  24  26
ATOM     26  O   UNL     1       2.402   1.565  -2.033  0.00  0.00    -0.495 OA
ATOM     27  C   UNL     1       3.085   2.508  -1.205  0.00  0.00    +0.277 C 
ENDBRANCH  24  26
ENDBRANCH  11  20
BRANCH   2  28
ATOM     28  N   UNL     1       2.186  -6.392  -2.615  0.00  0.00    -0.344 N 
ATOM     29  H   UNL     1       1.993  -7.255  -3.013  0.00  0.00    +0.144 HD
ATOM     30  H   UNL     1       2.166  -6.287  -1.651  0.00  0.00    +0.144 HD
ENDBRANCH   2  28
BRANCH   1  31
ATOM     31  C   UNL     1       1.147  -3.975  -1.956  0.00  0.00    +0.339 C 
ATOM     32  O   UNL     1       0.817  -4.959  -1.318  0.00  0.00    -0.245 OA
BRANCH  31  33
ATOM     33  O   UNL     1       0.723  -2.751  -1.576  0.00  0.00    -0.461 OA
BRANCH  33  34
ATOM     34  C   UNL     1      -0.110  -2.683  -0.417  0.00  0.00    +0.232 C 
BRANCH  34  35
ATOM     35  C   UNL     1      -0.487  -1.226  -0.144  0.00  0.00    +0.041 C 
BRANCH  35  37
ATOM     36  C   UNL     1      -1.756   0.304   1.370  0.00  0.00    +0.004 C 
ATOM     37  C   UNL     1      -1.379  -1.153   1.097  0.00  0.00    -0.000 C 
ENDBRANCH  35  37
ENDBRANCH  34  35
ENDBRANCH  33  34
ENDBRANCH  31  33
ENDBRANCH   1  31
BRANCH  10  38
ATOM     38  C   UNL     1       3.552  -2.163  -6.026  0.00  0.00    +0.338 C 
ATOM     39  O   UNL     1       4.273  -2.403  -6.978  0.00  0.00    -0.245 OA
BRANCH  38  40
ATOM     40  O   UNL     1       3.105  -0.905  -5.816  0.00  0.00    -0.465 OA
ATOM     41  C   UNL     1       3.518   0.093  -6.751  0.00  0.00    +0.280 C 
ENDBRANCH  38  40
ENDBRANCH  10  38
TORSDOF 12
