REMARK  Name = ZINC09110788
REMARK  10 active torsions:
REMARK  status: ('A' for Active; 'I' for Inactive)
REMARK    1  A    between atoms: C_1  and  C_2
REMARK    2  A    between atoms: C_6  and  O_8
REMARK    3  A    between atoms: O_8  and  C_9
REMARK    4  A    between atoms: C_9  and  C_10
REMARK    5  A    between atoms: C_10  and  C_12
REMARK    6  A    between atoms: C_10  and  O_39
REMARK    7  A    between atoms: C_12  and  N_13
REMARK    8  A    between atoms: N_21  and  C_38
REMARK    9  A    between atoms: C_28  and  C_31
REMARK   10  A    between atoms: C_31  and  C_32
REMARK                            x       y       z     vdW  Elec       q    Type
REMARK                         _______ _______ _______ _____ _____    ______ ____
ROOT
ATOM      1  N   UNL     1       2.693  -4.368   0.219  0.00  0.00    -0.304 N 
ATOM      2  C   UNL     1       2.452  -5.135   1.351  0.00  0.00    +0.153 A 
ATOM      3  C   UNL     1       2.518  -4.895   2.735  0.00  0.00    +0.280 A 
ATOM      4  O   UNL     1       2.862  -3.804   3.155  0.00  0.00    -0.265 OA
ATOM      5  N   UNL     1       2.200  -5.887   3.593  0.00  0.00    -0.273 N 
ATOM      6  H   UNL     1       2.250  -5.721   4.577  0.00  0.00    +0.173 HD
ATOM      7  C   UNL     1       1.818  -7.095   3.143  0.00  0.00    +0.331 A 
ATOM      8  O   UNL     1       1.539  -7.965   3.946  0.00  0.00    -0.246 OA
ATOM      9  N   UNL     1       1.736  -7.365   1.827  0.00  0.00    -0.280 N 
ATOM     10  C   UNL     1       2.050  -6.387   0.897  0.00  0.00    +0.170 A 
ATOM     11  N   UNL     1       2.064  -6.355  -0.436  0.00  0.00    -0.196 NA
ATOM     12  C   UNL     1       2.444  -5.164  -0.854  0.00  0.00    +0.201 A 
ATOM     13  N   UNL     1       2.569  -4.786  -2.171  0.00  0.00    -0.301 N 
ATOM     14  C   UNL     1       1.460  -3.913  -2.575  0.00  0.00    +0.108 C 
ATOM     15  C   UNL     1       1.707  -3.396  -3.994  0.00  0.00    +0.023 C 
ATOM     16  C   UNL     1       1.820  -4.585  -4.953  0.00  0.00    -0.004 C 
ATOM     17  C   UNL     1       2.951  -5.504  -4.482  0.00  0.00    +0.023 C 
ATOM     18  C   UNL     1       2.668  -5.960  -3.049  0.00  0.00    +0.108 C 
ATOM     19  C   UNL     1       1.315  -8.694   1.377  0.00  0.00    +0.155 C 
ENDROOT
BRANCH   1  20
ATOM     20  C   UNL     1       3.137  -2.972   0.187  0.00  0.00    +0.160 C 
BRANCH  20  21
ATOM     21  C   UNL     1       4.660  -2.924   0.045  0.00  0.00    +0.172 C 
BRANCH  21  22
ATOM     22  O   UNL     1       5.265  -3.486   1.211  0.00  0.00    -0.387 OA
ATOM     23  H   UNL     1       4.987  -3.070   2.038  0.00  0.00    +0.210 HD
ENDBRANCH  21  22
BRANCH  21  24
ATOM     24  C   UNL     1       5.112  -1.471  -0.115  0.00  0.00    +0.262 C 
BRANCH  24  25
ATOM     25  O   UNL     1       6.518  -1.435  -0.364  0.00  0.00    -0.489 OA
BRANCH  25  31
ATOM     26  C   UNL     1      10.495   1.265  -1.209  0.00  0.00    +0.044 C 
ATOM     27  C   UNL     1       9.017   1.146  -0.944  0.00  0.00    -0.047 A 
ATOM     28  C   UNL     1       8.234   2.283  -0.869  0.00  0.00    +0.003 A 
ATOM     29  C   UNL     1       6.877   2.177  -0.625  0.00  0.00    +0.004 A 
ATOM     30  C   UNL     1       6.300   0.933  -0.456  0.00  0.00    +0.045 A 
ATOM     31  C   UNL     1       7.083  -0.210  -0.531  0.00  0.00    +0.121 A 
ATOM     32  C   UNL     1       8.445  -0.100  -0.771  0.00  0.00    +0.049 A 
ENDBRANCH  25  31
ENDBRANCH  24  25
ENDBRANCH  21  24
ENDBRANCH  20  21
ENDBRANCH   1  20
BRANCH  16  33
ATOM     33  C   UNL     1       2.127  -4.079  -6.364  0.00  0.00    +0.038 C 
BRANCH  33  34
ATOM     34  C   UNL     1       0.959  -3.275  -6.874  0.00  0.00    -0.047 A 
ATOM     35  C   UNL     1      -0.057  -3.899  -7.574  0.00  0.00    +0.003 A 
ATOM     36  C   UNL     1      -1.130  -3.162  -8.038  0.00  0.00    +0.000 A 
ATOM     37  C   UNL     1      -1.184  -1.800  -7.810  0.00  0.00    +0.000 A 
ATOM     38  C   UNL     1      -0.166  -1.175  -7.114  0.00  0.00    +0.000 A 
ATOM     39  C   UNL     1       0.905  -1.912  -6.646  0.00  0.00    +0.003 A 
ENDBRANCH  33  34
ENDBRANCH  16  33
TORSDOF 8
