REMARK  Name = ZINC39711271
REMARK  15 active torsions:
REMARK  status: ('A' for Active; 'I' for Inactive)
REMARK    1  A    between atoms: C_1  and  C_2
REMARK    2  A    between atoms: C_6  and  C_15
REMARK    3  A    between atoms: C_13  and  C_14
REMARK    4  A    between atoms: C_15  and  C_17
REMARK    5  A    between atoms: C_15  and  N_27
REMARK    6  A    between atoms: N_22  and  C_23
REMARK    7  A    between atoms: C_23  and  C_24
REMARK    8  A    between atoms: C_23  and  C_25
REMARK    9  A    between atoms: C_23  and  C_26
REMARK   10  A    between atoms: N_27  and  C_28
REMARK   11  A    between atoms: N_27  and  C_37
REMARK   12  A    between atoms: C_28  and  C_29
REMARK   13  A    between atoms: C_32  and  O_35
REMARK   14  A    between atoms: O_35  and  C_36
REMARK   15  A    between atoms: C_37  and  C_38
REMARK                            x       y       z     vdW  Elec       q    Type
REMARK                         _______ _______ _______ _____ _____    ______ ____
ROOT
ATOM      1  C   UNL     1      -0.824  -4.565  -2.863  0.00  0.00    -0.009 C 
ENDROOT
BRANCH   1   7
ATOM      2  C   UNL     1       0.208   2.180  -0.753  0.00  0.00    +0.044 C 
ATOM      3  C   UNL     1       0.149   0.692  -0.523  0.00  0.00    -0.047 A 
ATOM      4  C   UNL     1       0.298  -0.150  -1.579  0.00  0.00    +0.013 A 
ATOM      5  C   UNL     1       0.239  -1.593  -1.344  0.00  0.00    -0.007 A 
ATOM      6  C   UNL     1       0.383  -2.476  -2.373  0.00  0.00    -0.006 C 
ATOM      7  C   UNL     1       0.309  -3.953  -2.037  0.00  0.00    +0.088 C 
ATOM      8  C   UNL     1       0.081  -4.326  -0.590  0.00  0.00    +0.223 C 
ATOM      9  O   UNL     1       0.013  -5.496  -0.264  0.00  0.00    -0.275 OA
ATOM     10  N   UNL     1      -0.044  -3.375   0.321  0.00  0.00    -0.285 N 
ATOM     11  C   UNL     1       0.021  -2.076   0.031  0.00  0.00    +0.041 A 
ATOM     12  C   UNL     1      -0.121  -1.119   1.053  0.00  0.00    +0.027 A 
ATOM     13  C   UNL     1      -0.051   0.208   0.769  0.00  0.00    -0.046 A 
ATOM     14  C   UNL     1      -0.202   1.197   1.897  0.00  0.00    +0.044 C 
ATOM     15  H   UNL     1      -0.190  -3.636   1.244  0.00  0.00    +0.155 HD
ENDBRANCH   1   7
BRANCH   1  16
ATOM     16  C   UNL     1      -2.163  -3.991  -2.396  0.00  0.00    +0.205 C 
ATOM     17  N   UNL     1      -2.518  -4.527  -1.075  0.00  0.00    -0.152 NA
ATOM     18  N   UNL     1      -3.578  -5.151  -1.169  0.00  0.00    -0.070 NA
ATOM     19  N   UNL     1      -4.093  -5.152  -2.465  0.00  0.00    -0.179 N 
ATOM     20  N   UNL     1      -3.255  -4.440  -3.286  0.00  0.00    -0.183 NA
ATOM     21  H   UNL     1      -4.915  -5.586  -2.741  0.00  0.00    +0.191 HD
BRANCH  20  22
ATOM     22  C   UNL     1      -3.950  -3.293  -3.886  0.00  0.00    +0.035 C 
ATOM     23  C   UNL     1      -2.948  -2.442  -4.668  0.00  0.00    +0.029 C 
ATOM     24  C   UNL     1      -5.040  -3.797  -4.834  0.00  0.00    +0.029 C 
ATOM     25  C   UNL     1      -4.585  -2.447  -2.781  0.00  0.00    +0.029 C 
ENDBRANCH  20  22
ENDBRANCH   1  16
BRANCH   1  26
ATOM     26  N   UNL     1      -0.827  -6.023  -2.684  0.00  0.00    +0.389 N 
ATOM     27  H   UNL     1      -1.084  -6.245  -1.734  0.00  0.00    -0.081 HD
BRANCH  26  28
ATOM     28  C   UNL     1       0.514  -6.554  -2.966  0.00  0.00    -0.042 C 
BRANCH  28  29
ATOM     29  C   UNL     1       0.857  -6.311  -4.413  0.00  0.00    -0.064 A 
ATOM     30  C   UNL     1       0.467  -7.222  -5.377  0.00  0.00    +0.005 A 
ATOM     31  C   UNL     1       0.780  -7.002  -6.705  0.00  0.00    +0.046 A 
ATOM     32  C   UNL     1       1.486  -5.864  -7.070  0.00  0.00    +0.120 A 
ATOM     33  C   UNL     1       1.875  -4.951  -6.101  0.00  0.00    +0.046 A 
ATOM     34  C   UNL     1       1.555  -5.174  -4.775  0.00  0.00    +0.005 A 
BRANCH  32  35
ATOM     35  O   UNL     1       1.796  -5.646  -8.375  0.00  0.00    -0.495 OA
ATOM     36  C   UNL     1       2.524  -4.454  -8.678  0.00  0.00    +0.277 C 
ENDBRANCH  32  35
ENDBRANCH  28  29
ENDBRANCH  26  28
BRANCH  26  37
ATOM     37  C   UNL     1      -1.796  -6.628  -3.608  0.00  0.00    -0.046 C 
BRANCH  37  38
ATOM     38  C   UNL     1      -1.833  -8.142  -3.389  0.00  0.00    +0.102 C 
ATOM     39  C   UNL     1      -2.818  -8.791  -4.385  0.00  0.00    +0.032 C 
ATOM     40  C   UNL     1      -3.499  -9.881  -3.513  0.00  0.00    +0.030 C 
ATOM     41  C   UNL     1      -3.527  -9.177  -2.133  0.00  0.00    +0.160 C 
ATOM     42  O   UNL     1      -2.300  -8.431  -2.066  0.00  0.00    -0.378 OA
ENDBRANCH  37  38
ENDBRANCH  26  37
ENDBRANCH   1  26
TORSDOF 9
