REMARK  Name = ZINC38613147
REMARK  4 active torsions:
REMARK  status: ('A' for Active; 'I' for Inactive)
REMARK    1  A    between atoms: C_1  and  C_2
REMARK    2  A    between atoms: C_5  and  N_9
REMARK    3  A    between atoms: C_6  and  C_8
REMARK    4  A    between atoms: C_14  and  C_15
REMARK                            x       y       z     vdW  Elec       q    Type
REMARK                         _______ _______ _______ _____ _____    ______ ____
ROOT
ATOM      1  N   UNL     1       0.057  -4.141  -0.021  0.00  0.00    -0.225 NA
ATOM      2  C   UNL     1      -0.040  -4.792  -1.156  0.00  0.00    +0.166 C 
ATOM      3  N   UNL     1      -0.065  -4.281  -2.436  0.00  0.00    -0.260 N 
ATOM      4  C   UNL     1      -0.167  -5.084  -3.482  0.00  0.00    +0.256 C 
ATOM      5  C   UNL     1      -0.251  -6.539  -3.201  0.00  0.00    +0.078 C 
ATOM      6  C   UNL     1      -0.362  -7.598  -4.083  0.00  0.00    +0.026 C 
ATOM      7  S   UNL     1      -0.162  -6.554  -1.416  0.00  0.00    -0.049 S 
ATOM      8  O   UNL     1      -0.191  -4.651  -4.618  0.00  0.00    -0.269 OA
ATOM      9  H   UNL     1      -0.007  -3.323  -2.571  0.00  0.00    +0.157 HD
ENDROOT
BRANCH   6  10
ATOM     10  C   UNL     1      -0.427  -8.904  -3.599  0.00  0.00    -0.018 C 
ATOM     11  C   UNL     1      -0.535 -10.077  -4.348  0.00  0.00    +0.003 A 
ATOM     12  C   UNL     1      -0.608 -10.320  -5.736  0.00  0.00    +0.010 A 
ATOM     13  C   UNL     1      -0.710 -11.594  -6.193  0.00  0.00    +0.001 A 
ATOM     14  C   UNL     1      -0.745 -12.685  -5.319  0.00  0.00    +0.002 A 
ATOM     15  C   UNL     1      -0.678 -12.527  -3.975  0.00  0.00    +0.026 A 
ATOM     16  C   UNL     1      -0.571 -11.223  -3.422  0.00  0.00    +0.043 A 
ATOM     17  N   UNL     1      -0.492 -10.810  -2.175  0.00  0.00    -0.380 N 
ATOM     18  C   UNL     1      -0.389  -9.348  -2.154  0.00  0.00    +0.149 C 
ATOM     19  H   UNL     1      -0.497 -11.383  -1.393  0.00  0.00    +0.160 HD
ENDBRANCH   6  10
BRANCH   1  24
ATOM     20  C   UNL     1       0.051   1.503   0.006  0.00  0.00    +0.044 C 
ATOM     21  C   UNL     1       0.053  -0.004  -0.001  0.00  0.00    -0.050 A 
ATOM     22  C   UNL     1      -0.931  -0.690  -0.692  0.00  0.00    +0.005 A 
ATOM     23  C   UNL     1      -0.936  -2.069  -0.703  0.00  0.00    +0.028 A 
ATOM     24  C   UNL     1       0.056  -2.773  -0.015  0.00  0.00    +0.069 A 
ATOM     25  C   UNL     1       1.046  -2.074   0.679  0.00  0.00    -0.025 A 
ATOM     26  C   UNL     1       1.041  -0.694   0.677  0.00  0.00    +0.008 A 
ATOM     27  C   UNL     1       2.120  -2.824   1.424  0.00  0.00    +0.046 C 
ENDBRANCH   1  24
TORSDOF 2
