REMARK  Name = ZINC63193818
REMARK  6 active torsions:
REMARK  status: ('A' for Active; 'I' for Inactive)
REMARK    1  A    between atoms: C_1  and  C_2
REMARK    2  A    between atoms: C_2  and  C_3
REMARK    3  A    between atoms: C_3  and  N_4
REMARK    4  A    between atoms: C_12  and  C_14
REMARK    5  A    between atoms: C_14  and  C_16
REMARK    6  A    between atoms: C_14  and  N_17
REMARK                            x       y       z     vdW  Elec       q    Type
REMARK                         _______ _______ _______ _____ _____    ______ ____
ROOT
ATOM      1  N   UNL     1       1.002  -1.920  -1.121  0.00  0.00    -0.299 N 
ATOM      2  C   UNL     1       1.475  -2.587  -2.193  0.00  0.00    +0.302 C 
ATOM      3  O   UNL     1       1.874  -1.974  -3.163  0.00  0.00    -0.253 OA
ATOM      4  N   UNL     1       1.506  -3.934  -2.188  0.00  0.00    -0.284 N 
ATOM      5  C   UNL     1       0.898  -4.693  -1.086  0.00  0.00    +0.109 C 
ATOM      6  C   UNL     1       1.942  -5.659  -0.517  0.00  0.00    +0.019 C 
ATOM      7  C   UNL     1       2.496  -6.529  -1.649  0.00  0.00    +0.003 C 
ATOM      8  C   UNL     1       3.178  -5.639  -2.691  0.00  0.00    +0.021 C 
ATOM      9  C   UNL     1       2.143  -4.673  -3.287  0.00  0.00    +0.063 C 
ATOM     10  H   UNL     1       0.616  -2.408  -0.378  0.00  0.00    +0.150 HD
ENDROOT
BRANCH   9  11
ATOM     11  C   UNL     1       2.840  -3.689  -4.229  0.00  0.00    -0.057 C 
ATOM     12  C   UNL     1       3.386  -4.446  -5.442  0.00  0.00    -0.012 C 
BRANCH  11  13
ATOM     13  N   UNL     1       3.947  -3.034  -3.521  0.00  0.00    +0.381 N 
ATOM     14  H   UNL     1       4.656  -3.717  -3.299  0.00  0.00    -0.090 HD
ATOM     15  H   UNL     1       4.345  -2.317  -4.110  0.00  0.00    -0.090 HD
ATOM     16  H   UNL     1       3.603  -2.617  -2.670  0.00  0.00    -0.090 HD
ENDBRANCH  11  13
ENDBRANCH   9  11
BRANCH   1  17
ATOM     17  C   UNL     1       1.071  -0.457  -1.081  0.00  0.00    +0.105 C 
BRANCH  17  19
ATOM     18  C   UNL     1       0.543   1.573   0.277  0.00  0.00    +0.005 C 
ATOM     19  C   UNL     1       0.471   0.045   0.234  0.00  0.00    +0.015 C 
ENDBRANCH  17  19
ENDBRANCH   1  17
TORSDOF 4
