REMARK  Name = ZINC07015305
REMARK  2 active torsions:
REMARK  status: ('A' for Active; 'I' for Inactive)
REMARK    1  A    between atoms: C_10  and  C_11
REMARK    2  A    between atoms: C_11  and  N_12
REMARK                            x       y       z     vdW  Elec       q    Type
REMARK                         _______ _______ _______ _____ _____    ______ ____
ROOT
ATOM      1  N   UNL     1       3.923   2.667  -1.356  0.00  0.00    -0.220 N 
ATOM      2  C   UNL     1       4.638   3.304  -2.307  0.00  0.00    +0.252 C 
ATOM      3  O   UNL     1       5.174   4.387  -2.220  0.00  0.00    -0.272 OA
ATOM      4  C   UNL     1       4.629   2.381  -3.504  0.00  0.00    +0.144 C 
ATOM      5  C   UNL     1       3.955   3.059  -4.693  0.00  0.00    +0.081 C 
ATOM      6  C   UNL     1       4.206   2.204  -5.943  0.00  0.00    +0.232 C 
ATOM      7  O   UNL     1       5.611   2.183  -6.201  0.00  0.00    -0.492 OA
ATOM      8  C   UNL     1       6.445   1.883  -5.172  0.00  0.00    +0.126 A 
ATOM      9  C   UNL     1       6.029   1.963  -3.853  0.00  0.00    +0.027 A 
ATOM     10  C   UNL     1       6.914   1.653  -2.834  0.00  0.00    +0.010 A 
ATOM     11  C   UNL     1       8.206   1.262  -3.126  0.00  0.00    +0.001 A 
ATOM     12  C   UNL     1       8.623   1.179  -4.442  0.00  0.00    +0.004 A 
ATOM     13  C   UNL     1       7.747   1.488  -5.462  0.00  0.00    +0.046 A 
ATOM     14  N   UNL     1       3.842   1.225  -3.057  0.00  0.00    -0.281 N 
ATOM     15  C   UNL     1       3.476   1.481  -1.787  0.00  0.00    +0.310 C 
ATOM     16  O   UNL     1       2.812   0.722  -1.108  0.00  0.00    -0.252 OA
ATOM     17  H   UNL     1       3.631   0.431  -3.574  0.00  0.00    +0.152 HD
ENDROOT
BRANCH   1  18
ATOM     18  C   UNL     1       3.671   3.205  -0.017  0.00  0.00    +0.153 C 
BRANCH  18  28
ATOM     19  C   UNL     1       0.753   5.422   3.557  0.00  0.00    +0.001 A 
ATOM     20  C   UNL     1       1.983   4.767   3.563  0.00  0.00    +0.001 A 
ATOM     21  C   UNL     1       2.518   4.270   2.415  0.00  0.00    +0.009 A 
ATOM     22  C   UNL     1       1.825   4.422   1.202  0.00  0.00    -0.013 A 
ATOM     23  C   UNL     1       0.577   5.093   1.194  0.00  0.00    -0.018 A 
ATOM     24  C   UNL     1       0.056   5.593   2.400  0.00  0.00    +0.008 A 
ATOM     25  C   UNL     1      -0.117   5.244  -0.018  0.00  0.00    +0.008 A 
ATOM     26  C   UNL     1       0.419   4.746  -1.167  0.00  0.00    +0.001 A 
ATOM     27  C   UNL     1       1.646   4.088  -1.160  0.00  0.00    +0.006 A 
ATOM     28  C   UNL     1       2.346   3.921  -0.004  0.00  0.00    -0.022 A 
ENDBRANCH  18  28
ENDBRANCH   1  18
TORSDOF 2
