REMARK  Name = ZINC66667894
REMARK  11 active torsions:
REMARK  status: ('A' for Active; 'I' for Inactive)
REMARK    1  A    between atoms: C_1  and  C_2
REMARK    2  A    between atoms: C_2  and  C_3
REMARK    3  A    between atoms: C_2  and  C_4
REMARK    4  A    between atoms: C_2  and  C_5
REMARK    5  A    between atoms: C_10  and  O_11
REMARK    6  A    between atoms: O_11  and  C_12
REMARK    7  A    between atoms: C_12  and  C_13
REMARK    8  A    between atoms: C_13  and  N_14
REMARK    9  A    between atoms: N_17  and  C_18
REMARK   10  A    between atoms: C_23  and  C_24
REMARK   11  A    between atoms: C_24  and  C_25
REMARK                            x       y       z     vdW  Elec       q    Type
REMARK                         _______ _______ _______ _____ _____    ______ ____
ROOT
ATOM      1  N   UNL     1      -1.531  -4.791   0.247  0.00  0.00    -0.296 N 
ATOM      2  C   UNL     1      -2.288  -5.433   1.159  0.00  0.00    +0.304 C 
ATOM      3  O   UNL     1      -1.768  -6.183   1.962  0.00  0.00    -0.253 OA
ATOM      4  N   UNL     1      -3.623  -5.244   1.180  0.00  0.00    -0.269 N 
ATOM      5  H   UNL     1      -1.946  -4.193  -0.394  0.00  0.00    +0.150 HD
ATOM      6  H   UNL     1      -4.029  -4.585   0.595  0.00  0.00    +0.156 HD
ENDROOT
BRANCH   4   7
ATOM      7  C   UNL     1      -4.423  -5.997   2.046  0.00  0.00    +0.038 A 
ATOM      8  C   UNL     1      -3.989  -7.240   2.490  0.00  0.00    +0.023 A 
ATOM      9  C   UNL     1      -4.780  -7.981   3.346  0.00  0.00    +0.002 A 
ATOM     10  C   UNL     1      -6.004  -7.487   3.760  0.00  0.00    +0.000 A 
ATOM     11  C   UNL     1      -6.439  -6.251   3.319  0.00  0.00    +0.006 A 
ATOM     12  C   UNL     1      -5.649  -5.502   2.469  0.00  0.00    -0.017 A 
BRANCH  12  13
ATOM     13  C   UNL     1      -6.121  -4.152   1.994  0.00  0.00    +0.132 C 
BRANCH  13  14
ATOM     14  C   UNL     1      -6.804  -4.300   0.658  0.00  0.00    +0.215 C 
ATOM     15  O   UNL     1      -6.898  -5.393   0.143  0.00  0.00    -0.276 OA
ATOM     16  N   UNL     1      -7.310  -3.216   0.037  0.00  0.00    -0.329 N 
ATOM     17  H   UNL     1      -7.235  -2.341   0.449  0.00  0.00    +0.145 HD
ATOM     18  H   UNL     1      -7.749  -3.311  -0.823  0.00  0.00    +0.145 HD
ENDBRANCH  13  14
ENDBRANCH  12  13
ENDBRANCH   4   7
BRANCH   1  19
ATOM     19  C   UNL     1      -0.081  -4.997   0.224  0.00  0.00    +0.146 C 
BRANCH  19  20
ATOM     20  C   UNL     1       0.535  -4.158  -0.897  0.00  0.00    +0.248 C 
BRANCH  20  21
ATOM     21  O   UNL     1       0.355  -2.770  -0.608  0.00  0.00    -0.490 OA
BRANCH  21  27
ATOM     22  C   UNL     1       0.708  -0.520  -1.294  0.00  0.00    -0.000 A 
ATOM     23  C   UNL     1       1.216   0.380  -2.211  0.00  0.00    +0.008 A 
ATOM     24  C   UNL     1       1.859  -0.076  -3.347  0.00  0.00    +0.001 A 
ATOM     25  C   UNL     1       1.994  -1.435  -3.569  0.00  0.00    +0.004 A 
ATOM     26  C   UNL     1       1.489  -2.339  -2.655  0.00  0.00    +0.046 A 
ATOM     27  C   UNL     1       0.849  -1.883  -1.512  0.00  0.00    +0.124 A 
BRANCH  22  29
ATOM     28  C   UNL     1      -0.010   1.508  -0.062  0.00  0.00    +0.015 C 
ATOM     29  C   UNL     1       0.008  -0.022  -0.057  0.00  0.00    -0.009 C 
ATOM     30  C   UNL     1       0.751  -0.519   1.185  0.00  0.00    +0.015 C 
ATOM     31  C   UNL     1      -1.428  -0.548  -0.036  0.00  0.00    +0.015 C 
ENDBRANCH  22  29
ENDBRANCH  21  27
ENDBRANCH  20  21
ENDBRANCH  19  20
ENDBRANCH   1  19
TORSDOF 8
