REMARK  Name = ZINC54729418
REMARK  5 active torsions:
REMARK  status: ('A' for Active; 'I' for Inactive)
REMARK    1  A    between atoms: C_1  and  C_2
REMARK    2  A    between atoms: C_5  and  C_7
REMARK    3  A    between atoms: C_7  and  C_9
REMARK    4  A    between atoms: C_7  and  N_10
REMARK    5  A    between atoms: C_21  and  C_23
REMARK                            x       y       z     vdW  Elec       q    Type
REMARK                         _______ _______ _______ _____ _____    ______ ____
ROOT
ATOM      1  N   UNL     1       2.134  -4.085   1.038  0.00  0.00    -0.292 N 
ATOM      2  C   UNL     1       2.502  -5.287   1.525  0.00  0.00    +0.303 C 
ATOM      3  O   UNL     1       1.791  -6.258   1.351  0.00  0.00    -0.253 OA
ATOM      4  N   UNL     1       3.658  -5.412   2.207  0.00  0.00    -0.278 N 
ATOM      5  C   UNL     1       4.468  -4.226   2.524  0.00  0.00    +0.115 C 
ATOM      6  C   UNL     1       4.496  -4.056   4.051  0.00  0.00    +0.062 C 
ATOM      7  C   UNL     1       4.704  -5.395   4.679  0.00  0.00    -0.004 A 
ATOM      8  C   UNL     1       4.550  -6.620   4.106  0.00  0.00    -0.017 A 
ATOM      9  C   UNL     1       4.800  -7.726   4.917  0.00  0.00    +0.013 A 
ATOM     10  C   UNL     1       5.183  -7.549   6.203  0.00  0.00    +0.046 A 
ATOM     11  S   UNL     1       5.207  -5.768   6.338  0.00  0.00    -0.101 S 
ATOM     12  C   UNL     1       4.123  -6.733   2.648  0.00  0.00    +0.105 C 
ATOM     13  C   UNL     1       2.988  -7.752   2.519  0.00  0.00    +0.033 C 
ATOM     14  H   UNL     1       2.662  -3.297   1.239  0.00  0.00    +0.151 HD
ENDROOT
BRANCH   1  15
ATOM     15  C   UNL     1       0.935  -3.970   0.203  0.00  0.00    +0.108 C 
ATOM     16  C   UNL     1       1.293  -4.287  -1.250  0.00  0.00    +0.033 C 
BRANCH  15  21
ATOM     17  C   UNL     1      -0.149   1.582   0.514  0.00  0.00    +0.051 C 
ATOM     18  C   UNL     1      -0.122   0.077   0.441  0.00  0.00    -0.013 A 
ATOM     19  C   UNL     1      -1.159  -0.797   0.442  0.00  0.00    +0.011 A 
ATOM     20  C   UNL     1      -0.895  -2.151   0.366  0.00  0.00    +0.013 A 
ATOM     21  C   UNL     1       0.394  -2.566   0.293  0.00  0.00    +0.010 A 
ATOM     22  S   UNL     1       1.283  -1.018   0.323  0.00  0.00    -0.097 S 
ENDBRANCH  15  21
ENDBRANCH   1  15
TORSDOF 2
