REMARK  Name = ZINC59291770
REMARK  4 active torsions:
REMARK  status: ('A' for Active; 'I' for Inactive)
REMARK    1  A    between atoms: C_1  and  C_2
REMARK    2  A    between atoms: N_11  and  S_12
REMARK    3  A    between atoms: S_12  and  C_15
REMARK    4  A    between atoms: C_15  and  C_16
REMARK                            x       y       z     vdW  Elec       q    Type
REMARK                         _______ _______ _______ _____ _____    ______ ____
ROOT
ATOM      1  C   UNL     1      -0.018   1.503   0.010  0.00  0.00    +0.044 C 
ATOM      2  C   UNL     1       0.002  -0.004   0.002  0.00  0.00    -0.049 A 
ATOM      3  C   UNL     1       0.006  -0.699  -1.195  0.00  0.00    +0.005 A 
ATOM      4  C   UNL     1       0.025  -2.073  -1.221  0.00  0.00    +0.027 A 
ATOM      5  C   UNL     1       0.041  -2.818  -0.030  0.00  0.00    +0.055 A 
ATOM      6  C   UNL     1       0.037  -2.086   1.165  0.00  0.00    +0.039 A 
ATOM      7  C   UNL     1       0.023  -0.712   1.192  0.00  0.00    +0.020 A 
ATOM      8  S   UNL     1       0.061  -3.341   2.422  0.00  0.00    -0.048 S 
ATOM      9  C   UNL     1       0.076  -4.768   1.350  0.00  0.00    +0.192 A 
ATOM     10  N   UNL     1       0.061  -4.198   0.101  0.00  0.00    -0.332 N 
ATOM     11  N   UNL     1       0.095  -6.035   1.672  0.00  0.00    -0.108 NA
ATOM     12  H   UNL     1       0.065  -4.760  -0.690  0.00  0.00    +0.168 HD
ENDROOT
BRANCH  11  13
ATOM     13  S   UNL     1       0.107  -7.190   0.486  0.00  0.00    +0.076 S 
ATOM     14  O   UNL     1      -1.134  -7.029  -0.189  0.00  0.00    -0.151 OA
ATOM     15  O   UNL     1       1.335  -6.994  -0.200  0.00  0.00    -0.151 OA
BRANCH  13  16
ATOM     16  C   UNL     1       0.133  -8.771   1.376  0.00  0.00    +0.229 C 
BRANCH  16  17
ATOM     17  C   UNL     1       0.145  -9.906   0.384  0.00  0.00    -0.006 A 
ATOM     18  C   UNL     1      -1.047 -10.440  -0.070  0.00  0.00    +0.007 A 
ATOM     19  C   UNL     1      -1.036 -11.480  -0.980  0.00  0.00    +0.000 A 
ATOM     20  C   UNL     1       0.166 -11.988  -1.436  0.00  0.00    +0.001 A 
ATOM     21  C   UNL     1       1.358 -11.455  -0.983  0.00  0.00    +0.020 A 
ATOM     22  C   UNL     1       1.348 -10.409  -0.077  0.00  0.00    +0.046 A 
ATOM     23 CL   UNL     1       2.845  -9.735   0.487  0.00  0.00    -0.083 Cl
ENDBRANCH  16  17
ENDBRANCH  13  16
ENDBRANCH  11  13
TORSDOF 3
