REMARK  Name = ZINC08719359
REMARK  6 active torsions:
REMARK  status: ('A' for Active; 'I' for Inactive)
REMARK    1  A    between atoms: C_1  and  C_2
REMARK    2  A    between atoms: C_7  and  N_8
REMARK    3  A    between atoms: C_12  and  S_13
REMARK    4  A    between atoms: S_13  and  C_14
REMARK    5  A    between atoms: C_14  and  C_15
REMARK    6  A    between atoms: C_16  and  C_17
REMARK                            x       y       z     vdW  Elec       q    Type
REMARK                         _______ _______ _______ _____ _____    ______ ____
ROOT
ATOM      1  N   UNL     1       2.163   6.927   2.346  0.00  0.00    -0.258 N 
ATOM      2  C   UNL     1       1.911   8.180   1.859  0.00  0.00    +0.225 A 
ATOM      3  N   UNL     1       1.350   8.052   0.682  0.00  0.00    -0.112 NA
ATOM      4  N   UNL     1       1.243   6.684   0.398  0.00  0.00    -0.120 NA
ATOM      5  C   UNL     1       1.734   6.019   1.416  0.00  0.00    +0.198 A 
ATOM      6  N   UNL     1       2.197   9.379   2.501  0.00  0.00    -0.295 N 
ATOM      7  C   UNL     1       1.562   9.432   3.825  0.00  0.00    +0.136 C 
ATOM      8  C   UNL     1       1.952  10.739   4.520  0.00  0.00    +0.179 C 
ATOM      9  O   UNL     1       1.573  11.844   3.693  0.00  0.00    -0.377 OA
ATOM     10  C   UNL     1       2.173  11.824   2.396  0.00  0.00    +0.179 C 
ATOM     11  C   UNL     1       1.786  10.527   1.680  0.00  0.00    +0.136 C 
ENDROOT
BRANCH   1  18
ATOM     12  C   UNL     1       0.472   6.612   4.614  0.00  0.00    +0.046 C 
ATOM     13  C   UNL     1       1.969   6.464   4.711  0.00  0.00    -0.026 A 
ATOM     14  C   UNL     1       2.557   6.163   5.924  0.00  0.00    +0.005 A 
ATOM     15  C   UNL     1       3.930   6.032   6.015  0.00  0.00    +0.000 A 
ATOM     16  C   UNL     1       4.719   6.197   4.891  0.00  0.00    +0.002 A 
ATOM     17  C   UNL     1       4.137   6.493   3.674  0.00  0.00    +0.026 A 
ATOM     18  C   UNL     1       2.758   6.625   3.580  0.00  0.00    +0.055 A 
ENDBRANCH   1  18
BRANCH   5  19
ATOM     19  S   UNL     1       1.830   4.265   1.558  0.00  0.00    -0.082 S 
BRANCH  19  20
ATOM     20  C   UNL     1       1.101   3.659   0.011  0.00  0.00    +0.104 C 
BRANCH  20  21
ATOM     21  C   UNL     1       1.121   2.152   0.003  0.00  0.00    -0.015 C 
ATOM     22  C   UNL     1      -0.018   1.474   0.010  0.00  0.00    +0.004 C 
BRANCH  22  23
ATOM     23  C   UNL     1       0.002  -0.004   0.002  0.00  0.00    -0.025 A 
ATOM     24  C   UNL     1       1.218  -0.688  -0.019  0.00  0.00    +0.008 A 
ATOM     25  C   UNL     1       1.230  -2.068  -0.022  0.00  0.00    +0.001 A 
ATOM     26  C   UNL     1       0.040  -2.773  -0.014  0.00  0.00    +0.000 A 
ATOM     27  C   UNL     1      -1.169  -2.100   0.002  0.00  0.00    +0.001 A 
ATOM     28  C   UNL     1      -1.195  -0.721   0.010  0.00  0.00    +0.008 A 
ENDBRANCH  22  23
ENDBRANCH  20  21
ENDBRANCH  19  20
ENDBRANCH   5  19
TORSDOF 5
