REMARK  Name = ZINC06460705
REMARK  4 active torsions:
REMARK  status: ('A' for Active; 'I' for Inactive)
REMARK    1  A    between atoms: C_4  and  N_7
REMARK    2  A    between atoms: C_16  and  S_17
REMARK    3  A    between atoms: S_17  and  C_18
REMARK    4  A    between atoms: C_18  and  C_19
REMARK                            x       y       z     vdW  Elec       q    Type
REMARK                         _______ _______ _______ _____ _____    ______ ____
ROOT
ATOM      1  N   UNL     1       7.917   2.822  -2.538  0.00  0.00    -0.255 N 
ATOM      2  C   UNL     1       9.021   3.549  -2.283  0.00  0.00    +0.268 A 
ATOM      3  O   UNL     1       9.560   4.187  -3.170  0.00  0.00    -0.267 OA
ATOM      4  C   UNL     1       9.551   3.560  -0.955  0.00  0.00    +0.076 A 
ATOM      5  C   UNL     1      10.737   4.278  -0.460  0.00  0.00    -0.023 A 
ATOM      6  C   UNL     1      11.037   4.133   0.841  0.00  0.00    -0.004 A 
ATOM      7  S   UNL     1       9.784   3.046   1.483  0.00  0.00    -0.073 S 
ATOM      8  C   UNL     1       8.857   2.793  -0.008  0.00  0.00    +0.117 A 
ATOM      9  N   UNL     1       7.768   2.100  -0.321  0.00  0.00    -0.215 NA
ATOM     10  C   UNL     1       7.301   2.101  -1.553  0.00  0.00    +0.178 A 
ATOM     11  C   UNL     1      12.261   4.915   1.233  0.00  0.00    +0.043 C 
ATOM     12  C   UNL     1      12.458   5.929   0.085  0.00  0.00    +0.010 C 
ATOM     13  C   UNL     1      11.781   5.202  -1.094  0.00  0.00    +0.037 C 
ENDROOT
BRANCH   1  17
ATOM     14  C   UNL     1       6.348   2.770  -6.399  0.00  0.00    +0.000 A 
ATOM     15  C   UNL     1       5.925   3.728  -5.495  0.00  0.00    +0.002 A 
ATOM     16  C   UNL     1       6.443   3.747  -4.215  0.00  0.00    +0.026 A 
ATOM     17  C   UNL     1       7.389   2.804  -3.836  0.00  0.00    +0.052 A 
ATOM     18  C   UNL     1       7.816   1.848  -4.747  0.00  0.00    +0.026 A 
ATOM     19  C   UNL     1       7.290   1.830  -6.024  0.00  0.00    +0.002 A 
ENDBRANCH   1  17
BRANCH  10  20
ATOM     20  S   UNL     1       5.858   1.165  -1.935  0.00  0.00    -0.079 S 
BRANCH  20  21
ATOM     21  C   UNL     1       5.504   0.454  -0.309  0.00  0.00    +0.151 C 
BRANCH  21  22
ATOM     22  C   UNL     1       4.273  -0.412  -0.396  0.00  0.00    +0.118 A 
ATOM     23  N   UNL     1       4.274  -1.740  -0.688  0.00  0.00    -0.341 N 
ATOM     24  H   UNL     1       5.077  -2.305  -0.878  0.00  0.00    +0.167 HD
ATOM     25  C   UNL     1       2.960  -2.165  -0.671  0.00  0.00    +0.066 A 
ATOM     26  C   UNL     1       2.336  -3.386  -0.887  0.00  0.00    +0.028 A 
ATOM     27  C   UNL     1       0.963  -3.476  -0.798  0.00  0.00    +0.002 A 
ATOM     28  C   UNL     1       0.204  -2.358  -0.483  0.00  0.00    +0.002 A 
ATOM     29  C   UNL     1       0.801  -1.148  -0.267  0.00  0.00    +0.030 A 
ATOM     30  C   UNL     1       2.191  -1.032  -0.358  0.00  0.00    +0.089 A 
ATOM     31  N   UNL     1       3.055   0.003  -0.203  0.00  0.00    -0.232 NA
ENDBRANCH  21  22
ENDBRANCH  20  21
ENDBRANCH  10  20
TORSDOF 4
