REMARK  Name = ZINC10933529
REMARK  9 active torsions:
REMARK  status: ('A' for Active; 'I' for Inactive)
REMARK    1  A    between atoms: C_1  and  C_2
REMARK    2  A    between atoms: C_2  and  C_3
REMARK    3  A    between atoms: C_2  and  C_4
REMARK    4  A    between atoms: C_7  and  S_15
REMARK    5  A    between atoms: N_8  and  C_9
REMARK    6  A    between atoms: C_9  and  C_10
REMARK    7  A    between atoms: S_15  and  C_16
REMARK    8  A    between atoms: C_16  and  C_17
REMARK    9  A    between atoms: N_22  and  C_23
REMARK                            x       y       z     vdW  Elec       q    Type
REMARK                         _______ _______ _______ _____ _____    ______ ____
ROOT
ATOM      1  C   UNL     1      -6.734  -0.366   1.277  0.00  0.00    +0.173 C 
ENDROOT
BRANCH   1   2
ATOM      2  C   UNL     1      -8.239  -0.283   1.305  0.00  0.00    +0.231 C 
ATOM      3  O   UNL     1      -8.786   0.798   1.320  0.00  0.00    -0.274 OA
ATOM      4  N   UNL     1      -8.975  -1.412   1.313  0.00  0.00    -0.239 N 
ATOM      5  C   UNL     1     -10.321  -1.338   1.338  0.00  0.00    +0.310 C 
ATOM      6  O   UNL     1     -10.870  -0.254   1.353  0.00  0.00    -0.252 OA
ATOM      7  N   UNL     1     -11.057  -2.467   1.347  0.00  0.00    -0.267 N 
ATOM      8  H   UNL     1      -8.537  -2.277   1.302  0.00  0.00    +0.159 HD
ATOM      9  H   UNL     1     -10.623  -3.330   1.269  0.00  0.00    +0.156 HD
BRANCH   7  10
ATOM     10  C   UNL     1     -12.451  -2.392   1.466  0.00  0.00    +0.070 A 
ATOM     11  C   UNL     1     -13.144  -1.338   0.888  0.00  0.00    +0.026 A 
ATOM     12  C   UNL     1     -14.519  -1.269   1.004  0.00  0.00    +0.002 A 
ATOM     13  C   UNL     1     -15.205  -2.245   1.704  0.00  0.00    +0.003 A 
ATOM     14  C   UNL     1     -14.519  -3.295   2.286  0.00  0.00    +0.040 A 
ATOM     15  C   UNL     1     -13.143  -3.372   2.170  0.00  0.00    +0.145 A 
ATOM     16  F   UNL     1     -12.473  -4.397   2.740  0.00  0.00    -0.204 F 
ENDBRANCH   7  10
ENDBRANCH   1   2
BRANCH   1  17
ATOM     17  S   UNL     1      -6.038   1.305   1.272  0.00  0.00    -0.077 S 
BRANCH  17  21
ATOM     18  C   UNL     1      -2.145   1.062   1.200  0.00  0.00    +0.137 A 
ATOM     19  N   UNL     1      -2.506  -0.190   1.201  0.00  0.00    -0.133 NA
ATOM     20  N   UNL     1      -3.788  -0.280   1.224  0.00  0.00    -0.122 NA
ATOM     21  C   UNL     1      -4.319   0.920   1.239  0.00  0.00    +0.192 A 
ATOM     22  N   UNL     1      -3.287   1.814   1.229  0.00  0.00    -0.298 N 
BRANCH  18  24
ATOM     23  C   UNL     1      -0.026   1.090  -0.087  0.00  0.00    +0.015 C 
ATOM     24  C   UNL     1      -0.732   1.584   1.177  0.00  0.00    +0.051 C 
ATOM     25  C   UNL     1       0.019   1.079   2.411  0.00  0.00    +0.015 C 
ENDBRANCH  18  24
BRANCH  22  26
ATOM     26  C   UNL     1      -3.383   3.276   1.244  0.00  0.00    +0.199 C 
BRANCH  26  27
ATOM     27  C   UNL     1      -3.444   3.790  -0.172  0.00  0.00    +0.125 A 
ATOM     28  C   UNL     1      -4.564   3.981  -0.892  0.00  0.00    +0.046 A 
ATOM     29  C   UNL     1      -4.161   4.471  -2.155  0.00  0.00    +0.041 A 
ATOM     30  C   UNL     1      -2.818   4.542  -2.135  0.00  0.00    +0.195 A 
ATOM     31  O   UNL     1      -2.389   4.128  -0.931  0.00  0.00    -0.466 OA
ENDBRANCH  26  27
ENDBRANCH  22  26
ENDBRANCH  17  21
ENDBRANCH   1  17
TORSDOF 7
