REMARK  Name = ZINC38654650
REMARK  10 active torsions:
REMARK  status: ('A' for Active; 'I' for Inactive)
REMARK    1  A    between atoms: C_1  and  O_2
REMARK    2  A    between atoms: O_2  and  C_3
REMARK    3  A    between atoms: C_6  and  C_9
REMARK    4  A    between atoms: C_10  and  C_11
REMARK    5  A    between atoms: C_11  and  O_13
REMARK    6  A    between atoms: O_13  and  C_14
REMARK    7  A    between atoms: C_21  and  N_36
REMARK    8  A    between atoms: C_22  and  C_34
REMARK    9  A    between atoms: C_23  and  C_25
REMARK   10  A    between atoms: C_28  and  N_31
REMARK                            x       y       z     vdW  Elec       q    Type
REMARK                         _______ _______ _______ _____ _____    ______ ____
ROOT
ATOM      1  C   UNL     1       3.777  -6.461  -6.656  0.00  0.00    +0.135 A 
ATOM      2  C   UNL     1       4.395  -5.739  -7.667  0.00  0.00    +0.047 A 
ATOM      3  C   UNL     1       4.966  -6.400  -8.737  0.00  0.00    +0.012 A 
ATOM      4  C   UNL     1       4.924  -7.781  -8.806  0.00  0.00    +0.008 A 
ATOM      5  C   UNL     1       4.308  -8.507  -7.799  0.00  0.00    +0.138 A 
ATOM      6  C   UNL     1       3.738  -7.844  -6.720  0.00  0.00    +0.093 A 
ATOM      7  O   UNL     1       4.258  -9.861  -7.849  0.00  0.00    -0.441 OA
ATOM      8  C   UNL     1       4.446 -10.496  -9.017  0.00  0.00    +0.199 C 
ATOM      9  C   UNL     1       5.053  -9.898 -10.069  0.00  0.00    +0.098 C 
ATOM     10  C   UNL     1       5.553  -8.483  -9.980  0.00  0.00    +0.098 C 
ENDROOT
BRANCH  10  11
ATOM     11  C   UNL     1       7.051  -8.492  -9.813  0.00  0.00    -0.035 A 
ATOM     12  C   UNL     1       7.620  -9.109  -8.715  0.00  0.00    +0.007 A 
ATOM     13  C   UNL     1       8.994  -9.117  -8.562  0.00  0.00    +0.033 A 
ATOM     14  C   UNL     1       9.799  -8.509  -9.507  0.00  0.00    +0.126 A 
ATOM     15  C   UNL     1       9.229  -7.892 -10.606  0.00  0.00    +0.033 A 
ATOM     16  C   UNL     1       7.856  -7.888 -10.761  0.00  0.00    +0.007 A 
BRANCH  14  17
ATOM     17  N   UNL     1      11.269  -8.517  -9.342  0.00  0.00    +0.056 N 
ATOM     18  O   UNL     1      11.767  -9.056  -8.381  0.00  0.00    -0.126 OA
ATOM     19  O   UNL     1      11.973  -7.984 -10.169  0.00  0.00    -0.126 OA
ENDBRANCH  14  17
ENDBRANCH  10  11
BRANCH   8  20
ATOM     20  N   UNL     1       4.009 -11.791  -9.149  0.00  0.00    -0.328 N 
ATOM     21  H   UNL     1       3.572 -12.234  -8.405  0.00  0.00    +0.145 HD
ATOM     22  H   UNL     1       4.137 -12.263  -9.987  0.00  0.00    +0.145 HD
ENDBRANCH   8  20
BRANCH   9  23
ATOM     23  C   UNL     1       5.223 -10.627 -11.289  0.00  0.00    +0.101 C 
ATOM     24  N   UNL     1       5.359 -11.206 -12.257  0.00  0.00    -0.191 NA
ENDBRANCH   9  23
BRANCH   1  25
ATOM     25  O   UNL     1       3.214  -5.812  -5.603  0.00  0.00    -0.423 OA
BRANCH  25  26
ATOM     26  C   UNL     1       2.017  -5.218  -5.790  0.00  0.00    +0.337 C 
ATOM     27  O   UNL     1       1.516  -5.197  -6.898  0.00  0.00    -0.245 OA
BRANCH  26  29
ATOM     28  C   UNL     1       0.145  -4.026  -4.883  0.00  0.00    +0.015 C 
ATOM     29  C   UNL     1       1.344  -4.620  -4.695  0.00  0.00    +0.092 C 
BRANCH  28  33
ATOM     30  C   UNL     1      -1.871  -2.237  -1.608  0.00  0.00    +0.120 A 
ATOM     31  C   UNL     1      -2.445  -2.210  -2.874  0.00  0.00    +0.046 A 
ATOM     32  C   UNL     1      -1.795  -2.789  -3.940  0.00  0.00    +0.011 A 
ATOM     33  C   UNL     1      -0.553  -3.406  -3.748  0.00  0.00    -0.025 A 
ATOM     34  C   UNL     1       0.021  -3.430  -2.472  0.00  0.00    +0.011 A 
ATOM     35  C   UNL     1      -0.635  -2.843  -1.413  0.00  0.00    +0.046 A 
BRANCH  30  37
ATOM     36  C   UNL     1      -3.782  -1.059  -0.830  0.00  0.00    +0.277 C 
ATOM     37  O   UNL     1      -2.516  -1.665  -0.560  0.00  0.00    -0.495 OA
ENDBRANCH  30  37
ENDBRANCH  28  33
ENDBRANCH  26  29
ENDBRANCH  25  26
ENDBRANCH   1  25
TORSDOF 9
