REMARK  Name = ZINC03896145
REMARK  0 active torsions:
REMARK  status: ('A' for Active; 'I' for Inactive)
REMARK                            x       y       z     vdW  Elec       q    Type
REMARK                         _______ _______ _______ _____ _____    ______ ____
ROOT
ATOM      1  C   UNL     1      -0.019   1.525   0.010  0.00  0.00    +0.014 C 
ATOM      2  C   UNL     1       1.403   2.094  -0.000  0.00  0.00    +0.057 C 
ATOM      3  C   UNL     1       2.144   1.538   1.207  0.00  0.00    +0.061 A 
ATOM      4  C   UNL     1       1.759   0.296   1.728  0.00  0.00    +0.079 A 
ATOM      5  S   UNL     1       2.877   0.092   3.080  0.00  0.00    -0.049 S 
ATOM      6  C   UNL     1       3.721   1.540   2.890  0.00  0.00    +0.156 A 
ATOM      7  N   UNL     1       3.140   2.105   1.842  0.00  0.00    -0.229 NA
ATOM      8  N   UNL     1       4.767   2.020   3.645  0.00  0.00    -0.337 N 
ATOM      9  C   UNL     1       0.739  -0.505   1.230  0.00  0.00    +0.172 C 
ATOM     10  O   UNL     1       0.450  -1.562   1.756  0.00  0.00    -0.291 OA
ATOM     11  C   UNL     1       0.002  -0.004   0.002  0.00  0.00    +0.080 C 
ATOM     12  H   UNL     1       5.103   1.503   4.393  0.00  0.00    +0.144 HD
ATOM     13  H   UNL     1       5.169   2.876   3.428  0.00  0.00    +0.144 HD
ENDROOT
TORSDOF 0
