REMARK  Name = ZINC39531241
REMARK  8 active torsions:
REMARK  status: ('A' for Active; 'I' for Inactive)
REMARK    1  A    between atoms: C_4  and  C_7
REMARK    2  A    between atoms: C_7  and  C_8
REMARK    3  A    between atoms: C_11  and  C_14
REMARK    4  A    between atoms: C_14  and  C_16
REMARK    5  A    between atoms: C_14  and  N_25
REMARK    6  A    between atoms: C_16  and  N_17
REMARK    7  A    between atoms: N_17  and  C_18
REMARK    8  A    between atoms: C_18  and  C_19
REMARK                            x       y       z     vdW  Elec       q    Type
REMARK                         _______ _______ _______ _____ _____    ______ ____
ROOT
ATOM      1  C   UNL     1       5.450  -1.675   5.388  0.00  0.00    +0.070 C 
ENDROOT
BRANCH   1   2
ATOM      2  N   UNL     1       4.318  -2.168   6.184  0.00  0.00    -0.293 NA
ATOM      3  C   UNL     1       3.847  -3.466   5.683  0.00  0.00    +0.100 C 
ATOM      4  C   UNL     1       2.723  -3.981   6.585  0.00  0.00    +0.097 C 
ATOM      5  N   UNL     1       1.629  -3.001   6.609  0.00  0.00    -0.299 NA
ATOM      6  C   UNL     1       2.101  -1.702   7.112  0.00  0.00    +0.161 C 
ATOM      7  C   UNL     1       3.224  -1.187   6.209  0.00  0.00    +0.120 C 
ATOM      8 CL   UNL     1       0.736  -0.524   7.107  0.00  0.00    -0.104 Cl
ATOM      9  H   UNL     1       1.209  -2.905   5.697  0.00  0.00    +0.123 HD
ENDBRANCH   1   2
BRANCH   1  13
ATOM     10  C   UNL     1       4.275  -1.346   1.294  0.00  0.00    -0.043 A 
ATOM     11  C   UNL     1       4.487  -0.205   2.046  0.00  0.00    +0.004 A 
ATOM     12  C   UNL     1       4.867  -0.312   3.371  0.00  0.00    +0.005 A 
ATOM     13  C   UNL     1       5.035  -1.559   3.944  0.00  0.00    -0.032 A 
ATOM     14  C   UNL     1       4.822  -2.699   3.192  0.00  0.00    +0.005 A 
ATOM     15  C   UNL     1       4.438  -2.593   1.868  0.00  0.00    +0.004 A 
BRANCH  10  16
ATOM     16  C   UNL     1       3.861  -1.230  -0.150  0.00  0.00    +0.070 C 
BRANCH  16  20
ATOM     17  C   UNL     1      -0.402  -1.114  -0.406  0.00  0.00    +0.000 A 
ATOM     18  C   UNL     1       0.315   0.061  -0.276  0.00  0.00    +0.000 A 
ATOM     19  C   UNL     1       1.694   0.023  -0.193  0.00  0.00    +0.004 A 
ATOM     20  C   UNL     1       2.357  -1.189  -0.240  0.00  0.00    -0.043 A 
ATOM     21  C   UNL     1       1.640  -2.364  -0.369  0.00  0.00    +0.004 A 
ATOM     22  C   UNL     1       0.261  -2.326  -0.454  0.00  0.00    +0.000 A 
ENDBRANCH  16  20
ENDBRANCH  10  16
ENDBRANCH   1  13
BRANCH   1  23
ATOM     23  C   UNL     1       6.620  -2.653   5.505  0.00  0.00    -0.058 C 
BRANCH  23  24
ATOM     24  N   UNL     1       6.947  -2.858   6.922  0.00  0.00    +0.383 N 
ATOM     25  H   UNL     1       7.203  -1.976   7.339  0.00  0.00    -0.085 HD
ATOM     26  H   UNL     1       6.144  -3.236   7.401  0.00  0.00    -0.085 HD
BRANCH  24  27
ATOM     27  C   UNL     1       8.072  -3.797   7.034  0.00  0.00    -0.047 C 
BRANCH  27  28
ATOM     28  C   UNL     1       8.407  -4.007   8.489  0.00  0.00    -0.064 A 
ATOM     29  C   UNL     1       9.326  -3.184   9.112  0.00  0.00    +0.002 A 
ATOM     30  C   UNL     1       9.634  -3.377  10.446  0.00  0.00    +0.000 A 
ATOM     31  C   UNL     1       9.022  -4.393  11.156  0.00  0.00    +0.000 A 
ATOM     32  C   UNL     1       8.102  -5.215  10.533  0.00  0.00    +0.000 A 
ATOM     33  C   UNL     1       7.791  -5.020   9.200  0.00  0.00    +0.002 A 
ENDBRANCH  27  28
ENDBRANCH  24  27
ENDBRANCH  23  24
ENDBRANCH   1  23
TORSDOF 8
