REMARK  Name = ZINC39557564
REMARK  4 active torsions:
REMARK  status: ('A' for Active; 'I' for Inactive)
REMARK    1  A    between atoms: C_1  and  C_2
REMARK    2  A    between atoms: C_2  and  C_3
REMARK    3  A    between atoms: N_10  and  N_11
REMARK    4  A    between atoms: N_11  and  C_12
REMARK                            x       y       z     vdW  Elec       q    Type
REMARK                         _______ _______ _______ _____ _____    ______ ____
ROOT
ATOM      1  N   UNL     1       5.016  -0.925  -0.673  0.00  0.00    -0.236 N 
ATOM      2  H   UNL     1       4.127  -0.746  -0.330  0.00  0.00    +0.174 HD
ENDROOT
BRANCH   1   3
ATOM      3  C   UNL     1       6.118  -0.753   0.141  0.00  0.00    +0.067 A 
ATOM      4  C   UNL     1       7.336  -0.271  -0.374  0.00  0.00    +0.024 A 
ATOM      5  C   UNL     1       7.477   0.054  -1.734  0.00  0.00    +0.012 A 
ATOM      6  C   UNL     1       8.671   0.517  -2.193  0.00  0.00    +0.001 A 
ATOM      7  C   UNL     1       9.764   0.678  -1.344  0.00  0.00    +0.002 A 
ATOM      8  C   UNL     1       9.691   0.382  -0.020  0.00  0.00    +0.028 A 
ATOM      9  C   UNL     1       8.482  -0.102   0.522  0.00  0.00    +0.073 A 
ATOM     10  N   UNL     1       8.384  -0.399   1.815  0.00  0.00    -0.247 NA
ATOM     11  C   UNL     1       7.253  -0.857   2.344  0.00  0.00    +0.073 A 
ATOM     12  C   UNL     1       6.061  -1.048   1.516  0.00  0.00    +0.024 A 
ATOM     13  C   UNL     1       4.882  -1.528   2.112  0.00  0.00    +0.012 A 
ATOM     14  C   UNL     1       4.868  -1.802   3.445  0.00  0.00    +0.001 A 
ATOM     15  C   UNL     1       5.999  -1.617   4.238  0.00  0.00    +0.002 A 
ATOM     16  C   UNL     1       7.171  -1.166   3.718  0.00  0.00    +0.028 A 
ENDBRANCH   1   3
BRANCH   1  24
ATOM     17  C   UNL     1       0.820   0.052  -1.395  0.00  0.00    -0.047 A 
ATOM     18  C   UNL     1       0.084  -0.210  -2.539  0.00  0.00    +0.005 A 
ATOM     19  C   UNL     1       0.674  -0.810  -3.632  0.00  0.00    +0.024 A 
ATOM     20  C   UNL     1       2.020  -1.159  -3.595  0.00  0.00    +0.043 A 
ATOM     21  C   UNL     1       2.760  -0.892  -2.437  0.00  0.00    +0.028 A 
ATOM     22  C   UNL     1       2.158  -0.282  -1.342  0.00  0.00    +0.015 A 
ATOM     23  C   UNL     1       4.137  -1.371  -2.701  0.00  0.00    +0.152 C 
ATOM     24  N   UNL     1       5.169  -1.324  -1.890  0.00  0.00    -0.177 NA
ATOM     25  C   UNL     1       4.096  -1.913  -4.071  0.00  0.00    +0.269 C 
ATOM     26  O   UNL     1       5.030  -2.409  -4.674  0.00  0.00    -0.268 OA
ATOM     27  N   UNL     1       2.844  -1.762  -4.538  0.00  0.00    -0.280 N 
ATOM     28  H   UNL     1       2.553  -2.040  -5.421  0.00  0.00    +0.155 HD
BRANCH  17  30
ATOM     29  C   UNL     1       0.282   2.229  -0.336  0.00  0.00    +0.009 C 
ATOM     30  C   UNL     1       0.160   0.709  -0.210  0.00  0.00    +0.032 C 
ENDBRANCH  17  30
ENDBRANCH   1  24
TORSDOF 3
