REMARK  Name = ZINC14269181
REMARK  12 active torsions:
REMARK  status: ('A' for Active; 'I' for Inactive)
REMARK    1  A    between atoms: C_1  and  C_2
REMARK    2  A    between atoms: C_2  and  O_3
REMARK    3  A    between atoms: O_3  and  C_4
REMARK    4  A    between atoms: C_8  and  C_10
REMARK    5  A    between atoms: N_12  and  C_13
REMARK    6  A    between atoms: C_13  and  N_15
REMARK    7  A    between atoms: N_15  and  C_16
REMARK    8  A    between atoms: C_16  and  C_17
REMARK    9  A    between atoms: C_20  and  C_23
REMARK   10  A    between atoms: C_27  and  C_32
REMARK   11  A    between atoms: C_32  and  C_33
REMARK   12  A    between atoms: C_32  and  C_34
REMARK                            x       y       z     vdW  Elec       q    Type
REMARK                         _______ _______ _______ _____ _____    ______ ____
ROOT
ATOM      1  C   UNL     1       2.226   9.511   0.031  0.00  0.00    +0.138 C 
ENDROOT
BRANCH   1   2
ATOM      2  C   UNL     1       3.641  10.028   0.021  0.00  0.00    -0.030 A 
ATOM      3  C   UNL     1       4.298  10.264   1.216  0.00  0.00    +0.006 A 
ATOM      4  C   UNL     1       5.596  10.732   1.213  0.00  0.00    +0.013 A 
ATOM      5  C   UNL     1       6.242  10.979   0.001  0.00  0.00    +0.037 A 
ATOM      6  C   UNL     1       5.572  10.745  -1.201  0.00  0.00    +0.013 A 
ATOM      7  C   UNL     1       4.277  10.271  -1.184  0.00  0.00    +0.006 A 
BRANCH   5   8
ATOM      8  C   UNL     1       7.631  11.486  -0.010  0.00  0.00    +0.228 A 
ATOM      9  N   UNL     1       8.344  11.743   1.057  0.00  0.00    -0.209 NA
ATOM     10  C   UNL     1       9.567  12.187   0.669  0.00  0.00    +0.110 A 
ATOM     11  C   UNL     1      10.709  12.597   1.361  0.00  0.00    +0.035 A 
ATOM     12  C   UNL     1      11.820  13.009   0.661  0.00  0.00    -0.043 A 
ATOM     13  C   UNL     1      11.813  13.020  -0.726  0.00  0.00    +0.007 A 
ATOM     14  C   UNL     1      10.693  12.616  -1.423  0.00  0.00    +0.049 A 
ATOM     15  C   UNL     1       9.564  12.198  -0.736  0.00  0.00    +0.156 A 
ATOM     16  O   UNL     1       8.345  11.757  -1.118  0.00  0.00    -0.435 OA
BRANCH  12  17
ATOM     17  C   UNL     1      13.053  13.452   1.406  0.00  0.00    +0.013 C 
ATOM     18  C   UNL     1      14.232  12.556   1.021  0.00  0.00    +0.012 C 
ATOM     19  C   UNL     1      13.375  14.903   1.042  0.00  0.00    +0.012 C 
ENDBRANCH  12  17
ENDBRANCH   5   8
ENDBRANCH   1   2
BRANCH   1  20
ATOM     20  N   UNL     1       2.241   8.046   0.023  0.00  0.00    -0.322 N 
ATOM     21  H   UNL     1       3.087   7.570   0.013  0.00  0.00    +0.148 HD
BRANCH  20  22
ATOM     22  C   UNL     1       1.081   7.360   0.031  0.00  0.00    +0.137 C 
ATOM     23  S   UNL     1      -0.410   8.200   0.050  0.00  0.00    -0.018 S 
BRANCH  22  26
ATOM     24  C   UNL     1      -0.064   5.326   0.031  0.00  0.00    +0.250 C 
ATOM     25  O   UNL     1      -1.123   5.923   0.044  0.00  0.00    -0.270 OA
ATOM     26  N   UNL     1       1.096   6.012   0.023  0.00  0.00    -0.264 N 
ATOM     27  H   UNL     1       1.941   5.536   0.013  0.00  0.00    +0.157 HD
BRANCH  24  32
ATOM     28  C   UNL     1      -1.226   1.751   0.017  0.00  0.00    +0.121 A 
ATOM     29  C   UNL     1      -0.013   1.076   0.008  0.00  0.00    +0.046 A 
ATOM     30  C   UNL     1       1.177   1.781   0.000  0.00  0.00    +0.004 A 
ATOM     31  C   UNL     1       1.166   3.161   0.007  0.00  0.00    +0.013 A 
ATOM     32  C   UNL     1      -0.049   3.848   0.023  0.00  0.00    +0.041 A 
ATOM     33  C   UNL     1      -1.248   3.135   0.031  0.00  0.00    +0.058 A 
BRANCH  28  34
ATOM     34  O   UNL     1      -2.392   1.053   0.019  0.00  0.00    -0.492 OA
BRANCH  34  36
ATOM     35  C   UNL     1      -3.699  -0.980   0.014  0.00  0.00    +0.048 C 
ATOM     36  C   UNL     1      -2.294  -0.373   0.011  0.00  0.00    +0.225 C 
ENDBRANCH  34  36
ENDBRANCH  28  34
ENDBRANCH  24  32
ENDBRANCH  22  26
ENDBRANCH  20  22
ENDBRANCH   1  20
TORSDOF 9
