REMARK  Name = ZINC39674402
REMARK  12 active torsions:
REMARK  status: ('A' for Active; 'I' for Inactive)
REMARK    1  A    between atoms: C_1  and  C_2
REMARK    2  A    between atoms: C_2  and  C_3
REMARK    3  A    between atoms: C_3  and  C_4
REMARK    4  A    between atoms: C_4  and  C_5
REMARK    5  A    between atoms: C_5  and  C_6
REMARK    6  A    between atoms: C_6  and  C_7
REMARK    7  A    between atoms: C_11  and  C_20
REMARK    8  A    between atoms: N_22  and  C_23
REMARK    9  A    between atoms: C_23  and  C_25
REMARK   10  A    between atoms: C_23  and  C_26
REMARK   11  A    between atoms: C_27  and  C_33
REMARK   12  A    between atoms: C_30  and  C_32
REMARK                            x       y       z     vdW  Elec       q    Type
REMARK                         _______ _______ _______ _____ _____    ______ ____
ROOT
ATOM      1  C   UNL     1       3.111  -4.774  -4.252  0.00  0.00    +0.216 C 
ATOM      2  O   UNL     1       3.711  -4.098  -5.060  0.00  0.00    -0.276 OA
ATOM      3  N   UNL     1       3.113  -6.117  -4.363  0.00  0.00    -0.300 N 
ATOM      4  C   UNL     1       2.439  -7.103  -3.485  0.00  0.00    +0.121 C 
ATOM      5  C   UNL     1       1.897  -8.180  -4.451  0.00  0.00    +0.100 C 
ATOM      6  C   UNL     1       2.788  -8.072  -5.700  0.00  0.00    -0.004 C 
ATOM      7  C   UNL     1       3.784  -6.942  -5.396  0.00  0.00    +0.115 C 
ATOM      8  C   UNL     1       1.947  -7.710  -6.920  0.00  0.00    -0.010 C 
ATOM      9  C   UNL     1       2.846  -7.664  -8.159  0.00  0.00    -0.082 C 
ATOM     10  N   UNL     1       3.486  -8.971  -8.350  0.00  0.00    +0.379 N 
ATOM     11  C   UNL     1       4.366  -9.269  -7.214  0.00  0.00    -0.082 C 
ATOM     12  C   UNL     1       3.532  -9.383  -5.935  0.00  0.00    -0.010 C 
ATOM     13  H   UNL     1       2.776  -9.685  -8.420  0.00  0.00    -0.086 HD
ATOM     14  H   UNL     1       4.030  -8.957  -9.200  0.00  0.00    -0.086 HD
ENDROOT
BRANCH   5  15
ATOM     15  C   UNL     1       2.021  -9.549  -3.833  0.00  0.00    +0.219 C 
ATOM     16  O   UNL     1       2.924  -9.786  -3.059  0.00  0.00    -0.275 OA
ATOM     17  N   UNL     1       1.128 -10.510  -4.140  0.00  0.00    -0.309 N 
ATOM     18  H   UNL     1       0.405 -10.321  -4.759  0.00  0.00    +0.149 HD
BRANCH  17  19
ATOM     19  C   UNL     1       1.248 -11.841  -3.539  0.00  0.00    +0.100 C 
ATOM     20  C   UNL     1       0.597 -11.836  -2.154  0.00  0.00    +0.033 C 
BRANCH  19  21
ATOM     21  C   UNL     1       0.556 -12.853  -4.416  0.00  0.00    -0.001 C 
ATOM     22  C   UNL     1       1.082 -13.931  -5.000  0.00  0.00    +0.063 C 
ATOM     23  N   UNL     1       0.145 -14.597  -5.710  0.00  0.00    -0.159 NA
ATOM     24  N   UNL     1      -0.979 -14.089  -5.679  0.00  0.00    -0.180 NA
ATOM     25  C   UNL     1      -0.903 -12.885  -4.834  0.00  0.00    +0.154 C 
ATOM     26  C   UNL     1      -1.262 -11.637  -5.644  0.00  0.00    +0.039 C 
ATOM     27  C   UNL     1       2.525 -14.350  -4.882  0.00  0.00    +0.067 C 
ENDBRANCH  19  21
ENDBRANCH  17  19
ENDBRANCH   5  15
BRANCH   1  28
ATOM     28  C   UNL     1       2.363  -4.113  -3.122  0.00  0.00    +0.096 C 
BRANCH  28  29
ATOM     29  C   UNL     1       2.521  -2.595  -3.226  0.00  0.00    +0.009 C 
BRANCH  29  30
ATOM     30  C   UNL     1       1.762  -1.923  -2.080  0.00  0.00    +0.000 C 
BRANCH  30  31
ATOM     31  C   UNL     1       1.921  -0.405  -2.183  0.00  0.00    -0.000 C 
BRANCH  31  33
ATOM     32  C   UNL     1       1.320   1.784  -1.141  0.00  0.00    +0.004 C 
ATOM     33  C   UNL     1       1.162   0.266  -1.037  0.00  0.00    -0.003 C 
ENDBRANCH  31  33
ENDBRANCH  30  31
ENDBRANCH  29  30
ENDBRANCH  28  29
ENDBRANCH   1  28
TORSDOF 8
