REMARK  Name = ZINC59170463
REMARK  7 active torsions:
REMARK  status: ('A' for Active; 'I' for Inactive)
REMARK    1  A    between atoms: C_1  and  C_2
REMARK    2  A    between atoms: C_5  and  S_8
REMARK    3  A    between atoms: S_8  and  N_11
REMARK    4  A    between atoms: N_11  and  N_12
REMARK    5  A    between atoms: C_14  and  C_25
REMARK    6  A    between atoms: N_27  and  C_28
REMARK    7  A    between atoms: C_33  and  C_34
REMARK                            x       y       z     vdW  Elec       q    Type
REMARK                         _______ _______ _______ _____ _____    ______ ____
ROOT
ATOM      1  N   UNL     1       2.930  -3.930   0.130  0.00  0.00    -0.260 N 
ATOM      2  C   UNL     1       4.145  -4.400   0.167  0.00  0.00    +0.225 A 
ATOM      3  C   UNL     1       4.985  -4.250   1.377  0.00  0.00    +0.099 A 
ATOM      4  C   UNL     1       5.968  -5.189   1.580  0.00  0.00    +0.030 A 
ATOM      5  C   UNL     1       6.104  -6.258   0.583  0.00  0.00    +0.021 A 
ATOM      6  C   UNL     1       6.887  -7.386   0.849  0.00  0.00    +0.031 A 
ATOM      7  C   UNL     1       6.997  -8.380  -0.102  0.00  0.00    +0.043 A 
ATOM      8  C   UNL     1       6.336  -8.264  -1.316  0.00  0.00    +0.043 A 
ATOM      9  C   UNL     1       5.560  -7.154  -1.591  0.00  0.00    +0.085 A 
ATOM     10  C   UNL     1       5.438  -6.144  -0.649  0.00  0.00    +0.156 A 
ATOM     11  O   UNL     1       4.682  -5.049  -0.907  0.00  0.00    -0.436 OA
ATOM     12 CL   UNL     1       4.739  -7.024  -3.115  0.00  0.00    -0.080 Cl
ATOM     13 CL   UNL     1       7.968  -9.781   0.223  0.00  0.00    -0.083 Cl
ATOM     14  H   UNL     1       2.535  -3.542   0.926  0.00  0.00    +0.189 HD
ENDROOT
BRANCH   3  15
ATOM     15  C   UNL     1       4.776  -3.143   2.324  0.00  0.00    +0.253 C 
ATOM     16  O   UNL     1       3.855  -2.365   2.157  0.00  0.00    -0.270 OA
ATOM     17  N   UNL     1       5.605  -2.989   3.376  0.00  0.00    -0.281 N 
ATOM     18  H   UNL     1       6.378  -3.567   3.473  0.00  0.00    +0.155 HD
BRANCH  17  19
ATOM     19  C   UNL     1       5.351  -1.997   4.328  0.00  0.00    +0.037 A 
ATOM     20  C   UNL     1       4.077  -1.453   4.443  0.00  0.00    +0.023 A 
ATOM     21  C   UNL     1       3.830  -0.473   5.384  0.00  0.00    +0.002 A 
ATOM     22  C   UNL     1       4.848  -0.033   6.211  0.00  0.00    +0.000 A 
ATOM     23  C   UNL     1       6.116  -0.572   6.098  0.00  0.00    +0.005 A 
ATOM     24  C   UNL     1       6.369  -1.557   5.163  0.00  0.00    -0.029 A 
ATOM     25  C   UNL     1       7.750  -2.149   5.046  0.00  0.00    +0.045 C 
ENDBRANCH  17  19
ENDBRANCH   3  15
BRANCH   1  26
ATOM     26  N   UNL     1       2.194  -3.986  -1.061  0.00  0.00    -0.157 N 
ATOM     27  H   UNL     1       2.559  -4.439  -1.837  0.00  0.00    +0.194 HD
BRANCH  26  28
ATOM     28  S   UNL     1       0.699  -3.278  -1.144  0.00  0.00    +0.085 S 
ATOM     29  O   UNL     1      -0.052  -3.786  -0.050  0.00  0.00    -0.149 OA
ATOM     30  O   UNL     1       0.264  -3.403  -2.491  0.00  0.00    -0.149 OA
BRANCH  28  35
ATOM     31  C   UNL     1       1.457   2.620  -0.122  0.00  0.00    +0.044 C 
ATOM     32  C   UNL     1       1.268   1.147  -0.377  0.00  0.00    -0.050 A 
ATOM     33  C   UNL     1       1.444   0.638  -1.650  0.00  0.00    +0.005 A 
ATOM     34  C   UNL     1       1.270  -0.713  -1.884  0.00  0.00    +0.029 A 
ATOM     35  C   UNL     1       0.921  -1.555  -0.845  0.00  0.00    +0.110 A 
ATOM     36  C   UNL     1       0.746  -1.046   0.428  0.00  0.00    +0.029 A 
ATOM     37  C   UNL     1       0.924   0.304   0.663  0.00  0.00    +0.005 A 
ENDBRANCH  28  35
ENDBRANCH  26  28
ENDBRANCH   1  26
TORSDOF 5
