REMARK  Name = ZINC08926199
REMARK  9 active torsions:
REMARK  status: ('A' for Active; 'I' for Inactive)
REMARK    1  A    between atoms: C_1  and  C_2
REMARK    2  A    between atoms: C_2  and  C_3
REMARK    3  A    between atoms: C_3  and  N_4
REMARK    4  A    between atoms: N_7  and  C_25
REMARK    5  A    between atoms: C_8  and  N_13
REMARK    6  A    between atoms: C_10  and  C_11
REMARK    7  A    between atoms: C_10  and  C_12
REMARK    8  A    between atoms: N_13  and  O_24
REMARK    9  A    between atoms: N_16  and  C_17
REMARK                            x       y       z     vdW  Elec       q    Type
REMARK                         _______ _______ _______ _____ _____    ______ ____
ROOT
ATOM      1  N   UNL     1       5.216   8.378  -0.286  0.00  0.00    -0.276 N 
ATOM      2  C   UNL     1       4.270   8.182  -1.214  0.00  0.00    +0.311 C 
ATOM      3  O   UNL     1       4.426   8.456  -2.388  0.00  0.00    -0.252 OA
ATOM      4  N   UNL     1       3.135   7.659  -0.730  0.00  0.00    -0.230 N 
ATOM      5  C   UNL     1       3.278   7.451   0.719  0.00  0.00    +0.224 C 
ATOM      6  C   UNL     1       4.706   7.944   1.023  0.00  0.00    +0.071 C 
ATOM      7  C   UNL     1       4.671   9.120   2.002  0.00  0.00    +0.035 C 
ATOM      8  C   UNL     1       5.559   6.805   1.585  0.00  0.00    +0.035 C 
ENDROOT
BRANCH   4   9
ATOM      9  C   UNL     1       1.995   7.358  -1.484  0.00  0.00    +0.058 A 
ATOM     10  C   UNL     1       1.004   8.314  -1.659  0.00  0.00    +0.025 A 
ATOM     11  C   UNL     1      -0.120   8.015  -2.404  0.00  0.00    +0.002 A 
ATOM     12  C   UNL     1      -0.259   6.763  -2.976  0.00  0.00    +0.002 A 
ATOM     13  C   UNL     1       0.726   5.808  -2.805  0.00  0.00    +0.022 A 
ATOM     14  C   UNL     1       1.855   6.104  -2.065  0.00  0.00    +0.062 A 
ATOM     15 CL   UNL     1       3.095   4.906  -1.856  0.00  0.00    -0.082 Cl
ENDBRANCH   4   9
BRANCH   5  16
ATOM     16  N   UNL     1       3.143   6.031   1.050  0.00  0.00    -0.144 N 
ATOM     17  C   UNL     1       3.935   5.120   0.450  0.00  0.00    +0.331 C 
ATOM     18  O   UNL     1       4.802   5.483  -0.321  0.00  0.00    -0.250 OA
ATOM     19  N   UNL     1       3.767   3.808   0.705  0.00  0.00    -0.266 N 
ATOM     20  H   UNL     1       3.019   3.511   1.248  0.00  0.00    +0.156 HD
BRANCH  19  21
ATOM     21  C   UNL     1       4.670   2.872   0.188  0.00  0.00    +0.053 A 
ATOM     22  C   UNL     1       5.954   3.267  -0.167  0.00  0.00    +0.025 A 
ATOM     23  C   UNL     1       6.843   2.342  -0.677  0.00  0.00    +0.002 A 
ATOM     24  C   UNL     1       6.460   1.022  -0.829  0.00  0.00    +0.002 A 
ATOM     25  C   UNL     1       5.181   0.626  -0.482  0.00  0.00    +0.022 A 
ATOM     26  C   UNL     1       4.286   1.547   0.028  0.00  0.00    +0.062 A 
ATOM     27 CL   UNL     1       2.683   1.048   0.471  0.00  0.00    -0.082 Cl
ENDBRANCH  19  21
BRANCH  16  28
ATOM     28  O   UNL     1       2.180   5.614   2.001  0.00  0.00    -0.289 OA
ATOM     29  H   UNL     1       1.609   6.326   2.320  0.00  0.00    +0.242 HD
ENDBRANCH  16  28
ENDBRANCH   5  16
BRANCH   1  30
ATOM     30  C   UNL     1       6.548   8.934  -0.536  0.00  0.00    +0.110 C 
BRANCH  30  32
ATOM     31  C   UNL     1       8.912   8.382  -1.125  0.00  0.00    +0.005 C 
ATOM     32  C   UNL     1       7.522   7.800  -0.864  0.00  0.00    +0.016 C 
ENDBRANCH  30  32
ENDBRANCH   1  30
TORSDOF 6
