REMARK  Name = ZINC02149273
REMARK  5 active torsions:
REMARK  status: ('A' for Active; 'I' for Inactive)
REMARK    1  A    between atoms: C_4  and  C_7
REMARK    2  A    between atoms: C_7  and  C_8
REMARK    3  A    between atoms: C_8  and  C_10
REMARK    4  A    between atoms: C_8  and  N_18
REMARK    5  A    between atoms: N_12  and  C_13
REMARK                            x       y       z     vdW  Elec       q    Type
REMARK                         _______ _______ _______ _____ _____    ______ ____
ROOT
ATOM      1  N   UNL     1       3.548   1.859  -0.119  0.00  0.00    -0.288 N 
ATOM      2  C   UNL     1       3.863   2.437  -1.295  0.00  0.00    +0.303 C 
ATOM      3  O   UNL     1       3.274   2.114  -2.308  0.00  0.00    -0.253 OA
ATOM      4  N   UNL     1       4.831   3.374  -1.348  0.00  0.00    -0.285 N 
ATOM      5  C   UNL     1       5.625   3.700  -0.158  0.00  0.00    +0.114 C 
ATOM      6  C   UNL     1       5.647   5.206   0.065  0.00  0.00    +0.027 C 
ATOM      7  C   UNL     1       6.030   5.946  -1.216  0.00  0.00    +0.018 C 
ATOM      8  C   UNL     1       5.007   5.598  -2.300  0.00  0.00    +0.054 C 
ATOM      9  C   UNL     1       5.118   4.089  -2.602  0.00  0.00    +0.119 C 
ATOM     10  C   UNL     1       3.611   5.866  -1.789  0.00  0.00    +0.027 A 
ATOM     11  C   UNL     1       2.645   6.115  -2.712  0.00  0.00    +0.022 A 
ATOM     12  C   UNL     1       1.306   6.239  -2.325  0.00  0.00    +0.007 A 
ATOM     13  C   UNL     1       0.986   6.094  -1.007  0.00  0.00    +0.070 A 
ATOM     14  C   UNL     1       2.008   5.852  -0.079  0.00  0.00    +0.251 A 
ATOM     15  O   UNL     1       1.728   5.675   1.096  0.00  0.00    -0.268 OA
ATOM     16  N   UNL     1       3.305   5.811  -0.472  0.00  0.00    -0.312 N 
ATOM     17  C   UNL     1       4.316   5.724   0.582  0.00  0.00    +0.130 C 
ATOM     18  H   UNL     1       4.065   2.064   0.676  0.00  0.00    +0.151 HD
ENDROOT
BRANCH   1  19
ATOM     19  C   UNL     1       2.425   0.921  -0.041  0.00  0.00    +0.165 C 
BRANCH  19  20
ATOM     20  C   UNL     1       1.151   1.684   0.215  0.00  0.00    +0.234 C 
ATOM     21  O   UNL     1       1.178   2.892   0.321  0.00  0.00    -0.274 OA
ATOM     22  N   UNL     1      -0.019   1.024   0.325  0.00  0.00    -0.311 N 
ATOM     23  H   UNL     1      -0.040   0.058   0.240  0.00  0.00    +0.149 HD
BRANCH  22  24
ATOM     24  C   UNL     1      -1.259   1.765   0.567  0.00  0.00    +0.073 C 
ATOM     25  C   UNL     1      -1.476   1.949   2.083  0.00  0.00    +0.022 C 
ATOM     26  C   UNL     1      -3.008   1.808   2.267  0.00  0.00    +0.002 C 
ATOM     27  C   UNL     1      -3.371   0.688   1.261  0.00  0.00    +0.002 C 
ATOM     28  C   UNL     1      -2.463   0.963   0.044  0.00  0.00    +0.022 C 
ENDBRANCH  22  24
ENDBRANCH  19  20
BRANCH  19  29
ATOM     29  C   UNL     1       2.666  -0.068   1.101  0.00  0.00    +0.067 C 
BRANCH  29  33
ATOM     30  C   UNL     1       6.068  -2.488   0.197  0.00  0.00    +0.000 A 
ATOM     31  C   UNL     1       6.210  -1.364   0.989  0.00  0.00    +0.000 A 
ATOM     32  C   UNL     1       5.109  -0.581   1.282  0.00  0.00    +0.004 A 
ATOM     33  C   UNL     1       3.866  -0.921   0.782  0.00  0.00    -0.045 A 
ATOM     34  C   UNL     1       3.723  -2.048  -0.006  0.00  0.00    +0.004 A 
ATOM     35  C   UNL     1       4.825  -2.828  -0.303  0.00  0.00    +0.000 A 
ENDBRANCH  29  33
ENDBRANCH  19  29
ENDBRANCH   1  19
TORSDOF 5
