REMARK  Name = ZINC39560901
REMARK  11 active torsions:
REMARK  status: ('A' for Active; 'I' for Inactive)
REMARK    1  A    between atoms: C_1  and  C_2
REMARK    2  A    between atoms: C_2  and  C_3
REMARK    3  A    between atoms: C_2  and  C_4
REMARK    4  A    between atoms: C_4  and  C_5
REMARK    5  A    between atoms: C_8  and  N_30
REMARK    6  A    between atoms: C_14  and  C_26
REMARK    7  A    between atoms: C_26  and  O_28
REMARK    8  A    between atoms: O_28  and  C_29
REMARK    9  A    between atoms: N_30  and  C_31
REMARK   10  A    between atoms: C_31  and  C_32
REMARK   11  A    between atoms: C_32  and  C_33
REMARK                            x       y       z     vdW  Elec       q    Type
REMARK                         _______ _______ _______ _____ _____    ______ ____
ROOT
ATOM      1  C   UNL     1       2.479  -0.021  -1.212  0.00  0.00    -0.065 C 
ATOM      2  C   UNL     1       3.301  -0.281  -2.477  0.00  0.00    +0.003 C 
ATOM      3  C   UNL     1       4.752   0.146  -2.241  0.00  0.00    +0.051 C 
ATOM      4  C   UNL     1       5.305  -0.597  -1.020  0.00  0.00    +0.009 C 
ATOM      5  C   UNL     1       4.408  -0.309   0.185  0.00  0.00    -0.015 C 
ATOM      6  N   UNL     1       3.047  -0.789  -0.097  0.00  0.00    +0.396 N 
ATOM      7  C   UNL     1       2.197  -0.667   1.090  0.00  0.00    +0.048 C 
ATOM      8  C   UNL     1       2.569  -1.751   2.113  0.00  0.00    +0.033 C 
ATOM      9  C   UNL     1       4.066  -1.714   2.296  0.00  0.00    -0.023 C 
ATOM     10  C   UNL     1       4.834  -2.256   3.253  0.00  0.00    -0.014 C 
ATOM     11  C   UNL     1       4.472  -3.078   4.457  0.00  0.00    +0.064 C 
ATOM     12  C   UNL     1       5.716  -3.440   5.218  0.00  0.00    -0.022 C 
ATOM     13  C   UNL     1       6.949  -3.083   4.872  0.00  0.00    -0.002 C 
ATOM     14  C   UNL     1       7.247  -2.309   3.732  0.00  0.00    +0.028 C 
ATOM     15  C   UNL     1       6.180  -1.903   2.932  0.00  0.00    +0.068 C 
ATOM     16  N   UNL     1       6.161  -1.174   1.807  0.00  0.00    -0.253 NA
ATOM     17  C   UNL     1       4.934  -1.030   1.401  0.00  0.00    +0.032 C 
ATOM     18  H   UNL     1       3.090  -1.762  -0.359  0.00  0.00    -0.079 HD
ENDROOT
BRANCH   7  19
ATOM     19  C   UNL     1       2.395   0.693   1.710  0.00  0.00    +0.294 C 
ATOM     20  O   UNL     1       3.506   1.068   2.001  0.00  0.00    -0.253 OA
BRANCH  19  21
ATOM     21  O   UNL     1       1.337   1.487   1.938  0.00  0.00    -0.469 OA
ATOM     22  C   UNL     1       1.599   2.762   2.528  0.00  0.00    +0.280 C 
ENDBRANCH  19  21
ENDBRANCH   7  19
BRANCH   3  23
ATOM     23  N   UNL     1       5.559  -0.183  -3.423  0.00  0.00    -0.313 NA
ATOM     24  H   UNL     1       5.826  -1.157  -3.419  0.00  0.00    +0.122 HD
BRANCH  23  25
ATOM     25  C   UNL     1       6.740   0.686  -3.513  0.00  0.00    +0.087 C 
BRANCH  25  26
ATOM     26  C   UNL     1       7.554   0.314  -4.754  0.00  0.00    +0.070 C 
BRANCH  26  27
ATOM     27  C   UNL     1       8.765   1.206  -4.846  0.00  0.00    +0.034 A 
ATOM     28  C   UNL     1       8.817   2.434  -5.395  0.00  0.00    +0.105 A 
ATOM     29  N   UNL     1      10.073   2.889  -5.276  0.00  0.00    -0.352 N 
ATOM     30  H   UNL     1      10.302   0.112  -3.935  0.00  0.00    +0.166 HD
ATOM     31  C   UNL     1      10.802   1.989  -4.675  0.00  0.00    +0.171 A 
ATOM     32  N   UNL     1      10.022   0.925  -4.384  0.00  0.00    -0.350 N 
ATOM     33  H   UNL     1      10.390   3.751  -5.587  0.00  0.00    +0.166 HD
ENDBRANCH  26  27
ENDBRANCH  25  26
ENDBRANCH  23  25
ENDBRANCH   3  23
BRANCH   1  34
ATOM     34  C   UNL     1       1.031  -0.456  -1.446  0.00  0.00    -0.012 C 
BRANCH  34  36
ATOM     35  C   UNL     1       1.053  -2.821  -0.642  0.00  0.00    +0.007 C 
ATOM     36  C   UNL     1       1.002  -1.923  -1.879  0.00  0.00    -0.019 C 
ATOM     37  C   UNL     1      -0.286  -2.199  -2.657  0.00  0.00    +0.007 C 
ENDBRANCH  34  36
ENDBRANCH   1  34
TORSDOF 8
