REMARK  Name = ZINC30601984
REMARK  4 active torsions:
REMARK  status: ('A' for Active; 'I' for Inactive)
REMARK    1  A    between atoms: C_1  and  C_2
REMARK    2  A    between atoms: C_12  and  C_14
REMARK    3  A    between atoms: C_18  and  C_20
REMARK    4  A    between atoms: C_29  and  C_33
REMARK                            x       y       z     vdW  Elec       q    Type
REMARK                         _______ _______ _______ _____ _____    ______ ____
ROOT
ATOM      1  C   UNL     1      -0.239  -8.185   2.270  0.00  0.00    +0.127 A 
ATOM      2  C   UNL     1      -1.107  -9.148   1.752  0.00  0.00    +0.033 A 
ATOM      3  C   UNL     1      -0.987 -10.463   2.171  0.00  0.00    +0.004 A 
ATOM      4  C   UNL     1      -0.004 -10.777   3.095  0.00  0.00    +0.033 A 
ATOM      5  C   UNL     1       0.831  -9.765   3.573  0.00  0.00    +0.127 A 
ATOM      6  N   UNL     1       0.694  -8.518   3.148  0.00  0.00    -0.237 NA
ENDROOT
BRANCH   1  17
ATOM      7  C   UNL     1      -0.019   1.526   0.010  0.00  0.00    +0.008 C 
ATOM      8  C   UNL     1       0.002  -0.004   0.002  0.00  0.00    -0.009 C 
ATOM      9  C   UNL     1      -1.433  -0.537   0.019  0.00  0.00    +0.010 C 
ATOM     10  C   UNL     1      -1.438  -2.046  -0.235  0.00  0.00    +0.056 C 
ATOM     11  C   UNL     1      -0.479  -2.709   0.744  0.00  0.00    +0.054 A 
ATOM     12  C   UNL     1       0.472  -1.978   1.381  0.00  0.00    +0.015 A 
ATOM     13  S   UNL     1       1.291  -3.193   2.375  0.00  0.00    -0.057 S 
ATOM     14  C   UNL     1       0.366  -4.521   1.905  0.00  0.00    +0.165 A 
ATOM     15  N   UNL     1      -0.487  -4.003   1.049  0.00  0.00    -0.229 NA
ATOM     16  N   UNL     1       0.478  -5.842   2.319  0.00  0.00    -0.259 N 
ATOM     17  C   UNL     1      -0.359  -6.776   1.828  0.00  0.00    +0.268 C 
ATOM     18  O   UNL     1      -1.213  -6.463   1.022  0.00  0.00    -0.268 OA
ATOM     19  C   UNL     1       0.739  -0.516   1.250  0.00  0.00    +0.047 C 
ATOM     20  H   UNL     1       1.160  -6.092   2.962  0.00  0.00    +0.157 HD
ENDBRANCH   1  17
BRANCH   5  21
ATOM     21  C   UNL     1       1.886 -10.090   4.561  0.00  0.00    +0.268 C 
ATOM     22  O   UNL     1       2.021 -11.233   4.952  0.00  0.00    -0.268 OA
ATOM     23  N   UNL     1       2.696  -9.119   5.027  0.00  0.00    -0.259 N 
ATOM     24  C   UNL     1       3.684  -9.424   5.953  0.00  0.00    +0.165 A 
ATOM     25  N   UNL     1       3.979 -10.592   6.480  0.00  0.00    -0.229 NA
ATOM     26  C   UNL     1       4.961 -10.737   7.364  0.00  0.00    +0.054 A 
ATOM     27  C   UNL     1       5.625  -9.594   7.673  0.00  0.00    +0.015 A 
ATOM     28  S   UNL     1       4.803  -8.387   6.671  0.00  0.00    -0.057 S 
ATOM     29  C   UNL     1       6.763  -9.429   8.623  0.00  0.00    +0.047 C 
ATOM     30  C   UNL     1       6.850 -10.694   9.492  0.00  0.00    -0.009 C 
ATOM     31  C   UNL     1       6.766 -11.924   8.583  0.00  0.00    +0.010 C 
ATOM     32  C   UNL     1       5.354 -12.059   8.009  0.00  0.00    +0.056 C 
ATOM     33  C   UNL     1       8.178 -10.704  10.251  0.00  0.00    +0.008 C 
ATOM     34  H   UNL     1       2.588  -8.206   4.715  0.00  0.00    +0.157 HD
ENDBRANCH   5  21
TORSDOF 2
