REMARK  Name = ZINC03340107
REMARK  10 active torsions:
REMARK  status: ('A' for Active; 'I' for Inactive)
REMARK    1  A    between atoms: C_1  and  O_2
REMARK    2  A    between atoms: O_2  and  C_3
REMARK    3  A    between atoms: C_6  and  O_9
REMARK    4  A    between atoms: O_9  and  C_10
REMARK    5  A    between atoms: C_10  and  C_11
REMARK    6  A    between atoms: C_11  and  S_12
REMARK    7  A    between atoms: S_12  and  C_13
REMARK    8  A    between atoms: C_16  and  C_19
REMARK    9  A    between atoms: N_17  and  N_18
REMARK   10  A    between atoms: C_19  and  C_20
REMARK                            x       y       z     vdW  Elec       q    Type
REMARK                         _______ _______ _______ _____ _____    ______ ____
ROOT
ATOM      1  C   UNL     1      -8.157  -6.535   0.086  0.00  0.00    +0.209 A 
ATOM      2  N   UNL     1      -9.252  -5.811   0.064  0.00  0.00    -0.121 NA
ATOM      3  N   UNL     1     -10.283  -6.578   0.065  0.00  0.00    -0.132 NA
ATOM      4  C   UNL     1      -9.911  -7.827   0.087  0.00  0.00    +0.155 A 
ATOM      5  N   UNL     1      -8.544  -7.844   0.096  0.00  0.00    -0.228 N 
ENDROOT
BRANCH   5   6
ATOM      6  N   UNL     1      -7.733  -8.944   0.113  0.00  0.00    -0.295 N 
ATOM      7  H   UNL     1      -7.597  -9.277   1.056  0.00  0.00    +0.163 HD
ATOM      8  H   UNL     1      -8.100  -9.673  -0.479  0.00  0.00    +0.163 HD
ENDBRANCH   5   6
BRANCH   1   9
ATOM      9  S   UNL     1      -6.502  -5.931   0.094  0.00  0.00    -0.081 S 
BRANCH   9  10
ATOM     10  C   UNL     1      -6.692  -4.127   0.075  0.00  0.00    +0.118 C 
BRANCH  10  11
ATOM     11  C   UNL     1      -5.312  -3.468   0.080  0.00  0.00    +0.240 C 
BRANCH  11  12
ATOM     12  O   UNL     1      -5.462  -2.047   0.065  0.00  0.00    -0.491 OA
BRANCH  12  16
ATOM     13  C   UNL     1      -2.001   0.203   0.075  0.00  0.00    +0.120 A 
ATOM     14  C   UNL     1      -3.237   0.832   0.057  0.00  0.00    +0.049 A 
ATOM     15  C   UNL     1      -4.395   0.079   0.053  0.00  0.00    +0.049 A 
ATOM     16  C   UNL     1      -4.322  -1.306   0.068  0.00  0.00    +0.121 A 
ATOM     17  C   UNL     1      -3.086  -1.935   0.085  0.00  0.00    +0.049 A 
ATOM     18  C   UNL     1      -1.928  -1.182   0.084  0.00  0.00    +0.049 A 
BRANCH  13  20
ATOM     19  C   UNL     1      -1.012   2.366   0.068  0.00  0.00    +0.277 C 
ATOM     20  O   UNL     1      -0.861   0.945   0.078  0.00  0.00    -0.495 OA
ENDBRANCH  13  20
ENDBRANCH  12  16
ENDBRANCH  11  12
ENDBRANCH  10  11
ENDBRANCH   9  10
ENDBRANCH   1   9
BRANCH   4  21
ATOM     21  C   UNL     1     -10.820  -9.029   0.096  0.00  0.00    +0.113 C 
BRANCH  21  22
ATOM     22  C   UNL     1     -11.048  -9.476   1.516  0.00  0.00    -0.032 A 
ATOM     23  C   UNL     1     -10.280 -10.462   2.055  0.00  0.00    +0.004 A 
ATOM     24  C   UNL     1     -10.476 -10.889   3.367  0.00  0.00    +0.001 A 
ATOM     25  C   UNL     1     -11.442 -10.332   4.148  0.00  0.00    +0.008 A 
ATOM     26  C   UNL     1     -12.255  -9.312   3.626  0.00  0.00    -0.018 A 
ATOM     27  C   UNL     1     -12.051  -8.874   2.294  0.00  0.00    -0.014 A 
ATOM     28  C   UNL     1     -12.861  -7.849   1.774  0.00  0.00    +0.009 A 
ATOM     29  C   UNL     1     -13.823  -7.288   2.557  0.00  0.00    +0.001 A 
ATOM     30  C   UNL     1     -14.019  -7.715   3.869  0.00  0.00    +0.001 A 
ATOM     31  C   UNL     1     -13.263  -8.714   4.402  0.00  0.00    +0.008 A 
ENDBRANCH  21  22
ENDBRANCH   4  21
TORSDOF 9
