REMARK  Name = ZINC23442275
REMARK  9 active torsions:
REMARK  status: ('A' for Active; 'I' for Inactive)
REMARK    1  A    between atoms: C_1  and  C_2
REMARK    2  A    between atoms: C_5  and  N_9
REMARK    3  A    between atoms: C_10  and  C_22
REMARK    4  A    between atoms: C_22  and  C_23
REMARK    5  A    between atoms: C_23  and  C_24
REMARK    6  A    between atoms: N_26  and  C_27
REMARK    7  A    between atoms: C_27  and  C_28
REMARK    8  A    between atoms: C_28  and  C_29
REMARK    9  A    between atoms: N_34  and  C_35
REMARK                            x       y       z     vdW  Elec       q    Type
REMARK                         _______ _______ _______ _____ _____    ______ ____
ROOT
ATOM      1  N   UNL     1      -6.860  -1.107  -8.527  0.00  0.00    -0.310 N 
ATOM      2  C   UNL     1      -6.987   0.052  -7.805  0.00  0.00    +0.025 A 
ATOM      3  C   UNL     1      -8.285   0.443  -7.840  0.00  0.00    +0.030 A 
ATOM      4  C   UNL     1      -8.986  -0.492  -8.592  0.00  0.00    +0.016 A 
ATOM      5  C   UNL     1      -8.081  -1.446  -9.008  0.00  0.00    +0.064 A 
ATOM      6  C   UNL     1      -8.553  -2.569  -9.840  0.00  0.00    +0.041 A 
ATOM      7  C   UNL     1      -7.789  -3.698 -10.083  0.00  0.00    +0.013 A 
ATOM      8  C   UNL     1      -8.307  -4.717 -10.861  0.00  0.00    +0.001 A 
ATOM      9  C   UNL     1      -9.582  -4.606 -11.389  0.00  0.00    +0.004 A 
ATOM     10  C   UNL     1     -10.348  -3.479 -11.154  0.00  0.00    +0.046 A 
ATOM     11  C   UNL     1      -9.845  -2.444 -10.385  0.00  0.00    +0.130 A 
ATOM     12  O   UNL     1     -10.571  -1.317 -10.182  0.00  0.00    -0.487 OA
ATOM     13  C   UNL     1     -10.442  -0.584  -8.961  0.00  0.00    +0.266 C 
ENDROOT
BRANCH   1  18
ATOM     14  C   UNL     1      -2.045  -4.000  -9.346  0.00  0.00    +0.044 C 
ATOM     15  C   UNL     1      -3.323  -3.232  -9.130  0.00  0.00    -0.048 A 
ATOM     16  C   UNL     1      -4.125  -3.520  -8.041  0.00  0.00    +0.005 A 
ATOM     17  C   UNL     1      -5.297  -2.817  -7.839  0.00  0.00    +0.029 A 
ATOM     18  C   UNL     1      -5.671  -1.821  -8.730  0.00  0.00    +0.082 A 
ATOM     19  C   UNL     1      -4.866  -1.537  -9.827  0.00  0.00    +0.147 A 
ATOM     20  C   UNL     1      -3.690  -2.240 -10.020  0.00  0.00    +0.043 A 
ATOM     21  F   UNL     1      -5.228  -0.572 -10.700  0.00  0.00    -0.203 F 
ENDBRANCH   1  18
BRANCH   2  22
ATOM     22  C   UNL     1      -5.870   0.775  -7.098  0.00  0.00    +0.063 C 
BRANCH  22  23
ATOM     23  C   UNL     1      -5.833   0.344  -5.630  0.00  0.00    +0.102 C 
BRANCH  23  24
ATOM     24  C   UNL     1      -4.715   1.067  -4.923  0.00  0.00    +0.213 C 
ATOM     25  O   UNL     1      -4.017   1.849  -5.532  0.00  0.00    -0.276 OA
ATOM     26  N   UNL     1      -4.492   0.844  -3.612  0.00  0.00    -0.315 N 
ATOM     27  H   UNL     1      -5.125   0.135  -3.059  0.00  0.00    +0.149 HD
BRANCH  26  28
ATOM     28  C   UNL     1      -3.406   1.546  -2.925  0.00  0.00    +0.102 C 
BRANCH  28  29
ATOM     29  C   UNL     1      -3.369   1.116  -1.457  0.00  0.00    +0.003 C 
BRANCH  29  30
ATOM     30  C   UNL     1      -2.158   1.750  -0.770  0.00  0.00    -0.068 C 
ATOM     31  C   UNL     1      -2.323   3.284  -0.727  0.00  0.00    -0.017 C 
ATOM     32  C   UNL     1      -1.748   3.660   0.668  0.00  0.00    -0.020 C 
ATOM     33  C   UNL     1      -2.197   2.449   1.523  0.00  0.00    -0.079 C 
ATOM     34  N   UNL     1      -2.071   1.281   0.625  0.00  0.00    +0.380 N 
ATOM     35  C   UNL     1      -3.109   0.282   0.911  0.00  0.00    -0.096 C 
ATOM     36  H   UNL     1      -1.101   0.788   0.789  0.00  0.00    -0.082 HD
ENDBRANCH  29  30
ENDBRANCH  28  29
ENDBRANCH  26  28
ENDBRANCH  23  24
ENDBRANCH  22  23
ENDBRANCH   2  22
TORSDOF 7
