REMARK  Name = ZINC20294522
REMARK  10 active torsions:
REMARK  status: ('A' for Active; 'I' for Inactive)
REMARK    1  A    between atoms: C_1  and  C_2
REMARK    2  A    between atoms: C_4  and  C_30
REMARK    3  A    between atoms: N_5  and  C_7
REMARK    4  A    between atoms: C_7  and  C_8
REMARK    5  A    between atoms: C_10  and  C_13
REMARK    6  A    between atoms: N_15  and  C_16
REMARK    7  A    between atoms: C_16  and  C_17
REMARK    8  A    between atoms: C_17  and  N_18
REMARK    9  A    between atoms: C_19  and  C_21
REMARK   10  A    between atoms: C_26  and  N_27
REMARK                            x       y       z     vdW  Elec       q    Type
REMARK                         _______ _______ _______ _____ _____    ______ ____
ROOT
ATOM      1  C   UNL     1      -8.417  -0.409   0.855  0.00  0.00    +0.302 C 
ATOM      2  O   UNL     1      -8.466  -1.618   0.965  0.00  0.00    -0.265 OA
ATOM      3  N   UNL     1      -7.230   0.203   0.669  0.00  0.00    -0.306 N 
ATOM      4  H   UNL     1      -7.185   1.297   0.570  0.00  0.00    +0.149 HD
ENDROOT
BRANCH   1   7
ATOM      5  C   UNL     1     -11.679   1.015   1.098  0.00  0.00    +0.193 A 
ATOM      6  N   UNL     1     -10.884  -0.066   1.097  0.00  0.00    -0.186 NA
ATOM      7  C   UNL     1      -9.661   0.394   0.925  0.00  0.00    +0.313 A 
ATOM      8  O   UNL     1      -9.761   1.728   0.821  0.00  0.00    -0.328 OA
ATOM      9  N   UNL     1     -10.923   2.059   0.922  0.00  0.00    -0.059 NA
BRANCH   5  10
ATOM     10  C   UNL     1     -13.177   1.018   1.266  0.00  0.00    +0.223 C 
BRANCH  10  15
ATOM     11  C   UNL     1     -15.238  -0.980  -2.852  0.00  0.00    +0.068 C 
ATOM     12  C   UNL     1     -14.713   0.006  -1.840  0.00  0.00    +0.074 A 
ATOM     13  C   UNL     1     -14.728   1.399  -1.968  0.00  0.00    +0.061 A 
ATOM     14  C   UNL     1     -14.175   1.926  -0.850  0.00  0.00    +0.051 A 
ATOM     15  N   UNL     1     -13.815   0.901  -0.047  0.00  0.00    -0.260 N 
ATOM     16  N   UNL     1     -14.167  -0.293  -0.689  0.00  0.00    -0.175 NA
ATOM     17  C   UNL     1     -13.991   3.392  -0.555  0.00  0.00    +0.066 C 
ATOM     18 BR   UNL     1     -15.406   2.375  -3.439  0.00  0.00    -0.047 Br
ENDBRANCH  10  15
ENDBRANCH   5  10
ENDBRANCH   1   7
BRANCH   3  19
ATOM     19  C   UNL     1      -6.000  -0.590   0.600  0.00  0.00    +0.123 C 
BRANCH  19  20
ATOM     20  C   UNL     1      -4.805   0.340   0.385  0.00  0.00    +0.123 C 
BRANCH  20  21
ATOM     21  N   UNL     1      -3.575  -0.453   0.316  0.00  0.00    -0.310 N 
ATOM     22  C   UNL     1      -2.388   0.159   0.130  0.00  0.00    +0.246 C 
ATOM     23  O   UNL     1      -2.339   1.369   0.020  0.00  0.00    -0.270 OA
ATOM     24  H   UNL     1      -3.620  -1.547   0.416  0.00  0.00    +0.149 HD
BRANCH  22  25
ATOM     25  C   UNL     1      -1.147  -0.641   0.060  0.00  0.00    +0.067 A 
ATOM     26  C   UNL     1      -0.815  -1.512   1.099  0.00  0.00    +0.015 A 
ATOM     27  C   UNL     1       0.344  -2.256   1.028  0.00  0.00    +0.001 A 
ATOM     28  C   UNL     1       1.177  -2.141  -0.071  0.00  0.00    +0.002 A 
ATOM     29  C   UNL     1       0.851  -1.283  -1.107  0.00  0.00    +0.033 A 
ATOM     30  C   UNL     1      -0.303  -0.529  -1.045  0.00  0.00    +0.138 A 
BRANCH  30  31
ATOM     31  N   UNL     1      -0.647   0.391  -2.152  0.00  0.00    +0.057 N 
ATOM     32  O   UNL     1       0.143   0.574  -3.060  0.00  0.00    -0.126 OA
ATOM     33  O   UNL     1      -1.723   0.962  -2.156  0.00  0.00    -0.126 OA
ENDBRANCH  30  31
ENDBRANCH  22  25
ENDBRANCH  20  21
ENDBRANCH  19  20
ENDBRANCH   3  19
TORSDOF 8
