REMARK  Name = ZINC06725080
REMARK  11 active torsions:
REMARK  status: ('A' for Active; 'I' for Inactive)
REMARK    1  A    between atoms: C_1  and  C_2
REMARK    2  A    between atoms: C_2  and  O_3
REMARK    3  A    between atoms: O_3  and  C_4
REMARK    4  A    between atoms: C_7  and  N_10
REMARK    5  A    between atoms: C_20  and  C_21
REMARK    6  A    between atoms: C_20  and  O_29
REMARK    7  A    between atoms: N_23  and  C_24
REMARK    8  A    between atoms: C_24  and  C_25
REMARK    9  A    between atoms: C_25  and  C_26
REMARK   10  A    between atoms: C_26  and  C_27
REMARK   11  A    between atoms: C_26  and  C_28
REMARK                            x       y       z     vdW  Elec       q    Type
REMARK                         _______ _______ _______ _____ _____    ______ ____
ROOT
ATOM      1  N   UNL     1       1.159   1.869   0.001  0.00  0.00    -0.214 N 
ATOM      2  C   UNL     1       0.014   1.268  -0.369  0.00  0.00    +0.314 C 
ATOM      3  O   UNL     1       0.056   0.104  -0.716  0.00  0.00    -0.252 OA
ATOM      4  N   UNL     1      -1.169   1.895  -0.380  0.00  0.00    -0.269 N 
ATOM      5  C   UNL     1      -1.326   3.228   0.003  0.00  0.00    +0.043 A 
ATOM      6  C   UNL     1      -2.577   3.830  -0.021  0.00  0.00    +0.024 A 
ATOM      7  C   UNL     1      -2.711   5.151   0.358  0.00  0.00    +0.002 A 
ATOM      8  C   UNL     1      -1.605   5.878   0.760  0.00  0.00    +0.001 A 
ATOM      9  C   UNL     1      -0.355   5.283   0.785  0.00  0.00    +0.010 A 
ATOM     10  C   UNL     1      -0.220   3.966   0.408  0.00  0.00    +0.033 A 
ATOM     11  C   UNL     1       1.126   3.280   0.423  0.00  0.00    +0.247 C 
ATOM     12  H   UNL     1      -1.954   1.399  -0.664  0.00  0.00    +0.156 HD
ENDROOT
BRANCH   1  16
ATOM     13  C   UNL     1       4.758  -0.238  -0.045  0.00  0.00    +0.121 A 
ATOM     14  C   UNL     1       3.914  -0.332   1.052  0.00  0.00    +0.047 A 
ATOM     15  C   UNL     1       2.722   0.366   1.068  0.00  0.00    +0.027 A 
ATOM     16  C   UNL     1       2.369   1.161  -0.014  0.00  0.00    +0.042 A 
ATOM     17  C   UNL     1       3.212   1.250  -1.114  0.00  0.00    +0.027 A 
ATOM     18  C   UNL     1       4.405   0.556  -1.127  0.00  0.00    +0.047 A 
BRANCH  13  19
ATOM     19  O   UNL     1       5.931  -0.925  -0.060  0.00  0.00    -0.492 OA
BRANCH  19  21
ATOM     20  C   UNL     1       8.019  -1.623  -1.056  0.00  0.00    +0.048 C 
ATOM     21  C   UNL     1       6.752  -0.783  -1.221  0.00  0.00    +0.225 C 
ENDBRANCH  19  21
ENDBRANCH  13  19
ENDBRANCH   1  16
BRANCH  11  22
ATOM     22  C   UNL     1       1.674   3.359   1.824  0.00  0.00    +0.269 C 
ATOM     23  O   UNL     1       2.601   4.100   2.072  0.00  0.00    -0.270 OA
ATOM     24  N   UNL     1       1.133   2.606   2.803  0.00  0.00    -0.311 N 
ATOM     25  H   UNL     1       0.391   2.014   2.604  0.00  0.00    +0.149 HD
BRANCH  24  26
ATOM     26  C   UNL     1       1.665   2.683   4.165  0.00  0.00    +0.104 C 
BRANCH  26  27
ATOM     27  C   UNL     1       0.879   1.736   5.074  0.00  0.00    +0.022 C 
BRANCH  27  28
ATOM     28  C   UNL     1       1.434   1.816   6.497  0.00  0.00    -0.016 C 
ATOM     29  C   UNL     1       1.188   3.217   7.063  0.00  0.00    +0.007 C 
ATOM     30  C   UNL     1       0.733   0.780   7.378  0.00  0.00    +0.007 C 
ENDBRANCH  27  28
ENDBRANCH  26  27
ENDBRANCH  24  26
ENDBRANCH  11  22
BRANCH  11  31
ATOM     31  O   UNL     1       2.005   4.016  -0.431  0.00  0.00    -0.360 OA
ATOM     32  H   UNL     1       2.050   4.960  -0.230  0.00  0.00    +0.213 HD
ENDBRANCH  11  31
TORSDOF 8
