REMARK  Name = ZINC00549820
REMARK  6 active torsions:
REMARK  status: ('A' for Active; 'I' for Inactive)
REMARK    1  A    between atoms: C_1  and  C_2
REMARK    2  A    between atoms: C_2  and  C_3
REMARK    3  A    between atoms: C_3  and  C_4
REMARK    4  A    between atoms: C_11  and  N_24
REMARK    5  A    between atoms: C_12  and  C_22
REMARK    6  A    between atoms: C_13  and  C_15
REMARK                            x       y       z     vdW  Elec       q    Type
REMARK                         _______ _______ _______ _____ _____    ______ ____
ROOT
ATOM      1  C   UNL     1       0.798  -2.196   1.306  0.00  0.00    +0.044 A 
ATOM      2  C   UNL     1       1.644  -2.894   0.534  0.00  0.00    +0.045 A 
ATOM      3  C   UNL     1       1.389  -4.269   0.736  0.00  0.00    +0.244 A 
ATOM      4  N   UNL     1       0.423  -4.376   1.602  0.00  0.00    -0.135 NA
ATOM      5  N   UNL     1       0.033  -3.082   1.984  0.00  0.00    -0.278 N 
ATOM      6  H   UNL     1      -0.664  -2.863   2.620  0.00  0.00    +0.189 HD
ATOM      7  O   UNL     1       2.089  -5.236   0.085  0.00  0.00    -0.422 OA
ATOM      8  C   UNL     1       2.850  -4.854  -0.961  0.00  0.00    +0.200 C 
ATOM      9  C   UNL     1       3.171  -3.574  -1.246  0.00  0.00    +0.094 C 
ATOM     10  C   UNL     1       2.710  -2.405  -0.413  0.00  0.00    +0.078 C 
ENDROOT
BRANCH  10  11
ATOM     11  C   UNL     1       3.890  -1.844   0.384  0.00  0.00    +0.024 C 
ATOM     12  C   UNL     1       4.546  -2.973   1.181  0.00  0.00    +0.009 C 
ATOM     13  C   UNL     1       5.868  -2.452   1.760  0.00  0.00    +0.005 C 
ATOM     14  C   UNL     1       6.837  -2.197   0.603  0.00  0.00    +0.027 C 
ATOM     15  C   UNL     1       6.165  -1.384  -0.464  0.00  0.00    -0.031 C 
ATOM     16  C   UNL     1       4.884  -1.236  -0.562  0.00  0.00    -0.027 C 
ENDBRANCH  10  11
BRANCH   8  17
ATOM     17  N   UNL     1       3.332  -5.834  -1.792  0.00  0.00    -0.328 N 
ATOM     18  H   UNL     1       3.122  -6.764  -1.617  0.00  0.00    +0.145 HD
ATOM     19  H   UNL     1       3.883  -5.596  -2.554  0.00  0.00    +0.145 HD
ENDBRANCH   8  17
BRANCH   9  20
ATOM     20  C   UNL     1       3.986  -3.315  -2.395  0.00  0.00    +0.100 C 
ATOM     21  N   UNL     1       4.632  -3.109  -3.306  0.00  0.00    -0.191 NA
ENDBRANCH   9  20
BRANCH   1  22
ATOM     22  C   UNL     1       0.719  -0.694   1.405  0.00  0.00    +0.055 C 
BRANCH  22  24
ATOM     23  C   UNL     1      -0.272   1.367   0.399  0.00  0.00    +0.004 C 
ATOM     24  C   UNL     1      -0.191  -0.157   0.298  0.00  0.00    +0.003 C 
ENDBRANCH  22  24
ENDBRANCH   1  22
TORSDOF 5
