REMARK  Name = ZINC67391260
REMARK  6 active torsions:
REMARK  status: ('A' for Active; 'I' for Inactive)
REMARK    1  A    between atoms: C_1  and  C_2
REMARK    2  A    between atoms: C_6  and  C_8
REMARK    3  A    between atoms: N_10  and  N_11
REMARK    4  A    between atoms: N_14  and  C_15
REMARK    5  A    between atoms: C_15  and  C_16
REMARK    6  A    between atoms: C_16  and  N_21
REMARK                            x       y       z     vdW  Elec       q    Type
REMARK                         _______ _______ _______ _____ _____    ______ ____
ROOT
ATOM      1  N   UNL     1       0.276  -4.872   3.588  0.00  0.00    -0.218 N 
ATOM      2  C   UNL     1       0.203  -6.217   3.598  0.00  0.00    +0.316 C 
ATOM      3  O   UNL     1       0.145  -6.815   4.655  0.00  0.00    -0.251 OA
ATOM      4  N   UNL     1       0.195  -6.900   2.436  0.00  0.00    -0.300 N 
ATOM      5  H   UNL     1       0.282  -4.380   4.424  0.00  0.00    +0.174 HD
ATOM      6  H   UNL     1       0.241  -6.423   1.593  0.00  0.00    +0.150 HD
ENDROOT
BRANCH   1   9
ATOM      7  C   UNL     1       0.415  -2.837   2.360  0.00  0.00    +0.260 C 
ATOM      8  O   UNL     1       0.422  -2.221   3.408  0.00  0.00    -0.269 OA
ATOM      9  N   UNL     1       0.342  -4.183   2.370  0.00  0.00    -0.229 N 
ATOM     10  H   UNL     1       0.336  -4.674   1.534  0.00  0.00    +0.173 HD
BRANCH   7  16
ATOM     11  C   UNL     1       0.705   1.461  -0.159  0.00  0.00    +0.044 C 
ATOM     12  C   UNL     1       0.624  -0.044  -0.142  0.00  0.00    -0.050 A 
ATOM     13  C   UNL     1       0.616  -0.748  -1.333  0.00  0.00    +0.003 A 
ATOM     14  C   UNL     1       0.542  -2.130  -1.327  0.00  0.00    +0.001 A 
ATOM     15  C   UNL     1       0.477  -2.814  -0.131  0.00  0.00    +0.013 A 
ATOM     16  C   UNL     1       0.485  -2.110   1.074  0.00  0.00    +0.038 A 
ATOM     17  C   UNL     1       0.565  -0.716   1.060  0.00  0.00    +0.016 A 
ENDBRANCH   7  16
ENDBRANCH   1   9
BRANCH   4  18
ATOM     18  C   UNL     1       0.116  -8.363   2.447  0.00  0.00    +0.094 C 
BRANCH  18  19
ATOM     19  C   UNL     1      -0.000  -8.878   1.011  0.00  0.00    -0.050 C 
ATOM     20  C   UNL     1      -1.291  -8.341   0.360  0.00  0.00    -0.010 C 
ATOM     21  C   UNL     1      -1.793  -9.516  -0.515  0.00  0.00    -0.001 C 
ATOM     22  C   UNL     1      -1.469 -10.754   0.357  0.00  0.00    -0.001 C 
ATOM     23  C   UNL     1      -0.113 -10.413   1.009  0.00  0.00    -0.010 C 
BRANCH  19  24
ATOM     24  N   UNL     1       1.171  -8.459   0.230  0.00  0.00    +0.386 N 
ATOM     25  C   UNL     1       0.958  -8.804  -1.177  0.00  0.00    -0.067 C 
ATOM     26  C   UNL     1       1.970  -8.059  -2.055  0.00  0.00    +0.050 C 
ATOM     27  S   UNL     1       3.642  -8.604  -1.586  0.00  0.00    -0.164 S 
ATOM     28  C   UNL     1       3.624  -8.430   0.225  0.00  0.00    +0.050 C 
ATOM     29  C   UNL     1       2.365  -9.119   0.762  0.00  0.00    -0.067 C 
ATOM     30  H   UNL     1       1.282  -7.459   0.311  0.00  0.00    -0.081 HD
ENDBRANCH  19  24
ENDBRANCH  18  19
ENDBRANCH   4  18
TORSDOF 5
