REMARK  Name = ZINC59462584
REMARK  6 active torsions:
REMARK  status: ('A' for Active; 'I' for Inactive)
REMARK    1  A    between atoms: C_1  and  C_2
REMARK    2  A    between atoms: C_5  and  N_8
REMARK    3  A    between atoms: C_9  and  C_23
REMARK    4  A    between atoms: N_11  and  C_17
REMARK    5  A    between atoms: C_13  and  C_14
REMARK    6  A    between atoms: C_14  and  C_16
REMARK                            x       y       z     vdW  Elec       q    Type
REMARK                         _______ _______ _______ _____ _____    ______ ____
ROOT
ATOM      1  N   UNL     1      -0.293  -4.281  -0.086  0.00  0.00    -0.256 N 
ATOM      2  C   UNL     1      -0.173  -5.105   1.128  0.00  0.00    +0.222 C 
ATOM      3  N   UNL     1       0.336  -6.397   0.638  0.00  0.00    -0.197 N 
ATOM      4  N   UNL     1       0.477  -6.267  -0.749  0.00  0.00    -0.158 NA
ATOM      5  C   UNL     1       0.119  -5.084  -1.155  0.00  0.00    +0.188 C 
ENDROOT
BRANCH   1  10
ATOM      6  C   UNL     1      -2.096   1.088  -0.375  0.00  0.00    +0.044 C 
ATOM      7  C   UNL     1      -1.617  -0.339  -0.298  0.00  0.00    -0.050 A 
ATOM      8  C   UNL     1      -2.516  -1.378  -0.453  0.00  0.00    +0.005 A 
ATOM      9  C   UNL     1      -2.081  -2.687  -0.384  0.00  0.00    +0.024 A 
ATOM     10  C   UNL     1      -0.737  -2.959  -0.158  0.00  0.00    +0.037 A 
ATOM     11  C   UNL     1       0.164  -1.912  -0.003  0.00  0.00    +0.024 A 
ATOM     12  C   UNL     1      -0.278  -0.606  -0.079  0.00  0.00    +0.005 A 
ENDBRANCH   1  10
BRANCH   3  13
ATOM     13  C   UNL     1       0.621  -7.527   1.404  0.00  0.00    +0.054 A 
ATOM     14  C   UNL     1       0.559  -7.462   2.791  0.00  0.00    +0.025 A 
ATOM     15  C   UNL     1       0.842  -8.583   3.546  0.00  0.00    +0.002 A 
ATOM     16  C   UNL     1       1.187  -9.769   2.924  0.00  0.00    +0.000 A 
ATOM     17  C   UNL     1       1.250  -9.837   1.544  0.00  0.00    +0.002 A 
ATOM     18  C   UNL     1       0.963  -8.722   0.782  0.00  0.00    +0.025 A 
ENDBRANCH   3  13
BRANCH   2  19
ATOM     19  C   UNL     1      -1.519  -5.279   1.783  0.00  0.00    +0.011 A 
ATOM     20  C   UNL     1      -2.549  -5.918   1.111  0.00  0.00    +0.010 A 
ATOM     21  C   UNL     1      -3.771  -6.056   1.752  0.00  0.00    +0.020 A 
ATOM     22  C   UNL     1      -3.919  -5.555   3.032  0.00  0.00    +0.111 A 
ATOM     23  N   UNL     1      -2.917  -4.952   3.641  0.00  0.00    -0.263 NA
ATOM     24  C   UNL     1      -1.740  -4.809   3.063  0.00  0.00    +0.117 A 
ENDBRANCH   2  19
BRANCH   5  25
ATOM     25  C   UNL     1       0.147  -4.662  -2.506  0.00  0.00    +0.194 C 
ATOM     26  O   UNL     1      -0.159  -3.522  -2.792  0.00  0.00    -0.289 OA
ATOM     27  C   UNL     1       0.555  -5.628  -3.588  0.00  0.00    +0.095 C 
ENDBRANCH   5  25
TORSDOF 4
