REMARK  Name = ZINC36313744
REMARK  18 active torsions:
REMARK  status: ('A' for Active; 'I' for Inactive)
REMARK    1  A    between atoms: C_1  and  C_2
REMARK    2  A    between atoms: C_2  and  C_3
REMARK    3  A    between atoms: C_3  and  C_4
REMARK    4  A    between atoms: C_4  and  C_5
REMARK    5  A    between atoms: C_5  and  C_7
REMARK    6  A    between atoms: C_5  and  O_34
REMARK    7  A    between atoms: C_7  and  N_8
REMARK    8  A    between atoms: N_8  and  C_9
REMARK    9  A    between atoms: N_8  and  C_12
REMARK   10  A    between atoms: C_9  and  C_10
REMARK   11  A    between atoms: C_10  and  C_11
REMARK   12  A    between atoms: C_12  and  C_13
REMARK   13  A    between atoms: C_14  and  C_33
REMARK   14  A    between atoms: N_16  and  C_27
REMARK   15  A    between atoms: C_17  and  O_18
REMARK   16  A    between atoms: O_18  and  C_19
REMARK   17  A    between atoms: C_24  and  O_25
REMARK   18  A    between atoms: O_25  and  C_26
REMARK                            x       y       z     vdW  Elec       q    Type
REMARK                         _______ _______ _______ _____ _____    ______ ____
ROOT
ATOM      1  C   UNL     1       3.865  -6.188   4.845  0.00  0.00    +0.021 A 
ATOM      2  C   UNL     1       5.209  -5.900   4.591  0.00  0.00    +0.065 A 
ATOM      3  N   UNL     1       5.859  -5.918   5.727  0.00  0.00    -0.168 NA
ATOM      4  N   UNL     1       4.950  -6.218   6.751  0.00  0.00    -0.200 N 
ATOM      5  C   UNL     1       3.724  -6.376   6.184  0.00  0.00    +0.225 A 
ATOM      6  C   UNL     1       5.809  -5.617   3.238  0.00  0.00    +0.068 C 
ENDROOT
BRANCH   4   7
ATOM      7  C   UNL     1       5.251  -6.331   8.115  0.00  0.00    +0.069 A 
ATOM      8  C   UNL     1       4.362  -5.847   9.065  0.00  0.00    +0.028 A 
ATOM      9  C   UNL     1       4.661  -5.959  10.409  0.00  0.00    +0.002 A 
ATOM     10  C   UNL     1       5.844  -6.553  10.808  0.00  0.00    +0.000 A 
ATOM     11  C   UNL     1       6.732  -7.035   9.864  0.00  0.00    +0.002 A 
ATOM     12  C   UNL     1       6.435  -6.932   8.519  0.00  0.00    +0.028 A 
ENDBRANCH   4   7
BRANCH   1  13
ATOM     13  C   UNL     1       2.766  -6.270   3.817  0.00  0.00    -0.036 C 
BRANCH  13  14
ATOM     14  N   UNL     1       2.050  -4.988   3.763  0.00  0.00    +0.384 N 
ATOM     15  H   UNL     1       1.723  -4.747   4.687  0.00  0.00    -0.081 HD
BRANCH  14  16
ATOM     16  C   UNL     1       2.956  -3.941   3.275  0.00  0.00    -0.047 C 
BRANCH  16  17
ATOM     17  C   UNL     1       2.276  -2.576   3.405  0.00  0.00    +0.098 C 
BRANCH  17  18
ATOM     18  O   UNL     1       1.181  -2.501   2.489  0.00  0.00    -0.394 OA
ATOM     19  H   UNL     1       1.435  -2.606   1.562  0.00  0.00    +0.210 HD
ENDBRANCH  17  18
BRANCH  17  20
ATOM     20  C   UNL     1       3.284  -1.471   3.085  0.00  0.00    +0.029 C 
BRANCH  20  21
ATOM     21  C   UNL     1       2.641  -0.106   3.336  0.00  0.00    +0.002 C 
BRANCH  21  23
ATOM     22  C   UNL     1       3.006   2.365   3.267  0.00  0.00    +0.004 C 
ATOM     23  C   UNL     1       3.649   1.000   3.016  0.00  0.00    -0.003 C 
ENDBRANCH  21  23
ENDBRANCH  20  21
ENDBRANCH  17  20
ENDBRANCH  16  17
ENDBRANCH  14  16
BRANCH  14  24
ATOM     24  C   UNL     1       0.902  -5.107   2.854  0.00  0.00    -0.079 C 
BRANCH  24  25
ATOM     25  C   UNL     1      -0.090  -6.127   3.415  0.00  0.00    -0.022 C 
ATOM     26  C   UNL     1      -1.254  -6.298   2.436  0.00  0.00    +0.002 C 
ENDBRANCH  24  25
ENDBRANCH  14  24
ENDBRANCH  13  14
ENDBRANCH   1  13
BRANCH   5  27
ATOM     27  O   UNL     1       2.570  -6.670   6.837  0.00  0.00    -0.434 OA
BRANCH  27  28
ATOM     28  C   UNL     1       2.290  -7.978   7.080  0.00  0.00    +0.172 A 
ATOM     29  C   UNL     1       3.218  -8.958   6.762  0.00  0.00    +0.050 A 
ATOM     30  C   UNL     1       2.931 -10.287   7.010  0.00  0.00    +0.004 A 
ATOM     31  C   UNL     1       1.721 -10.643   7.575  0.00  0.00    +0.004 A 
ATOM     32  C   UNL     1       0.791  -9.671   7.894  0.00  0.00    +0.049 A 
ATOM     33  C   UNL     1       1.074  -8.336   7.654  0.00  0.00    +0.162 A 
BRANCH  33  34
ATOM     34  O   UNL     1       0.163  -7.378   7.972  0.00  0.00    -0.491 OA
ATOM     35  C   UNL     1      -1.064  -7.819   8.558  0.00  0.00    +0.277 C 
ENDBRANCH  33  34
ENDBRANCH  27  28
ENDBRANCH   5  27
TORSDOF 14
