REMARK  Name = ZINC47728383
REMARK  6 active torsions:
REMARK  status: ('A' for Active; 'I' for Inactive)
REMARK    1  A    between atoms: C_1  and  C_2
REMARK    2  A    between atoms: C_2  and  C_4
REMARK    3  A    between atoms: C_2  and  N_13
REMARK    4  A    between atoms: N_16  and  C_17
REMARK    5  A    between atoms: C_21  and  C_23
REMARK    6  A    between atoms: N_25  and  C_26
REMARK                            x       y       z     vdW  Elec       q    Type
REMARK                         _______ _______ _______ _____ _____    ______ ____
ROOT
ATOM      1  N   UNL     1      -1.370  -0.517   0.012  0.00  0.00    -0.293 N 
ATOM      2  C   UNL     1      -2.051  -0.641  -1.144  0.00  0.00    +0.304 C 
ATOM      3  O   UNL     1      -1.526  -0.331  -2.196  0.00  0.00    -0.252 OA
ATOM      4  N   UNL     1      -3.315  -1.109  -1.135  0.00  0.00    -0.269 N 
ATOM      5  H   UNL     1      -1.790  -0.764   0.851  0.00  0.00    +0.151 HD
ATOM      6  H   UNL     1      -3.712  -1.419  -0.306  0.00  0.00    +0.156 HD
ENDROOT
BRANCH   4   7
ATOM      7  C   UNL     1      -4.056  -1.148  -2.322  0.00  0.00    +0.036 A 
ATOM      8  C   UNL     1      -3.424  -1.431  -3.527  0.00  0.00    +0.025 A 
ATOM      9  C   UNL     1      -4.149  -1.470  -4.702  0.00  0.00    +0.022 A 
ATOM     10  C   UNL     1      -5.510  -1.227  -4.688  0.00  0.00    +0.053 A 
ATOM     11  C   UNL     1      -6.154  -0.942  -3.482  0.00  0.00    +0.057 A 
ATOM     12  C   UNL     1      -5.421  -0.909  -2.295  0.00  0.00    +0.037 A 
ATOM     13 CL   UNL     1      -6.417  -1.276  -6.167  0.00  0.00    -0.083 Cl
BRANCH  11  14
ATOM     14  C   UNL     1      -7.609  -0.681  -3.462  0.00  0.00    +0.246 C 
ATOM     15  O   UNL     1      -8.247  -0.715  -4.496  0.00  0.00    -0.270 OA
ATOM     16  N   UNL     1      -8.228  -0.406  -2.297  0.00  0.00    -0.308 N 
ATOM     17  H   UNL     1      -7.720  -0.379  -1.472  0.00  0.00    +0.149 HD
BRANCH  16  18
ATOM     18  C   UNL     1      -9.670  -0.148  -2.277  0.00  0.00    +0.073 C 
ATOM     19  C   UNL     1     -10.167   1.022  -1.424  0.00  0.00    +0.024 C 
ATOM     20  C   UNL     1     -10.419  -0.418  -0.970  0.00  0.00    +0.024 C 
ENDBRANCH  16  18
ENDBRANCH  11  14
ENDBRANCH   4   7
BRANCH   1  22
ATOM     21  C   UNL     1      -0.019   1.522   0.021  0.00  0.00    +0.033 C 
ATOM     22  C   UNL     1       0.003  -0.008   0.002  0.00  0.00    +0.102 C 
BRANCH  22  23
ATOM     23  C   UNL     1       0.736  -0.515   1.218  0.00  0.00    -0.024 A 
ATOM     24  C   UNL     1       0.087  -0.579   2.437  0.00  0.00    +0.009 A 
ATOM     25  C   UNL     1       0.754  -1.043   3.555  0.00  0.00    +0.050 A 
ATOM     26  C   UNL     1       2.076  -1.446   3.456  0.00  0.00    +0.166 A 
ATOM     27  C   UNL     1       2.730  -1.381   2.228  0.00  0.00    +0.167 A 
ATOM     28  C   UNL     1       2.053  -0.920   1.110  0.00  0.00    +0.055 A 
ATOM     29  O   UNL     1       4.009  -1.829   2.390  0.00  0.00    -0.453 OA
ATOM     30  C   UNL     1       4.255  -1.782   3.808  0.00  0.00    +0.466 C 
ATOM     31  O   UNL     1       2.946  -1.933   4.388  0.00  0.00    -0.453 OA
ENDBRANCH  22  23
ENDBRANCH   1  22
TORSDOF 5
