REMARK  Name = ZINC64044149
REMARK  12 active torsions:
REMARK  status: ('A' for Active; 'I' for Inactive)
REMARK    1  A    between atoms: C_1  and  C_2
REMARK    2  A    between atoms: C_2  and  C_3
REMARK    3  A    between atoms: C_5  and  C_36
REMARK    4  A    between atoms: C_7  and  C_9
REMARK    5  A    between atoms: C_9  and  N_10
REMARK    6  A    between atoms: C_14  and  C_32
REMARK    7  A    between atoms: C_15  and  S_21
REMARK    8  A    between atoms: S_21  and  N_24
REMARK    9  A    between atoms: N_24  and  C_25
REMARK   10  A    between atoms: C_25  and  C_26
REMARK   11  A    between atoms: C_32  and  O_34
REMARK   12  A    between atoms: O_34  and  C_35
REMARK                            x       y       z     vdW  Elec       q    Type
REMARK                         _______ _______ _______ _____ _____    ______ ____
ROOT
ATOM      1  N   UNL     1       4.268  -0.969  -3.810  0.00  0.00    -0.295 NA
ATOM      2  C   UNL     1       3.442  -0.491  -4.913  0.00  0.00    +0.089 C 
ATOM      3  C   UNL     1       3.496  -1.425  -6.127  0.00  0.00    +0.048 C 
ATOM      4  C   UNL     1       4.967  -1.490  -6.539  0.00  0.00    -0.042 C 
ATOM      5  C   UNL     1       5.436  -2.039  -7.630  0.00  0.00    +0.072 C 
ATOM      6  C   UNL     1       6.938  -2.065  -7.848  0.00  0.00    +0.242 C 
ATOM      7  S   UNL     1       7.541  -1.684  -6.144  0.00  0.00    -0.119 S 
ATOM      8  C   UNL     1       5.987  -0.908  -5.547  0.00  0.00    +0.089 C 
ATOM      9  C   UNL     1       5.590  -1.477  -4.185  0.00  0.00    +0.103 C 
ENDROOT
BRANCH   6  10
ATOM     10  S   UNL     1       7.493  -3.705  -8.389  0.00  0.00    +0.046 S 
ATOM     11  O   UNL     1       7.226  -4.669  -7.380  0.00  0.00    -0.157 OA
ATOM     12  O   UNL     1       7.100  -3.935  -9.734  0.00  0.00    -0.157 OA
BRANCH  10  13
ATOM     13  N   UNL     1       9.145  -3.598  -8.444  0.00  0.00    -0.193 NA
ATOM     14  H   UNL     1       9.608  -3.678  -9.292  0.00  0.00    +0.148 HD
BRANCH  13  15
ATOM     15  C   UNL     1       9.907  -3.381  -7.211  0.00  0.00    +0.109 C 
BRANCH  15  16
ATOM     16  C   UNL     1      11.384  -3.690  -7.463  0.00  0.00    +0.004 C 
ATOM     17  C   UNL     1      11.546  -5.178  -7.784  0.00  0.00    +0.005 C 
ATOM     18  C   UNL     1      13.023  -5.486  -8.036  0.00  0.00    +0.000 C 
ATOM     19  C   UNL     1      13.837  -5.142  -6.787  0.00  0.00    +0.000 C 
ATOM     20  C   UNL     1      13.675  -3.655  -6.467  0.00  0.00    +0.000 C 
ATOM     21  C   UNL     1      12.197  -3.346  -6.214  0.00  0.00    +0.005 C 
ENDBRANCH  15  16
ENDBRANCH  13  15
ENDBRANCH  10  13
ENDBRANCH   6  10
BRANCH   5  22
ATOM     22  C   UNL     1       4.525  -2.622  -8.625  0.00  0.00    +0.338 C 
ATOM     23  O   UNL     1       3.324  -2.595  -8.439  0.00  0.00    -0.245 OA
BRANCH  22  24
ATOM     24  O   UNL     1       5.021  -3.184  -9.745  0.00  0.00    -0.465 OA
ATOM     25  C   UNL     1       4.078  -3.731 -10.669  0.00  0.00    +0.280 C 
ENDBRANCH  22  24
ENDBRANCH   5  22
BRANCH   1  26
ATOM     26  C   UNL     1       3.540  -1.949  -2.993  0.00  0.00    +0.139 C 
BRANCH  26  31
ATOM     27  C   UNL     1       0.364  -0.590  -1.797  0.00  0.00    +0.084 A 
ATOM     28  N   UNL     1       1.195  -0.076  -0.932  0.00  0.00    -0.347 N 
ATOM     29  C   UNL     1       2.441  -0.478  -1.223  0.00  0.00    +0.035 A 
ATOM     30  H   UNL     1       0.698  -1.848  -3.417  0.00  0.00    +0.167 HD
ATOM     31  C   UNL     1       2.380  -1.271  -2.310  0.00  0.00    +0.050 A 
ATOM     32  N   UNL     1       1.062  -1.347  -2.671  0.00  0.00    -0.346 N 
ATOM     33  C   UNL     1       3.691  -0.107  -0.466  0.00  0.00    +0.065 C 
ATOM     34  H   UNL     1       0.950   0.505  -0.195  0.00  0.00    +0.167 HD
BRANCH  27  36
ATOM     35  C   UNL     1      -1.805  -1.456  -0.964  0.00  0.00    +0.012 C 
ATOM     36  C   UNL     1      -1.128  -0.379  -1.814  0.00  0.00    +0.069 C 
ENDBRANCH  27  36
ENDBRANCH  26  31
ENDBRANCH   1  26
TORSDOF 9
