REMARK  Name = ZINC39664777
REMARK  11 active torsions:
REMARK  status: ('A' for Active; 'I' for Inactive)
REMARK    1  A    between atoms: C_1  and  C_2
REMARK    2  A    between atoms: C_2  and  C_3
REMARK    3  A    between atoms: C_3  and  C_5
REMARK    4  A    between atoms: C_3  and  C_11
REMARK    5  A    between atoms: C_15  and  C_24
REMARK    6  A    between atoms: N_26  and  C_27
REMARK    7  A    between atoms: C_27  and  C_29
REMARK    8  A    between atoms: C_27  and  C_33
REMARK    9  A    between atoms: C_29  and  N_30
REMARK   10  A    between atoms: N_30  and  C_31
REMARK   11  A    between atoms: N_30  and  C_32
REMARK                            x       y       z     vdW  Elec       q    Type
REMARK                         _______ _______ _______ _____ _____    ______ ____
ROOT
ATOM      1  C   UNL     1      -0.605  -1.107  -0.668  0.00  0.00    +0.223 C 
ATOM      2  O   UNL     1       0.517  -1.488  -0.411  0.00  0.00    -0.275 OA
ATOM      3  N   UNL     1      -1.569  -2.001  -0.964  0.00  0.00    -0.300 N 
ATOM      4  C   UNL     1      -2.984  -1.730  -1.308  0.00  0.00    +0.121 C 
ATOM      5  C   UNL     1      -3.314  -2.740  -2.429  0.00  0.00    +0.100 C 
ATOM      6  C   UNL     1      -2.307  -3.886  -2.234  0.00  0.00    -0.004 C 
ATOM      7  C   UNL     1      -1.450  -3.477  -1.026  0.00  0.00    +0.115 C 
ATOM      8  C   UNL     1      -1.427  -4.032  -3.471  0.00  0.00    -0.010 C 
ATOM      9  C   UNL     1      -0.472  -5.213  -3.276  0.00  0.00    -0.082 C 
ATOM     10  N   UNL     1      -1.247  -6.440  -3.054  0.00  0.00    +0.379 N 
ATOM     11  C   UNL     1      -2.020  -6.326  -1.811  0.00  0.00    -0.082 C 
ATOM     12  C   UNL     1      -3.040  -5.192  -1.945  0.00  0.00    -0.010 C 
ATOM     13  H   UNL     1      -1.877  -6.583  -3.829  0.00  0.00    -0.086 HD
ATOM     14  H   UNL     1      -0.618  -7.226  -2.986  0.00  0.00    -0.086 HD
ENDROOT
BRANCH   5  15
ATOM     15  C   UNL     1      -3.131  -2.102  -3.782  0.00  0.00    +0.219 C 
ATOM     16  O   UNL     1      -3.977  -2.243  -4.639  0.00  0.00    -0.275 OA
ATOM     17  N   UNL     1      -2.026  -1.374  -4.040  0.00  0.00    -0.310 N 
ATOM     18  H   UNL     1      -1.319  -1.316  -3.378  0.00  0.00    +0.149 HD
BRANCH  17  19
ATOM     19  C   UNL     1      -1.893  -0.672  -5.318  0.00  0.00    +0.087 C 
BRANCH  19  20
ATOM     20  C   UNL     1      -0.440  -0.623  -5.716  0.00  0.00    -0.029 A 
ATOM     21  C   UNL     1       0.531  -0.395  -4.759  0.00  0.00    +0.005 A 
ATOM     22  C   UNL     1       1.864  -0.350  -5.124  0.00  0.00    +0.000 A 
ATOM     23  C   UNL     1       2.225  -0.533  -6.445  0.00  0.00    +0.000 A 
ATOM     24  C   UNL     1       1.254  -0.763  -7.402  0.00  0.00    +0.000 A 
ATOM     25  C   UNL     1      -0.078  -0.812  -7.037  0.00  0.00    +0.005 A 
ENDBRANCH  19  20
BRANCH  19  26
ATOM     26  C   UNL     1      -2.431   0.753  -5.175  0.00  0.00    -0.052 C 
BRANCH  26  27
ATOM     27  N   UNL     1      -2.406   1.419  -6.484  0.00  0.00    +0.377 N 
ATOM     28  C   UNL     1      -3.357   0.759  -7.388  0.00  0.00    -0.097 C 
ATOM     29  C   UNL     1      -2.783   2.830  -6.323  0.00  0.00    -0.097 C 
ATOM     30  H   UNL     1      -1.477   1.362  -6.873  0.00  0.00    -0.083 HD
ENDBRANCH  26  27
ENDBRANCH  19  26
ENDBRANCH  17  19
ENDBRANCH   5  15
BRANCH   1  31
ATOM     31  C   UNL     1      -0.922   0.367  -0.655  0.00  0.00    +0.105 C 
BRANCH  31  32
ATOM     32  C   UNL     1       0.319   1.144  -0.297  0.00  0.00    -0.036 A 
ATOM     33  C   UNL     1       0.947   0.923   0.914  0.00  0.00    +0.004 A 
ATOM     34  C   UNL     1       2.085   1.636   1.243  0.00  0.00    +0.000 A 
ATOM     35  C   UNL     1       2.594   2.570   0.361  0.00  0.00    +0.000 A 
ATOM     36  C   UNL     1       1.966   2.791  -0.851  0.00  0.00    +0.000 A 
ATOM     37  C   UNL     1       0.831   2.075  -1.181  0.00  0.00    +0.004 A 
ENDBRANCH  31  32
BRANCH  31  39
ATOM     38  C   UNL     1      -2.424   2.117   0.305  0.00  0.00    +0.005 C 
ATOM     39  C   UNL     1      -2.015   0.645   0.379  0.00  0.00    +0.014 C 
ENDBRANCH  31  39
ENDBRANCH   1  31
TORSDOF 8
