REMARK  Name = ZINC58878431
REMARK  5 active torsions:
REMARK  status: ('A' for Active; 'I' for Inactive)
REMARK    1  A    between atoms: C_1  and  C_2
REMARK    2  A    between atoms: C_8  and  N_10
REMARK    3  A    between atoms: N_13  and  C_14
REMARK    4  A    between atoms: C_19  and  S_20
REMARK    5  A    between atoms: S_20  and  C_21
REMARK                            x       y       z     vdW  Elec       q    Type
REMARK                         _______ _______ _______ _____ _____    ______ ____
ROOT
ATOM      1  N   UNL     1       0.061  -0.022   2.443  0.00  0.00    -0.296 N 
ATOM      2  C   UNL     1       0.740   0.099   3.601  0.00  0.00    +0.304 C 
ATOM      3  O   UNL     1       1.923  -0.177   3.644  0.00  0.00    -0.253 OA
ATOM      4  N   UNL     1       0.107   0.528   4.711  0.00  0.00    -0.268 N 
ATOM      5  H   UNL     1      -0.883   0.198   2.408  0.00  0.00    +0.151 HD
ATOM      6  H   UNL     1      -0.820   0.810   4.662  0.00  0.00    +0.156 HD
ENDROOT
BRANCH   1  13
ATOM      7  C   UNL     1      -0.003   1.559   0.017  0.00  0.00    +0.009 C 
ATOM      8  C   UNL     1       0.014   0.029  -0.002  0.00  0.00    +0.006 C 
ATOM      9  C   UNL     1      -1.423  -0.497   0.001  0.00  0.00    +0.005 C 
ATOM     10  C   UNL     1      -1.406  -2.026  -0.018  0.00  0.00    +0.000 C 
ATOM     11  C   UNL     1      -0.671  -2.544   1.220  0.00  0.00    +0.002 C 
ATOM     12  C   UNL     1       0.766  -2.018   1.217  0.00  0.00    +0.022 C 
ATOM     13  C   UNL     1       0.749  -0.488   1.236  0.00  0.00    +0.077 C 
ENDBRANCH   1  13
BRANCH   4  14
ATOM     14  C   UNL     1       0.788   0.565   5.936  0.00  0.00    +0.048 A 
ATOM     15  C   UNL     1       2.139   0.875   5.971  0.00  0.00    +0.024 A 
ATOM     16  C   UNL     1       2.809   0.911   7.180  0.00  0.00    +0.002 A 
ATOM     17  C   UNL     1       2.136   0.638   8.357  0.00  0.00    +0.001 A 
ATOM     18  C   UNL     1       0.789   0.329   8.332  0.00  0.00    +0.017 A 
ATOM     19  C   UNL     1       0.107   0.296   7.123  0.00  0.00    +0.034 A 
BRANCH  19  20
ATOM     20  S   UNL     1      -1.611  -0.091   7.088  0.00  0.00    -0.054 S 
BRANCH  20  21
ATOM     21  C   UNL     1      -2.037  -0.356   8.832  0.00  0.00    +0.404 C 
ATOM     22  F   UNL     1      -1.270  -1.408   9.345  0.00  0.00    -0.197 F 
ATOM     23  F   UNL     1      -1.774   0.810   9.558  0.00  0.00    -0.197 F 
ENDBRANCH  20  21
ENDBRANCH  19  20
ENDBRANCH   4  14
TORSDOF 4
