REMARK  Name = ZINC50776055
REMARK  7 active torsions:
REMARK  status: ('A' for Active; 'I' for Inactive)
REMARK    1  A    between atoms: C_1  and  C_2
REMARK    2  A    between atoms: C_2  and  C_3
REMARK    3  A    between atoms: C_2  and  C_4
REMARK    4  A    between atoms: C_2  and  C_5
REMARK    5  A    between atoms: C_11  and  C_13
REMARK    6  A    between atoms: C_18  and  N_19
REMARK    7  A    between atoms: N_19  and  C_20
REMARK                            x       y       z     vdW  Elec       q    Type
REMARK                         _______ _______ _______ _____ _____    ______ ____
ROOT
ATOM      1  C   UNL     1       0.697  -0.412  -1.272  0.00  0.00    +0.056 A 
ATOM      2  C   UNL     1       2.048  -0.371  -1.379  0.00  0.00    +0.072 A 
ATOM      3  S   UNL     1       2.276  -1.092  -2.996  0.00  0.00    -0.060 S 
ATOM      4  C   UNL     1       0.655  -1.365  -3.360  0.00  0.00    +0.165 A 
ATOM      5  N   UNL     1       0.030  -0.926  -2.289  0.00  0.00    -0.229 NA
ATOM      6  N   UNL     1       0.111  -1.924  -4.509  0.00  0.00    -0.261 N 
ATOM      7  C   UNL     1       0.918  -2.326  -5.511  0.00  0.00    +0.252 C 
ATOM      8  O   UNL     1       2.123  -2.199  -5.408  0.00  0.00    -0.270 OA
ATOM      9  H   UNL     1      -0.851  -2.025  -4.590  0.00  0.00    +0.157 HD
ENDROOT
BRANCH   7  10
ATOM     10  C   UNL     1       0.340  -2.919  -6.730  0.00  0.00    +0.059 A 
ATOM     11  C   UNL     1      -1.031  -3.180  -6.803  0.00  0.00    +0.035 A 
ATOM     12  C   UNL     1      -1.565  -3.734  -7.947  0.00  0.00    +0.042 A 
ATOM     13  C   UNL     1      -0.748  -4.035  -9.027  0.00  0.00    +0.022 A 
ATOM     14  C   UNL     1       0.607  -3.784  -8.969  0.00  0.00    +0.025 A 
ATOM     15  C   UNL     1       1.162  -3.220  -7.827  0.00  0.00    +0.039 A 
ATOM     16 CL   UNL     1      -3.269  -4.057  -8.036  0.00  0.00    -0.084 Cl
BRANCH  15  17
ATOM     17  N   UNL     1       2.526  -2.961  -7.768  0.00  0.00    -0.346 N 
ATOM     18  C   UNL     1       3.362  -3.165  -8.954  0.00  0.00    +0.125 C 
ATOM     19  H   UNL     1       2.925  -2.646  -6.942  0.00  0.00    +0.146 HD
ENDBRANCH  15  17
ENDBRANCH   7  10
BRANCH   1  21
ATOM     20  C   UNL     1      -0.012   1.629  -0.056  0.00  0.00    +0.017 C 
ATOM     21  C   UNL     1      -0.011   0.100  -0.044  0.00  0.00    +0.005 C 
ATOM     22  C   UNL     1       0.713  -0.400   1.208  0.00  0.00    +0.017 C 
ATOM     23  C   UNL     1      -1.454  -0.411  -0.037  0.00  0.00    +0.017 C 
ENDBRANCH   1  21
TORSDOF 3
