REMARK  Name = ZINC59284269
REMARK  5 active torsions:
REMARK  status: ('A' for Active; 'I' for Inactive)
REMARK    1  A    between atoms: C_1  and  C_2
REMARK    2  A    between atoms: C_5  and  N_25
REMARK    3  A    between atoms: C_7  and  N_8
REMARK    4  A    between atoms: C_9  and  C_11
REMARK    5  A    between atoms: C_11  and  C_12
REMARK                            x       y       z     vdW  Elec       q    Type
REMARK                         _______ _______ _______ _____ _____    ______ ____
ROOT
ATOM      1  N   UNL     1       0.025  -0.011   2.417  0.00  0.00    -0.285 N 
ATOM      2  C   UNL     1      -0.057  -0.689   3.579  0.00  0.00    +0.218 C 
ATOM      3  O   UNL     1      -0.040  -1.902   3.576  0.00  0.00    -0.275 OA
ATOM      4  H   UNL     1       0.077   0.957   2.423  0.00  0.00    +0.155 HD
ENDROOT
BRANCH   1  11
ATOM      5  C   UNL     1      -1.265   1.183   0.182  0.00  0.00    +0.045 C 
ATOM      6  C   UNL     1      -0.585  -0.158   0.085  0.00  0.00    -0.029 A 
ATOM      7  C   UNL     1      -0.572  -0.840  -1.117  0.00  0.00    +0.007 A 
ATOM      8  C   UNL     1       0.051  -2.070  -1.210  0.00  0.00    +0.028 A 
ATOM      9  C   UNL     1       0.667  -2.624  -0.095  0.00  0.00    +0.071 A 
ATOM     10  C   UNL     1       0.655  -1.942   1.113  0.00  0.00    +0.051 A 
ATOM     11  C   UNL     1       0.034  -0.705   1.202  0.00  0.00    +0.038 A 
BRANCH   9  12
ATOM     12  N   UNL     1       1.298  -3.873  -0.190  0.00  0.00    -0.200 N 
ATOM     13  C   UNL     1       1.484  -4.615  -1.303  0.00  0.00    +0.250 A 
ATOM     14  N   UNL     1       2.115  -5.703  -0.944  0.00  0.00    -0.116 NA
ATOM     15  N   UNL     1       2.341  -5.698   0.320  0.00  0.00    -0.023 NA
ATOM     16  N   UNL     1       1.880  -4.617   0.851  0.00  0.00    -0.039 NA
ENDBRANCH   9  12
ENDBRANCH   1  11
BRANCH   2  17
ATOM     17  C   UNL     1      -0.169   0.060   4.882  0.00  0.00    +0.103 C 
BRANCH  17  18
ATOM     18  C   UNL     1      -0.246  -0.939   6.039  0.00  0.00    -0.019 C 
ATOM     19  C   UNL     1       1.018  -1.801   6.053  0.00  0.00    +0.011 C 
ATOM     20  C   UNL     1       0.941  -2.799   7.210  0.00  0.00    -0.009 C 
ATOM     21  C   UNL     1       0.828  -2.038   8.533  0.00  0.00    +0.007 C 
ATOM     22  C   UNL     1      -0.436  -1.176   8.519  0.00  0.00    -0.009 C 
ATOM     23  C   UNL     1      -0.359  -0.178   7.362  0.00  0.00    +0.011 C 
ATOM     24  C   UNL     1      -1.663  -2.072   8.339  0.00  0.00    +0.021 C 
ATOM     25  C   UNL     1      -1.549  -2.833   7.016  0.00  0.00    +0.027 C 
ATOM     26  C   UNL     1      -0.285  -3.695   7.030  0.00  0.00    +0.021 C 
ATOM     27  C   UNL     1      -1.472  -1.835   5.859  0.00  0.00    +0.025 C 
ATOM     28 BR   UNL     1      -3.126  -3.985   6.785  0.00  0.00    -0.084 Br
ENDBRANCH  17  18
ENDBRANCH   2  17
TORSDOF 4
