REMARK  Name = ZINC06923411
REMARK  5 active torsions:
REMARK  status: ('A' for Active; 'I' for Inactive)
REMARK    1  A    between atoms: C_4  and  N_7
REMARK    2  A    between atoms: C_11  and  S_12
REMARK    3  A    between atoms: S_12  and  C_13
REMARK    4  A    between atoms: C_13  and  C_14
REMARK    5  A    between atoms: N_19  and  C_20
REMARK                            x       y       z     vdW  Elec       q    Type
REMARK                         _______ _______ _______ _____ _____    ______ ____
ROOT
ATOM      1  C   UNL     1       5.505  -1.615  -0.057  0.00  0.00    +0.231 C 
ATOM      2  O   UNL     1       6.321  -0.718  -0.060  0.00  0.00    -0.274 OA
ATOM      3  N   UNL     1       5.916  -2.899  -0.067  0.00  0.00    -0.239 N 
ATOM      4  C   UNL     1       7.233  -3.185  -0.080  0.00  0.00    +0.306 C 
ATOM      5  O   UNL     1       8.050  -2.286  -0.084  0.00  0.00    -0.252 OA
ATOM      6  N   UNL     1       7.644  -4.469  -0.090  0.00  0.00    -0.294 N 
ATOM      7  H   UNL     1       5.264  -3.617  -0.064  0.00  0.00    +0.159 HD
ATOM      8  H   UNL     1       6.991  -5.187  -0.087  0.00  0.00    +0.151 HD
ENDROOT
BRANCH   6   9
ATOM      9  C   UNL     1       9.075  -4.780  -0.105  0.00  0.00    +0.037 C 
ATOM     10  C   UNL     1       9.715  -4.177  -1.357  0.00  0.00    +0.029 C 
ATOM     11  C   UNL     1      11.210  -4.502  -1.373  0.00  0.00    -0.008 C 
ATOM     12  C   UNL     1      11.402  -6.020  -1.382  0.00  0.00    +0.007 C 
ATOM     13  C   UNL     1      10.762  -6.622  -0.129  0.00  0.00    -0.008 C 
ATOM     14  C   UNL     1       9.267  -6.298  -0.114  0.00  0.00    +0.029 C 
ATOM     15  C   UNL     1      11.425  -6.032   1.117  0.00  0.00    +0.007 C 
ATOM     16  C   UNL     1      11.233  -4.514   1.126  0.00  0.00    -0.008 C 
ATOM     17  C   UNL     1      11.873  -3.912  -0.127  0.00  0.00    +0.007 C 
ATOM     18  C   UNL     1       9.738  -4.189   1.141  0.00  0.00    +0.029 C 
ENDBRANCH   6   9
BRANCH   1  19
ATOM     19  C   UNL     1       4.033  -1.295  -0.042  0.00  0.00    +0.173 C 
BRANCH  19  20
ATOM     20  S   UNL     1       3.806   0.500  -0.031  0.00  0.00    -0.076 S 
BRANCH  20  25
ATOM     21  N   UNL     1       1.286   1.724  -0.001  0.00  0.00    -0.277 N 
ATOM     22  C   UNL     1      -0.016   1.299   0.009  0.00  0.00    +0.230 A 
ATOM     23  N   UNL     1       0.002  -0.004   0.002  0.00  0.00    -0.137 NA
ATOM     24  N   UNL     1       1.214  -0.430  -0.012  0.00  0.00    -0.122 NA
ATOM     25  C   UNL     1       2.046   0.586  -0.014  0.00  0.00    +0.196 A 
BRANCH  21  29
ATOM     26  C   UNL     1       2.652   5.663   0.006  0.00  0.00    +0.000 A 
ATOM     27  C   UNL     1       1.689   5.268  -0.905  0.00  0.00    +0.002 A 
ATOM     28  C   UNL     1       1.235   3.964  -0.909  0.00  0.00    +0.026 A 
ATOM     29  C   UNL     1       1.746   3.049   0.001  0.00  0.00    +0.050 A 
ATOM     30  C   UNL     1       2.708   3.450   0.918  0.00  0.00    +0.026 A 
ATOM     31  C   UNL     1       3.163   4.754   0.914  0.00  0.00    +0.002 A 
ENDBRANCH  21  29
ENDBRANCH  20  25
ENDBRANCH  19  20
ENDBRANCH   1  19
TORSDOF 5
