REMARK  Name = ZINC51186648
REMARK  7 active torsions:
REMARK  status: ('A' for Active; 'I' for Inactive)
REMARK    1  A    between atoms: C_1  and  C_2
REMARK    2  A    between atoms: C_4  and  N_24
REMARK    3  A    between atoms: C_7  and  N_8
REMARK    4  A    between atoms: N_8  and  C_9
REMARK    5  A    between atoms: C_9  and  C_11
REMARK    6  A    between atoms: C_9  and  C_12
REMARK    7  A    between atoms: N_17  and  C_18
REMARK                            x       y       z     vdW  Elec       q    Type
REMARK                         _______ _______ _______ _____ _____    ______ ____
ROOT
ATOM      1  C   UNL     1       0.036  -0.393   3.362  0.00  0.00    +0.154 C 
ATOM      2  C   UNL     1      -1.398  -0.804   3.702  0.00  0.00    +0.038 C 
ENDROOT
BRANCH   1   3
ATOM      3  C   UNL     1       0.639   0.341   4.532  0.00  0.00    +0.240 C 
ATOM      4  O   UNL     1       1.024   1.483   4.398  0.00  0.00    -0.273 OA
ATOM      5  N   UNL     1       0.751  -0.272   5.727  0.00  0.00    -0.238 N 
ATOM      6  C   UNL     1       1.290   0.384   6.773  0.00  0.00    +0.310 C 
ATOM      7  O   UNL     1       1.675   1.529   6.639  0.00  0.00    -0.252 OA
ATOM      8  N   UNL     1       1.401  -0.229   7.968  0.00  0.00    -0.269 N 
ATOM      9  H   UNL     1       0.443  -1.186   5.834  0.00  0.00    +0.159 HD
ATOM     10  H   UNL     1       1.169  -1.166   8.056  0.00  0.00    +0.156 HD
BRANCH   8  11
ATOM     11  C   UNL     1       1.853   0.487   9.082  0.00  0.00    +0.035 A 
ATOM     12  C   UNL     1       2.637  -0.140  10.042  0.00  0.00    +0.023 A 
ATOM     13  C   UNL     1       3.081   0.570  11.140  0.00  0.00    +0.002 A 
ATOM     14  C   UNL     1       2.746   1.903  11.285  0.00  0.00    +0.000 A 
ATOM     15  C   UNL     1       1.966   2.531  10.332  0.00  0.00    +0.002 A 
ATOM     16  C   UNL     1       1.524   1.829   9.228  0.00  0.00    +0.023 A 
ENDBRANCH   8  11
ENDBRANCH   1   3
BRANCH   1  17
ATOM     17  N   UNL     1       0.027   0.483   2.188  0.00  0.00    -0.333 N 
ATOM     18  H   UNL     1       0.024   1.446   2.301  0.00  0.00    +0.147 HD
BRANCH  17  25
ATOM     19  C   UNL     1       0.011   2.257  -0.035  0.00  0.00    +0.046 C 
ATOM     20  C   UNL     1       0.016   0.760  -0.211  0.00  0.00    -0.028 A 
ATOM     21  C   UNL     1       0.018   0.214  -1.480  0.00  0.00    +0.028 A 
ATOM     22  C   UNL     1       0.022  -1.165  -1.643  0.00  0.00    +0.030 A 
ATOM     23  C   UNL     1       0.025  -1.995  -0.529  0.00  0.00    +0.025 A 
ATOM     24  C   UNL     1       0.023  -1.449   0.739  0.00  0.00    +0.025 A 
ATOM     25  C   UNL     1       0.024  -0.070   0.901  0.00  0.00    +0.031 A 
BRANCH  22  26
ATOM     26  N   UNL     1       0.024  -1.718  -2.929  0.00  0.00    -0.328 N 
ATOM     27  C   UNL     1       0.151  -3.167  -3.092  0.00  0.00    +0.116 C 
ATOM     28  C   UNL     1      -1.145  -3.729  -3.687  0.00  0.00    +0.088 C 
ATOM     29  S   UNL     1      -1.476  -2.885  -5.262  0.00  0.00    -0.158 S 
ATOM     30  C   UNL     1      -1.428  -1.126  -4.807  0.00  0.00    +0.088 C 
ATOM     31  C   UNL     1      -0.107  -0.841  -4.093  0.00  0.00    +0.116 C 
ENDBRANCH  22  26
ENDBRANCH  17  25
ENDBRANCH   1  17
TORSDOF 5
