REMARK  Name = ZINC14199103
REMARK  2 active torsions:
REMARK  status: ('A' for Active; 'I' for Inactive)
REMARK    1  A    between atoms: C_9  and  C_11
REMARK    2  A    between atoms: C_12  and  C_13
REMARK                            x       y       z     vdW  Elec       q    Type
REMARK                         _______ _______ _______ _____ _____    ______ ____
ROOT
ATOM      1  C   UNL     1       4.734  -3.365   3.031  0.00  0.00    +0.135 A 
ATOM      2  N   UNL     1       3.406  -3.393   3.377  0.00  0.00    -0.307 N 
ATOM      3  H   UNL     1       3.104  -4.014   4.058  0.00  0.00    +0.170 HD
ATOM      4  C   UNL     1       2.516  -2.575   2.786  0.00  0.00    +0.260 A 
ATOM      5  O   UNL     1       1.339  -2.610   3.102  0.00  0.00    -0.267 OA
ATOM      6  C   UNL     1       2.971  -1.661   1.780  0.00  0.00    +0.075 A 
ATOM      7  C   UNL     1       2.180  -0.690   1.020  0.00  0.00    -0.023 A 
ATOM      8  C   UNL     1       2.844   0.056   0.110  0.00  0.00    -0.004 A 
ATOM      9  S   UNL     1       4.535  -0.470   0.226  0.00  0.00    -0.073 S 
ATOM     10  C   UNL     1       4.345  -1.703   1.488  0.00  0.00    +0.116 A 
ATOM     11  N   UNL     1       5.174  -2.532   2.105  0.00  0.00    -0.222 NA
ATOM     12  C   UNL     1       2.284   1.098  -0.807  0.00  0.00    +0.043 C 
ATOM     13  C   UNL     1       1.407   2.065  -0.000  0.00  0.00    +0.005 C 
ATOM     14  C   UNL     1      -0.019   1.523   0.010  0.00  0.00    +0.001 C 
ATOM     15  C   UNL     1       0.002  -0.004   0.002  0.00  0.00    +0.005 C 
ATOM     16  C   UNL     1       0.681  -0.535   1.259  0.00  0.00    +0.037 C 
ENDROOT
BRANCH   1  18
ATOM     17  C   UNL     1       6.981  -4.248   3.360  0.00  0.00    +0.013 C 
ATOM     18  C   UNL     1       5.672  -4.269   3.695  0.00  0.00    +0.047 C 
BRANCH  17  27
ATOM     19  C   UNL     1       8.374  -6.898   5.635  0.00  0.00    +0.001 A 
ATOM     20  C   UNL     1       9.700  -6.907   5.325  0.00  0.00    +0.010 A 
ATOM     21  C   UNL     1      10.213  -6.039   4.347  0.00  0.00    +0.001 A 
ATOM     22  C   UNL     1      11.581  -6.035   4.014  0.00  0.00    +0.011 A 
ATOM     23  C   UNL     1      12.007  -5.162   3.053  0.00  0.00    +0.020 A 
ATOM     24  C   UNL     1      11.096  -4.310   2.434  0.00  0.00    +0.111 A 
ATOM     25  N   UNL     1       9.822  -4.319   2.748  0.00  0.00    -0.254 NA
ATOM     26  C   UNL     1       9.344  -5.146   3.676  0.00  0.00    +0.078 A 
ATOM     27  C   UNL     1       7.923  -5.155   4.027  0.00  0.00    +0.001 A 
ATOM     28  C   UNL     1       7.484  -6.038   5.009  0.00  0.00    +0.010 A 
ENDBRANCH  17  27
ENDBRANCH   1  18
TORSDOF 2
