REMARK  Name = ZINC63151116
REMARK  15 active torsions:
REMARK  status: ('A' for Active; 'I' for Inactive)
REMARK    1  A    between atoms: C_1  and  C_2
REMARK    2  A    between atoms: C_2  and  O_3
REMARK    3  A    between atoms: O_3  and  C_4
REMARK    4  A    between atoms: C_4  and  C_6
REMARK    5  A    between atoms: C_8  and  N_17
REMARK    6  A    between atoms: C_18  and  C_20
REMARK    7  A    between atoms: C_20  and  C_22
REMARK    8  A    between atoms: C_20  and  O_23
REMARK    9  A    between atoms: O_23  and  C_24
REMARK   10  A    between atoms: C_24  and  C_26
REMARK   11  A    between atoms: C_27  and  C_37
REMARK   12  A    between atoms: C_29  and  C_33
REMARK   13  A    between atoms: C_33  and  C_34
REMARK   14  A    between atoms: C_33  and  C_35
REMARK   15  A    between atoms: C_33  and  C_36
REMARK                            x       y       z     vdW  Elec       q    Type
REMARK                         _______ _______ _______ _____ _____    ______ ____
ROOT
ATOM      1  N   UNL     1      -0.996  -1.521  -2.742  0.00  0.00    -0.299 N 
ATOM      2  C   UNL     1      -1.612  -0.533  -3.420  0.00  0.00    +0.254 C 
ATOM      3  O   UNL     1      -1.002   0.104  -4.252  0.00  0.00    -0.272 OA
ATOM      4  H   UNL     1      -1.484  -2.031  -2.076  0.00  0.00    +0.150 HD
ENDROOT
BRANCH   1   6
ATOM      5  C   UNL     1       1.212  -2.018  -1.699  0.00  0.00    +0.155 C 
ATOM      6  C   UNL     1       0.412  -1.826  -3.010  0.00  0.00    +0.153 C 
ATOM      7  S   UNL     1       0.617  -3.517  -3.712  0.00  0.00    -0.106 S 
ATOM      8  C   UNL     1       0.982  -4.381  -2.202  0.00  0.00    -0.013 C 
ATOM      9  C   UNL     1       1.252  -3.466  -1.281  0.00  0.00    -0.044 C 
ATOM     10  C   UNL     1       1.596  -3.871   0.151  0.00  0.00    +0.032 C 
ATOM     11  C   UNL     1       1.128  -5.306   0.392  0.00  0.00    +0.005 C 
ATOM     12  C   UNL     1       1.682  -6.215  -0.710  0.00  0.00    +0.005 C 
ATOM     13  C   UNL     1       0.977  -5.873  -2.021  0.00  0.00    +0.042 C 
BRANCH   5  14
ATOM     14  C   UNL     1       0.565  -1.208  -0.605  0.00  0.00    +0.317 C 
ATOM     15  O   UNL     1      -0.365  -1.666   0.016  0.00  0.00    -0.250 OA
BRANCH  14  16
ATOM     16  O   UNL     1       1.021   0.022  -0.321  0.00  0.00    -0.464 OA
BRANCH  16  18
ATOM     17  C   UNL     1       1.016   2.104   0.906  0.00  0.00    +0.048 C 
ATOM     18  C   UNL     1       0.361   0.733   0.728  0.00  0.00    +0.229 C 
ENDBRANCH  16  18
ENDBRANCH  14  16
ENDBRANCH   5  14
ENDBRANCH   1   6
BRANCH   2  19
ATOM     19  C   UNL     1      -3.060  -0.219  -3.143  0.00  0.00    +0.259 C 
ATOM     20  C   UNL     1      -3.205   0.300  -1.712  0.00  0.00    +0.062 C 
BRANCH  19  21
ATOM     21  O   UNL     1      -3.515   0.778  -4.060  0.00  0.00    -0.449 OA
BRANCH  21  22
ATOM     22  C   UNL     1      -4.819   0.748  -4.400  0.00  0.00    +0.347 C 
ATOM     23  O   UNL     1      -5.550  -0.102  -3.930  0.00  0.00    -0.245 OA
BRANCH  22  24
ATOM     24  C   UNL     1      -5.357   1.743  -5.338  0.00  0.00    +0.144 A 
ATOM     25  C   UNL     1      -6.668   1.662  -5.803  0.00  0.00    +0.059 A 
ATOM     26  N   UNL     1      -7.117   2.582  -6.651  0.00  0.00    -0.238 NA
ATOM     27  C   UNL     1      -6.372   3.570  -7.070  0.00  0.00    +0.115 A 
ATOM     28  N   UNL     1      -5.097   3.735  -6.680  0.00  0.00    -0.310 N 
ATOM     29  C   UNL     1      -4.534   2.863  -5.814  0.00  0.00    +0.266 A 
ATOM     30  O   UNL     1      -3.381   2.998  -5.444  0.00  0.00    -0.267 OA
ATOM     31  C   UNL     1      -7.567   0.541  -5.350  0.00  0.00    +0.067 C 
ATOM     32  H   UNL     1      -4.580   4.483  -7.017  0.00  0.00    +0.170 HD
BRANCH  27  33
ATOM     33  C   UNL     1      -6.968   4.566  -8.031  0.00  0.00    +0.020 C 
ATOM     34  C   UNL     1      -8.418   4.181  -8.332  0.00  0.00    +0.018 C 
ATOM     35  C   UNL     1      -6.930   5.963  -7.407  0.00  0.00    +0.018 C 
ATOM     36  C   UNL     1      -6.160   4.566  -9.331  0.00  0.00    +0.018 C 
ENDBRANCH  27  33
ENDBRANCH  22  24
ENDBRANCH  21  22
ENDBRANCH  19  21
ENDBRANCH   2  19
TORSDOF 9
