REMARK  Name = ZINC11548394
REMARK  8 active torsions:
REMARK  status: ('A' for Active; 'I' for Inactive)
REMARK    1  A    between atoms: C_1  and  C_2
REMARK    2  A    between atoms: C_5  and  N_9
REMARK    3  A    between atoms: C_6  and  C_8
REMARK    4  A    between atoms: C_13  and  C_15
REMARK    5  A    between atoms: C_15  and  O_16
REMARK    6  A    between atoms: O_16  and  C_17
REMARK    7  A    between atoms: C_17  and  C_19
REMARK    8  A    between atoms: N_22  and  C_24
REMARK                            x       y       z     vdW  Elec       q    Type
REMARK                         _______ _______ _______ _____ _____    ______ ____
ROOT
ATOM      1  O   UNL     1       4.730   1.087  -0.073  0.00  0.00    -0.451 OA
ENDROOT
BRANCH   1   2
ATOM      2  C   UNL     1       5.968   1.619  -0.094  0.00  0.00    +0.360 C 
ATOM      3  O   UNL     1       6.111   2.826  -0.098  0.00  0.00    -0.243 OA
BRANCH   2   4
ATOM      4  C   UNL     1       7.150   0.737  -0.113  0.00  0.00    +0.173 A 
ATOM      5  C   UNL     1       8.504   1.145  -0.141  0.00  0.00    +0.008 A 
ATOM      6  C   UNL     1       9.232   0.007  -0.146  0.00  0.00    +0.049 A 
ATOM      7  N   UNL     1       8.349  -1.029  -0.131  0.00  0.00    -0.236 N 
ATOM      8  N   UNL     1       7.145  -0.583  -0.111  0.00  0.00    -0.159 NA
ATOM      9  C   UNL     1      10.708   0.332  -0.170  0.00  0.00    +0.056 C 
ATOM     10  C   UNL     1      10.784   1.811  -0.621  0.00  0.00    +0.011 C 
ATOM     11  C   UNL     1       9.411   2.352  -0.166  0.00  0.00    +0.040 C 
BRANCH   7  12
ATOM     12  C   UNL     1       8.703  -2.385  -0.136  0.00  0.00    +0.066 A 
ATOM     13  C   UNL     1       9.817  -2.810  -0.847  0.00  0.00    +0.030 A 
ATOM     14  C   UNL     1      10.167  -4.146  -0.847  0.00  0.00    +0.040 A 
ATOM     15  C   UNL     1       9.402  -5.063  -0.146  0.00  0.00    +0.124 A 
ATOM     16  C   UNL     1       8.287  -4.641   0.561  0.00  0.00    +0.040 A 
ATOM     17  C   UNL     1       7.937  -3.306   0.567  0.00  0.00    +0.030 A 
ATOM     18  F   UNL     1       9.743  -6.370  -0.150  0.00  0.00    -0.205 F 
ENDBRANCH   7  12
ENDBRANCH   2   4
ENDBRANCH   1   2
BRANCH   1  19
ATOM     19  C   UNL     1       3.614   2.015  -0.056  0.00  0.00    +0.328 C 
BRANCH  19  24
ATOM     20  N   UNL     1      -1.191   1.869   0.018  0.00  0.00    -0.269 N 
ATOM     21  C   UNL     1      -0.014   1.212   0.005  0.00  0.00    +0.310 C 
ATOM     22  O   UNL     1       0.003  -0.004   0.006  0.00  0.00    -0.252 OA
ATOM     23  N   UNL     1       1.143   1.901  -0.015  0.00  0.00    -0.237 N 
ATOM     24  C   UNL     1       2.320   1.244  -0.034  0.00  0.00    +0.258 C 
ATOM     25  O   UNL     1       2.336   0.032  -0.032  0.00  0.00    -0.272 OA
ATOM     26  H   UNL     1      -1.205   2.836   0.099  0.00  0.00    +0.156 HD
ATOM     27  H   UNL     1       1.130   2.871  -0.016  0.00  0.00    +0.159 HD
BRANCH  20  32
ATOM     28  C   UNL     1      -6.057  -1.016  -0.401  0.00  0.00    +0.044 C 
ATOM     29  C   UNL     1      -4.765  -0.250  -0.290  0.00  0.00    -0.050 A 
ATOM     30  C   UNL     1      -3.597  -0.788  -0.799  0.00  0.00    +0.005 A 
ATOM     31  C   UNL     1      -2.411  -0.089  -0.699  0.00  0.00    +0.024 A 
ATOM     32  C   UNL     1      -2.391   1.158  -0.086  0.00  0.00    +0.038 A 
ATOM     33  C   UNL     1      -3.564   1.694   0.428  0.00  0.00    -0.029 A 
ATOM     34  C   UNL     1      -4.748   0.991   0.321  0.00  0.00    +0.008 A 
ATOM     35  C   UNL     1      -3.546   3.043   1.099  0.00  0.00    +0.045 C 
ENDBRANCH  20  32
ENDBRANCH  19  24
ENDBRANCH   1  19
TORSDOF 6
