REMARK  Name = ZINC20505826
REMARK  7 active torsions:
REMARK  status: ('A' for Active; 'I' for Inactive)
REMARK    1  A    between atoms: C_1  and  C_2
REMARK    2  A    between atoms: C_2  and  C_4
REMARK    3  A    between atoms: C_2  and  N_10
REMARK    4  A    between atoms: N_6  and  C_7
REMARK    5  A    between atoms: C_7  and  C_8
REMARK    6  A    between atoms: C_7  and  C_9
REMARK    7  A    between atoms: N_10  and  C_11
REMARK                            x       y       z     vdW  Elec       q    Type
REMARK                         _______ _______ _______ _____ _____    ______ ____
ROOT
ATOM      1  N   UNL     1      -1.366  -0.512   0.133  0.00  0.00    -0.331 N 
ATOM      2  H   UNL     1      -1.695   0.084   0.824  0.00  0.00    +0.147 HD
ENDROOT
BRANCH   1   3
ATOM      3  C   UNL     1      -2.136  -0.749  -1.010  0.00  0.00    +0.065 A 
ATOM      4  C   UNL     1      -1.688  -0.319  -2.253  0.00  0.00    +0.064 A 
ATOM      5  C   UNL     1      -2.452  -0.554  -3.381  0.00  0.00    +0.037 A 
ATOM      6  C   UNL     1      -3.661  -1.219  -3.274  0.00  0.00    +0.021 A 
ATOM      7  C   UNL     1      -4.109  -1.648  -2.037  0.00  0.00    +0.037 A 
ATOM      8  C   UNL     1      -3.348  -1.421  -0.907  0.00  0.00    +0.064 A 
ATOM      9 CL   UNL     1      -3.908  -1.968   0.643  0.00  0.00    -0.082 Cl
ATOM     10 BR   UNL     1      -4.702  -1.539  -4.819  0.00  0.00    -0.050 Br
ATOM     11 CL   UNL     1      -0.172   0.516  -2.389  0.00  0.00    -0.082 Cl
ENDBRANCH   1   3
BRANCH   1  13
ATOM     12  C   UNL     1       0.846  -0.289   1.153  0.00  0.00    +0.038 C 
ATOM     13  C   UNL     1      -0.063  -1.163   0.286  0.00  0.00    +0.154 C 
BRANCH  13  14
ATOM     14  C   UNL     1      -0.246  -2.505   0.946  0.00  0.00    +0.233 C 
ATOM     15  O   UNL     1      -1.357  -2.881   1.257  0.00  0.00    -0.274 OA
ATOM     16  N   UNL     1       0.823  -3.288   1.190  0.00  0.00    -0.311 N 
ATOM     17  H   UNL     1       1.711  -2.988   0.941  0.00  0.00    +0.149 HD
BRANCH  16  18
ATOM     18  C   UNL     1       0.645  -4.593   1.831  0.00  0.00    +0.067 C 
ATOM     19  C   UNL     1       1.807  -5.512   1.450  0.00  0.00    +0.027 C 
ATOM     20  C   UNL     1       0.613  -4.415   3.350  0.00  0.00    +0.027 C 
ENDBRANCH  16  18
ENDBRANCH  13  14
ENDBRANCH   1  13
TORSDOF 4
