REMARK  Name = ZINC27669222
REMARK  10 active torsions:
REMARK  status: ('A' for Active; 'I' for Inactive)
REMARK    1  A    between atoms: C_1  and  C_2
REMARK    2  A    between atoms: C_3  and  C_16
REMARK    3  A    between atoms: N_5  and  C_7
REMARK    4  A    between atoms: C_7  and  C_8
REMARK    5  A    between atoms: N_18  and  C_19
REMARK    6  A    between atoms: C_19  and  C_20
REMARK    7  A    between atoms: C_20  and  C_22
REMARK    8  A    between atoms: C_20  and  N_30
REMARK    9  A    between atoms: C_25  and  O_28
REMARK   10  A    between atoms: O_28  and  C_29
REMARK                            x       y       z     vdW  Elec       q    Type
REMARK                         _______ _______ _______ _____ _____    ______ ____
ROOT
ATOM      1  C   UNL     1      -3.145   2.647   3.755  0.00  0.00    +0.249 C 
ATOM      2  O   UNL     1      -2.721   3.569   4.424  0.00  0.00    -0.270 OA
ATOM      3  N   UNL     1      -2.286   1.825   3.119  0.00  0.00    -0.312 N 
ATOM      4  H   UNL     1      -2.670   0.990   2.514  0.00  0.00    +0.149 HD
ENDROOT
BRANCH   1   7
ATOM      5  C   UNL     1      -5.040   3.901   1.540  0.00  0.00    +0.068 C 
ATOM      6  C   UNL     1      -5.453   2.979   2.658  0.00  0.00    +0.074 A 
ATOM      7  C   UNL     1      -4.597   2.428   3.638  0.00  0.00    +0.096 A 
ATOM      8  C   UNL     1      -5.377   1.639   4.463  0.00  0.00    +0.140 A 
ATOM      9  N   UNL     1      -6.641   1.716   4.013  0.00  0.00    -0.248 N 
ATOM     10  N   UNL     1      -6.662   2.550   2.890  0.00  0.00    -0.174 NA
ATOM     11 CL   UNL     1      -4.827   0.723   5.831  0.00  0.00    -0.062 Cl
BRANCH   9  12
ATOM     12  C   UNL     1      -7.800   1.036   4.597  0.00  0.00    +0.180 C 
BRANCH  12  13
ATOM     13  C   UNL     1      -7.961  -0.319   3.958  0.00  0.00    -0.026 A 
ATOM     14  C   UNL     1      -8.744  -0.462   2.828  0.00  0.00    +0.008 A 
ATOM     15  C   UNL     1      -8.889  -1.703   2.239  0.00  0.00    +0.038 A 
ATOM     16  C   UNL     1      -8.258  -2.807   2.787  0.00  0.00    +0.123 A 
ATOM     17  C   UNL     1      -7.478  -2.664   3.922  0.00  0.00    +0.038 A 
ATOM     18  C   UNL     1      -7.330  -1.420   4.507  0.00  0.00    +0.008 A 
ATOM     19  F   UNL     1      -8.402  -4.022   2.215  0.00  0.00    -0.205 F 
ENDBRANCH  12  13
ENDBRANCH   9  12
ENDBRANCH   1   7
BRANCH   3  20
ATOM     20  C   UNL     1      -0.842   2.042   3.235  0.00  0.00    +0.094 C 
BRANCH  20  21
ATOM     21  C   UNL     1      -0.099   0.979   2.425  0.00  0.00    -0.020 C 
BRANCH  21  22
ATOM     22  N   UNL     1      -0.584   0.992   1.038  0.00  0.00    +0.385 N 
ATOM     23  C   UNL     1       0.033  -0.085   0.254  0.00  0.00    -0.078 C 
ATOM     24  C   UNL     1      -0.600  -0.132  -1.138  0.00  0.00    -0.019 C 
ATOM     25  C   UNL     1      -0.391   1.215  -1.834  0.00  0.00    -0.004 C 
ATOM     26  C   UNL     1      -1.000   2.326  -0.974  0.00  0.00    -0.019 C 
ATOM     27  C   UNL     1      -0.355   2.301   0.414  0.00  0.00    -0.078 C 
ATOM     28  H   UNL     1      -1.669   0.814   1.056  0.00  0.00    -0.081 HD
ENDBRANCH  21  22
BRANCH  21  29
ATOM     29  C   UNL     1       1.379   1.274   2.443  0.00  0.00    -0.059 A 
ATOM     30  C   UNL     1       1.833   2.542   2.131  0.00  0.00    +0.005 A 
ATOM     31  C   UNL     1       3.186   2.817   2.153  0.00  0.00    +0.046 A 
ATOM     32  C   UNL     1       4.091   1.817   2.477  0.00  0.00    +0.120 A 
ATOM     33  C   UNL     1       3.633   0.544   2.784  0.00  0.00    +0.046 A 
ATOM     34  C   UNL     1       2.278   0.275   2.767  0.00  0.00    +0.005 A 
BRANCH  32  35
ATOM     35  O   UNL     1       5.424   2.083   2.492  0.00  0.00    -0.495 OA
ATOM     36  C   UNL     1       5.823   3.416   2.165  0.00  0.00    +0.277 C 
ENDBRANCH  32  35
ENDBRANCH  21  29
ENDBRANCH  20  21
ENDBRANCH   3  20
TORSDOF 8
