REMARK  Name = ZINC09287118
REMARK  7 active torsions:
REMARK  status: ('A' for Active; 'I' for Inactive)
REMARK    1  A    between atoms: C_10  and  C_11
REMARK    2  A    between atoms: C_10  and  N_54
REMARK    3  A    between atoms: C_15  and  O_18
REMARK    4  A    between atoms: O_18  and  C_19
REMARK    5  A    between atoms: C_19  and  C_20
REMARK    6  A    between atoms: N_22  and  C_23
REMARK    7  A    between atoms: C_25  and  C_30
REMARK                            x       y       z     vdW  Elec       q    Type
REMARK                         _______ _______ _______ _____ _____    ______ ____
ROOT
ATOM      1  C   UNL     1      -2.255   1.633  -1.008  0.00  0.00    +0.092 A 
ATOM      2  C   UNL     1      -3.086   2.460  -0.341  0.00  0.00    +0.094 A 
ATOM      3  C   UNL     1      -4.445   2.088  -0.185  0.00  0.00    +0.226 A 
ATOM      4  O   UNL     1      -5.229   2.810   0.412  0.00  0.00    -0.284 OA
ATOM      5  C   UNL     1      -4.870   0.851  -0.742  0.00  0.00    +0.202 A 
ATOM      6  C   UNL     1      -3.969   0.084  -1.395  0.00  0.00    +0.244 A 
ATOM      7  O   UNL     1      -2.695   0.480  -1.522  0.00  0.00    -0.466 OA
ENDROOT
BRANCH   1   8
ATOM      8  C   UNL     1      -0.808   2.019  -1.181  0.00  0.00    -0.003 C 
BRANCH   8  18
ATOM      9  C   UNL     1       2.484  -1.515   3.061  0.00  0.00    +0.000 A 
ATOM     10  C   UNL     1       1.553  -2.323   2.436  0.00  0.00    +0.000 A 
ATOM     11  C   UNL     1       0.758  -1.807   1.432  0.00  0.00    +0.002 A 
ATOM     12  C   UNL     1       0.888  -0.481   1.046  0.00  0.00    -0.061 A 
ATOM     13  C   UNL     1       1.815   0.325   1.671  0.00  0.00    -0.048 A 
ATOM     14  C   UNL     1       2.614  -0.195   2.679  0.00  0.00    +0.004 A 
ATOM     15  C   UNL     1       1.989   1.773   1.291  0.00  0.00    +0.017 C 
ATOM     16  C   UNL     1       1.346   2.036  -0.071  0.00  0.00    -0.073 C 
ATOM     17  C   UNL     1       0.001   0.036  -0.057  0.00  0.00    -0.042 C 
ATOM     18  N   UNL     1      -0.033   1.507  -0.029  0.00  0.00    +0.387 N 
ATOM     19  H   UNL     1      -0.485   1.816   0.840  0.00  0.00    -0.081 HD
ENDBRANCH   8  18
ENDBRANCH   1   8
BRANCH   5  20
ATOM     20  O   UNL     1      -6.164   0.446  -0.621  0.00  0.00    -0.476 OA
BRANCH  20  21
ATOM     21  C   UNL     1      -6.509  -0.810  -1.210  0.00  0.00    +0.325 C 
BRANCH  21  22
ATOM     22  C   UNL     1      -7.971  -1.089  -0.977  0.00  0.00    +0.255 C 
ATOM     23  O   UNL     1      -8.651  -0.292  -0.367  0.00  0.00    -0.272 OA
ATOM     24  N   UNL     1      -8.523  -2.226  -1.447  0.00  0.00    -0.281 N 
ATOM     25  H   UNL     1      -7.996  -2.832  -1.991  0.00  0.00    +0.155 HD
BRANCH  24  26
ATOM     26  C   UNL     1      -9.857  -2.530  -1.151  0.00  0.00    +0.052 A 
ATOM     27  C   UNL     1     -10.797  -1.514  -1.049  0.00  0.00    +0.037 A 
ATOM     28  C   UNL     1     -12.113  -1.818  -0.760  0.00  0.00    +0.057 A 
ATOM     29  C   UNL     1     -12.494  -3.132  -0.564  0.00  0.00    +0.014 A 
ATOM     30  C   UNL     1     -11.560  -4.148  -0.660  0.00  0.00    +0.022 A 
ATOM     31  C   UNL     1     -10.242  -3.851  -0.953  0.00  0.00    +0.062 A 
ATOM     32 CL   UNL     1      -9.070  -5.125  -1.073  0.00  0.00    -0.082 Cl
BRANCH  28  33
ATOM     33  C   UNL     1     -13.134  -0.715  -0.654  0.00  0.00    +0.417 C 
ATOM     34  F   UNL     1     -14.384  -1.264  -0.351  0.00  0.00    -0.166 F 
ATOM     35  F   UNL     1     -12.758   0.173   0.360  0.00  0.00    -0.166 F 
ATOM     36  F   UNL     1     -13.208  -0.029  -1.871  0.00  0.00    -0.166 F 
ENDBRANCH  28  33
ENDBRANCH  24  26
ENDBRANCH  21  22
ENDBRANCH  20  21
ENDBRANCH   5  20
TORSDOF 7
