REMARK  Name = ZINC39741650
REMARK  10 active torsions:
REMARK  status: ('A' for Active; 'I' for Inactive)
REMARK    1  A    between atoms: C_4  and  N_7
REMARK    2  A    between atoms: C_8  and  CA_22
REMARK    3  A    between atoms: C_11  and  S_12
REMARK    4  A    between atoms: S_12  and  C_13
REMARK    5  A    between atoms: C_13  and  C_14
REMARK    6  A    between atoms: N_16  and  C_17
REMARK    7  A    between atoms: CA_22  and  C_24
REMARK    8  A    between atoms: CA_22  and  N_26
REMARK    9  A    between atoms: C_24  and  O_25
REMARK   10  A    between atoms: C_27  and  C_29
REMARK                            x       y       z     vdW  Elec       q    Type
REMARK                         _______ _______ _______ _____ _____    ______ ____
ROOT
ATOM      1  N   UNL     1       3.624  -0.653  -0.036  0.00  0.00    -0.273 N 
ATOM      2  C   UNL     1       4.115  -1.449  -1.037  0.00  0.00    +0.161 A 
ATOM      3  N   UNL     1       5.279  -1.886  -0.648  0.00  0.00    -0.131 NA
ATOM      4  N   UNL     1       5.558  -1.426   0.519  0.00  0.00    -0.122 NA
ATOM      5  C   UNL     1       4.580  -0.658   0.942  0.00  0.00    +0.197 A 
ENDROOT
BRANCH   1   9
ATOM      6  C   UNL     1      -0.017   1.379   0.010  0.00  0.00    +0.000 A 
ATOM      7  C   UNL     1       1.170   2.089   0.002  0.00  0.00    +0.002 A 
ATOM      8  C   UNL     1       2.377   1.419  -0.013  0.00  0.00    +0.026 A 
ATOM      9  C   UNL     1       2.399   0.031  -0.021  0.00  0.00    +0.050 A 
ATOM     10  C   UNL     1       1.207  -0.680  -0.013  0.00  0.00    +0.026 A 
ATOM     11  C   UNL     1       0.002  -0.004   0.002  0.00  0.00    +0.002 A 
ENDBRANCH   1   9
BRANCH   5  12
ATOM     12  S   UNL     1       4.512   0.200   2.479  0.00  0.00    -0.076 S 
BRANCH  12  13
ATOM     13  C   UNL     1       6.076  -0.229   3.291  0.00  0.00    +0.173 C 
BRANCH  13  14
ATOM     14  C   UNL     1       6.147   0.449   4.635  0.00  0.00    +0.224 C 
ATOM     15  O   UNL     1       5.232   1.153   5.008  0.00  0.00    -0.275 OA
ATOM     16  N   UNL     1       7.227   0.274   5.423  0.00  0.00    -0.312 N 
ATOM     17  H   UNL     1       7.958  -0.289   5.124  0.00  0.00    +0.149 HD
BRANCH  16  18
ATOM     18  C   UNL     1       7.295   0.933   6.729  0.00  0.00    +0.073 C 
ATOM     19  C   UNL     1       6.638   0.044   7.805  0.00  0.00    +0.022 C 
ATOM     20  C   UNL     1       7.822  -0.730   8.435  0.00  0.00    +0.002 C 
ATOM     21  C   UNL     1       8.947   0.335   8.466  0.00  0.00    +0.002 C 
ATOM     22  C   UNL     1       8.764   1.118   7.150  0.00  0.00    +0.022 C 
ENDBRANCH  16  18
ENDBRANCH  13  14
ENDBRANCH  12  13
ENDBRANCH   5  12
BRANCH   2  23
ATOM     23  CA  UNL     1       3.434  -1.762  -2.345  0.00  0.00    +0.167 C 
BRANCH  23  24
ATOM     24  N   UNL     1       3.545  -3.196  -2.622  0.00  0.00    -0.299 N 
ATOM     25  C   UNL     1       2.637  -3.802  -3.412  0.00  0.00    +0.247 C 
ATOM     26  O   UNL     1       1.726  -3.158  -3.896  0.00  0.00    -0.270 OA
ATOM     27  H   UNL     1       4.272  -3.710  -2.236  0.00  0.00    +0.150 HD
BRANCH  25  28
ATOM     28  C   UNL     1       2.749  -5.248  -3.692  0.00  0.00    +0.072 A 
ATOM     29  C   UNL     1       3.791  -5.992  -3.134  0.00  0.00    +0.016 A 
ATOM     30  C   UNL     1       3.889  -7.341  -3.398  0.00  0.00    +0.001 A 
ATOM     31  C   UNL     1       2.958  -7.961  -4.215  0.00  0.00    +0.003 A 
ATOM     32  C   UNL     1       1.924  -7.233  -4.772  0.00  0.00    +0.039 A 
ATOM     33  C   UNL     1       1.809  -5.880  -4.511  0.00  0.00    +0.135 A 
ATOM     34  F   UNL     1       0.794  -5.170  -5.052  0.00  0.00    -0.205 F 
ENDBRANCH  25  28
ENDBRANCH  23  24
BRANCH  23  35
ATOM     35  C   UNL     1       4.104  -0.972  -3.470  0.00  0.00    +0.186 C 
BRANCH  35  36
ATOM     36  O   UNL     1       5.506  -1.248  -3.477  0.00  0.00    -0.393 OA
ATOM     37  H   UNL     1       5.996  -0.780  -4.167  0.00  0.00    +0.209 HD
ENDBRANCH  35  36
ENDBRANCH  23  35
ENDBRANCH   2  23
TORSDOF 10
