REMARK  Name = ZINC05023749
REMARK  3 active torsions:
REMARK  status: ('A' for Active; 'I' for Inactive)
REMARK    1  A    between atoms: C_1  and  O_2
REMARK    2  A    between atoms: O_2  and  C_3
REMARK    3  A    between atoms: C_3  and  C_5
REMARK                            x       y       z     vdW  Elec       q    Type
REMARK                         _______ _______ _______ _____ _____    ______ ____
ROOT
ATOM      1  C   UNL     1       1.268  -2.057   0.699  0.00  0.00    +0.167 C 
ATOM      2  C   UNL     1       1.265  -0.521   0.684  0.00  0.00    +0.010 C 
ATOM      3  C   UNL     1       2.506  -0.066  -0.087  0.00  0.00    -0.005 C 
ATOM      4  C   UNL     1       2.255   1.264  -0.792  0.00  0.00    -0.020 C 
ATOM      5  C   UNL     1       3.572   1.989  -0.944  0.00  0.00    +0.006 A 
ATOM      6  C   UNL     1       3.745   3.292  -0.630  0.00  0.00    -0.022 A 
ATOM      7  C   UNL     1       5.126   3.621  -0.901  0.00  0.00    +0.003 A 
ATOM      8  C   UNL     1       5.868   4.799  -0.766  0.00  0.00    +0.010 A 
ATOM      9  C   UNL     1       7.190   4.744  -1.130  0.00  0.00    +0.001 A 
ATOM     10  C   UNL     1       7.775   3.584  -1.610  0.00  0.00    +0.002 A 
ATOM     11  C   UNL     1       7.065   2.405  -1.754  0.00  0.00    +0.026 A 
ATOM     12  C   UNL     1       5.720   2.429  -1.391  0.00  0.00    +0.047 A 
ATOM     13  N   UNL     1       4.751   1.466  -1.403  0.00  0.00    -0.359 N 
ATOM     14  H   UNL     1       4.879   0.549  -1.694  0.00  0.00    +0.166 HD
ATOM     15  C   UNL     1       2.635   4.168  -0.106  0.00  0.00    +0.019 C 
ATOM     16  C   UNL     1       1.306   3.483  -0.445  0.00  0.00    -0.073 C 
ATOM     17  C   UNL     1      -0.019   1.525   0.010  0.00  0.00    -0.074 C 
ATOM     18  C   UNL     1       0.002  -0.004   0.002  0.00  0.00    -0.023 C 
ATOM     19  C   UNL     1      -1.246  -0.488   0.751  0.00  0.00    +0.009 C 
ATOM     20  C   UNL     1      -1.319  -2.015   0.720  0.00  0.00    +0.075 C 
ATOM     21  C   UNL     1      -0.027  -2.555   1.294  0.00  0.00    +0.147 C 
ATOM     22  O   UNL     1      -0.031  -3.357   2.197  0.00  0.00    -0.297 OA
ATOM     23  N   UNL     1       1.340   2.087   0.040  0.00  0.00    +0.386 N 
ATOM     24  H   UNL     1       1.681   2.082   1.008  0.00  0.00    -0.081 HD
ENDROOT
BRANCH   1  25
ATOM     25  C   UNL     1       2.425  -2.550   1.528  0.00  0.00    +0.317 C 
ATOM     26  O   UNL     1       3.172  -1.758   2.054  0.00  0.00    -0.250 OA
BRANCH  25  28
ATOM     27  C   UNL     1       3.761  -4.270   2.495  0.00  0.00    +0.280 C 
ATOM     28  O   UNL     1       2.627  -3.868   1.683  0.00  0.00    -0.467 OA
ENDBRANCH  25  28
ENDBRANCH   1  25
TORSDOF 2
