REMARK  Name = ZINC12644673
REMARK  7 active torsions:
REMARK  status: ('A' for Active; 'I' for Inactive)
REMARK    1  A    between atoms: C_1  and  C_2
REMARK    2  A    between atoms: C_5  and  C_31
REMARK    3  A    between atoms: C_6  and  N_8
REMARK    4  A    between atoms: N_8  and  C_9
REMARK    5  A    between atoms: C_9  and  N_11
REMARK    6  A    between atoms: C_14  and  N_17
REMARK    7  A    between atoms: N_20  and  C_21
REMARK                            x       y       z     vdW  Elec       q    Type
REMARK                         _______ _______ _______ _____ _____    ______ ____
ROOT
ATOM      1  N   UNL     1      -2.751   9.972  -3.672  0.00  0.00    -0.312 N 
ATOM      2  C   UNL     1      -3.309   9.916  -2.314  0.00  0.00    +0.108 C 
ATOM      3  C   UNL     1      -2.430   8.999  -1.457  0.00  0.00    +0.041 C 
ATOM      4  C   UNL     1      -2.304   7.636  -2.141  0.00  0.00    +0.077 C 
ATOM      5  C   UNL     1      -1.634   7.808  -3.506  0.00  0.00    +0.041 C 
ATOM      6  C   UNL     1      -2.504   8.712  -4.386  0.00  0.00    +0.108 C 
ENDROOT
BRANCH   4   7
ATOM      7  N   UNL     1      -1.491   6.746  -1.308  0.00  0.00    -0.296 N 
ATOM      8  C   UNL     1      -1.639   5.410  -1.406  0.00  0.00    +0.300 C 
ATOM      9  O   UNL     1      -2.447   4.944  -2.186  0.00  0.00    -0.253 OA
ATOM     10  N   UNL     1      -0.891   4.591  -0.640  0.00  0.00    -0.294 N 
ATOM     11  H   UNL     1      -0.847   7.118  -0.686  0.00  0.00    +0.151 HD
ATOM     12  H   UNL     1      -0.247   4.963  -0.018  0.00  0.00    +0.151 HD
BRANCH  10  13
ATOM     13  C   UNL     1      -1.052   3.139  -0.747  0.00  0.00    +0.037 C 
ATOM     14  C   UNL     1      -0.739   2.695  -2.177  0.00  0.00    +0.029 C 
ATOM     15  C   UNL     1      -0.907   1.178  -2.289  0.00  0.00    -0.008 C 
ATOM     16  C   UNL     1       0.052   0.486  -1.318  0.00  0.00    +0.007 C 
ATOM     17  C   UNL     1      -0.261   0.930   0.112  0.00  0.00    -0.008 C 
ATOM     18  C   UNL     1      -0.093   2.447   0.224  0.00  0.00    +0.029 C 
ATOM     19  C   UNL     1      -1.701   0.549   0.460  0.00  0.00    +0.007 C 
ATOM     20  C   UNL     1      -2.661   1.242  -0.510  0.00  0.00    -0.008 C 
ATOM     21  C   UNL     1      -2.347   0.798  -1.941  0.00  0.00    +0.007 C 
ATOM     22  C   UNL     1      -2.493   2.758  -0.399  0.00  0.00    +0.029 C 
ENDBRANCH  10  13
ENDBRANCH   4   7
BRANCH   1  23
ATOM     23  C   UNL     1      -2.471  11.156  -4.252  0.00  0.00    +0.137 C 
ATOM     24  S   UNL     1      -2.883  12.616  -3.459  0.00  0.00    -0.018 S 
BRANCH  23  25
ATOM     25  N   UNL     1      -1.865  11.191  -5.456  0.00  0.00    -0.297 N 
ATOM     26  H   UNL     1      -1.700  10.366  -5.939  0.00  0.00    +0.154 HD
BRANCH  25  32
ATOM     27  C   UNL     1      -2.836  15.924  -6.361  0.00  0.00    +0.044 C 
ATOM     28  C   UNL     1      -1.927  14.726  -6.461  0.00  0.00    -0.049 A 
ATOM     29  C   UNL     1      -0.705  14.838  -7.100  0.00  0.00    +0.004 A 
ATOM     30  C   UNL     1       0.132  13.741  -7.194  0.00  0.00    +0.005 A 
ATOM     31  C   UNL     1      -0.250  12.531  -6.649  0.00  0.00    -0.029 A 
ATOM     32  C   UNL     1      -1.476  12.415  -6.008  0.00  0.00    +0.036 A 
ATOM     33  C   UNL     1      -2.316  13.518  -5.920  0.00  0.00    +0.027 A 
ATOM     34  C   UNL     1       0.663  11.336  -6.752  0.00  0.00    +0.045 C 
ENDBRANCH  25  32
ENDBRANCH  23  25
ENDBRANCH   1  23
TORSDOF 5
