REMARK  Name = ZINC12296716
REMARK  6 active torsions:
REMARK  status: ('A' for Active; 'I' for Inactive)
REMARK    1  A    between atoms: C_1  and  C_2
REMARK    2  A    between atoms: N_19  and  N_22
REMARK    3  A    between atoms: C_23  and  C_24
REMARK    4  A    between atoms: N_26  and  C_27
REMARK    5  A    between atoms: C_27  and  C_28
REMARK    6  A    between atoms: C_28  and  C_29
REMARK                            x       y       z     vdW  Elec       q    Type
REMARK                         _______ _______ _______ _____ _____    ______ ____
ROOT
ATOM      1  C   UNL     1      -1.883   2.225  -1.366  0.00  0.00    +0.048 C 
ATOM      2  C   UNL     1      -1.236   2.255   0.020  0.00  0.00    +0.153 C 
ATOM      3  C   UNL     1      -0.017   1.365   0.009  0.00  0.00    +0.053 A 
ATOM      4  C   UNL     1       1.248   1.843   0.000  0.00  0.00    -0.015 A 
ATOM      5  C   UNL     1       2.133   0.696  -0.018  0.00  0.00    +0.003 A 
ATOM      6  C   UNL     1       3.526   0.574  -0.033  0.00  0.00    +0.010 A 
ATOM      7  C   UNL     1       4.037  -0.701  -0.045  0.00  0.00    +0.001 A 
ATOM      8  C   UNL     1       3.221  -1.821  -0.043  0.00  0.00    +0.002 A 
ATOM      9  C   UNL     1       1.840  -1.729  -0.028  0.00  0.00    +0.026 A 
ATOM     10  C   UNL     1       1.293  -0.448  -0.015  0.00  0.00    +0.047 A 
ATOM     11  N   UNL     1       0.002  -0.004   0.002  0.00  0.00    -0.356 N 
ATOM     12  H   UNL     1      -0.784  -0.573   0.008  0.00  0.00    +0.166 HD
ATOM     13  C   UNL     1       1.611   3.305   0.013  0.00  0.00    +0.056 C 
ATOM     14  C   UNL     1       0.389   4.131  -0.406  0.00  0.00    +0.114 C 
ATOM     15  N   UNL     1      -0.796   3.621   0.309  0.00  0.00    -0.281 N 
ATOM     16  C   UNL     1      -1.425   4.412   1.183  0.00  0.00    +0.236 C 
ATOM     17  O   UNL     1      -1.077   5.571   1.251  0.00  0.00    -0.274 OA
ATOM     18  C   UNL     1      -2.529   3.959   2.083  0.00  0.00    +0.230 C 
ATOM     19  N   UNL     1      -2.809   2.540   1.937  0.00  0.00    -0.182 N 
ATOM     20  C   UNL     1      -2.233   1.764   1.019  0.00  0.00    +0.265 C 
ATOM     21  O   UNL     1      -2.537   0.591   0.991  0.00  0.00    -0.271 OA
ENDROOT
BRANCH  19  22
ATOM     22  N   UNL     1      -3.735   1.956   2.811  0.00  0.00    -0.180 NA
ATOM     23  C   UNL     1      -4.317   2.680   3.721  0.00  0.00    +0.197 C 
BRANCH  23  24
ATOM     24  C   UNL     1      -5.287   2.068   4.636  0.00  0.00    +0.257 C 
ATOM     25  O   UNL     1      -5.546   0.882   4.544  0.00  0.00    -0.269 OA
ATOM     26  N   UNL     1      -5.891   2.818   5.579  0.00  0.00    -0.310 N 
ATOM     27  H   UNL     1      -5.684   3.763   5.652  0.00  0.00    +0.149 HD
BRANCH  26  28
ATOM     28  C   UNL     1      -6.859   2.207   6.493  0.00  0.00    +0.109 C 
BRANCH  28  29
ATOM     29  C   UNL     1      -7.392   3.269   7.457  0.00  0.00    +0.056 C 
BRANCH  29  30
ATOM     30  C   UNL     1      -8.388   2.640   8.397  0.00  0.00    -0.021 A 
ATOM     31  C   UNL     1      -9.721   2.617   8.248  0.00  0.00    +0.087 A 
ATOM     32  N   UNL     1     -10.297   1.957   9.300  0.00  0.00    -0.360 N 
ATOM     33  H   UNL     1     -11.249   1.813   9.413  0.00  0.00    +0.165 HD
ATOM     34  C   UNL     1      -9.322   1.529  10.173  0.00  0.00    +0.047 A 
ATOM     35  C   UNL     1      -8.083   1.933   9.643  0.00  0.00    +0.003 A 
ATOM     36  C   UNL     1      -6.902   1.628  10.322  0.00  0.00    +0.010 A 
ATOM     37  C   UNL     1      -6.956   0.934  11.498  0.00  0.00    +0.001 A 
ATOM     38  C   UNL     1      -8.175   0.530  12.023  0.00  0.00    +0.002 A 
ATOM     39  C   UNL     1      -9.354   0.828  11.374  0.00  0.00    +0.026 A 
ENDBRANCH  29  30
ENDBRANCH  28  29
ENDBRANCH  26  28
ENDBRANCH  23  24
ENDBRANCH  19  22
TORSDOF 5
