REMARK  Name = ZINC39596593
REMARK  9 active torsions:
REMARK  status: ('A' for Active; 'I' for Inactive)
REMARK    1  A    between atoms: C_1  and  C_2
REMARK    2  A    between atoms: C_4  and  C_8
REMARK    3  A    between atoms: N_6  and  C_7
REMARK    4  A    between atoms: C_12  and  C_21
REMARK    5  A    between atoms: N_23  and  C_24
REMARK    6  A    between atoms: C_24  and  C_25
REMARK    7  A    between atoms: C_25  and  C_27
REMARK    8  A    between atoms: C_25  and  O_28
REMARK    9  A    between atoms: O_28  and  C_29
REMARK                            x       y       z     vdW  Elec       q    Type
REMARK                         _______ _______ _______ _____ _____    ______ ____
ROOT
ATOM      1  C   UNL     1       0.050  -3.321  -1.368  0.00  0.00    +0.267 C 
ATOM      2  O   UNL     1       0.036  -3.252  -2.581  0.00  0.00    -0.268 OA
ATOM      3  N   UNL     1       0.064  -4.525  -0.762  0.00  0.00    -0.295 N 
ATOM      4  C   UNL     1       0.076  -4.811   0.692  0.00  0.00    +0.121 C 
ATOM      5  C   UNL     1      -0.861  -6.028   0.859  0.00  0.00    +0.100 C 
ATOM      6  C   UNL     1      -0.858  -6.716  -0.517  0.00  0.00    -0.004 C 
ATOM      7  C   UNL     1       0.064  -5.864  -1.400  0.00  0.00    +0.115 C 
ATOM      8  C   UNL     1      -2.268  -6.735  -1.100  0.00  0.00    -0.010 C 
ATOM      9  C   UNL     1      -2.250  -7.474  -2.441  0.00  0.00    -0.082 C 
ATOM     10  N   UNL     1      -1.764  -8.844  -2.240  0.00  0.00    +0.379 N 
ATOM     11  C   UNL     1      -0.374  -8.818  -1.767  0.00  0.00    -0.082 C 
ATOM     12  C   UNL     1      -0.313  -8.136  -0.397  0.00  0.00    -0.010 C 
ATOM     13  H   UNL     1      -2.342  -9.308  -1.556  0.00  0.00    -0.086 HD
ATOM     14  H   UNL     1      -1.810  -9.348  -3.114  0.00  0.00    -0.086 HD
ENDROOT
BRANCH   1  18
ATOM     15  C   UNL     1       0.040   1.538   0.072  0.00  0.00    +0.065 C 
ATOM     16  C   UNL     1       0.047   0.031   0.054  0.00  0.00    +0.037 A 
ATOM     17  C   UNL     1       0.040  -0.759  -1.045  0.00  0.00    +0.057 A 
ATOM     18  C   UNL     1       0.053  -2.087  -0.557  0.00  0.00    +0.147 A 
ATOM     19  N   UNL     1       0.067  -2.013   0.759  0.00  0.00    -0.167 NA
ATOM     20  N   UNL     1       0.069  -0.783   1.131  0.00  0.00    -0.271 N 
ATOM     21  C   UNL     1       0.088  -0.329   2.524  0.00  0.00    +0.172 C 
ENDBRANCH   1  18
BRANCH   5  22
ATOM     22  C   UNL     1      -0.326  -6.961   1.915  0.00  0.00    +0.218 C 
ATOM     23  O   UNL     1       0.871  -7.101   2.051  0.00  0.00    -0.275 OA
ATOM     24  N   UNL     1      -1.178  -7.639   2.709  0.00  0.00    -0.312 N 
ATOM     25  H   UNL     1      -2.135  -7.527   2.601  0.00  0.00    +0.149 HD
BRANCH  24  26
ATOM     26  C   UNL     1      -0.658  -8.545   3.736  0.00  0.00    +0.148 C 
BRANCH  26  27
ATOM     27  C   UNL     1      -1.825  -9.184   4.491  0.00  0.00    +0.187 C 
ATOM     28  C   UNL     1      -1.283 -10.130   5.564  0.00  0.00    +0.053 C 
BRANCH  27  29
ATOM     29  O   UNL     1      -2.608  -8.161   5.111  0.00  0.00    -0.488 OA
BRANCH  29  30
ATOM     30  C   UNL     1      -3.912  -8.450   5.365  0.00  0.00    +0.121 A 
ATOM     31  C   UNL     1      -4.759  -7.466   5.853  0.00  0.00    +0.048 A 
ATOM     32  C   UNL     1      -6.084  -7.762   6.111  0.00  0.00    +0.042 A 
ATOM     33  C   UNL     1      -6.565  -9.040   5.884  0.00  0.00    +0.124 A 
ATOM     34  C   UNL     1      -5.721 -10.024   5.398  0.00  0.00    +0.042 A 
ATOM     35  C   UNL     1      -4.397  -9.729   5.133  0.00  0.00    +0.048 A 
ATOM     36  F   UNL     1      -7.861  -9.328   6.138  0.00  0.00    -0.205 F 
ENDBRANCH  29  30
ENDBRANCH  27  29
ENDBRANCH  26  27
ENDBRANCH  24  26
ENDBRANCH   5  22
TORSDOF 6
