REMARK  Name = ZINC46696234
REMARK  6 active torsions:
REMARK  status: ('A' for Active; 'I' for Inactive)
REMARK    1  A    between atoms: C_1  and  C_2
REMARK    2  A    between atoms: C_2  and  C_3
REMARK    3  A    between atoms: C_3  and  C_5
REMARK    4  A    between atoms: C_3  and  N_15
REMARK    5  A    between atoms: C_16  and  C_18
REMARK    6  A    between atoms: C_18  and  C_19
REMARK                            x       y       z     vdW  Elec       q    Type
REMARK                         _______ _______ _______ _____ _____    ______ ____
ROOT
ATOM      1  N   UNL     1      -2.082  -0.162   1.273  0.00  0.00    -0.312 N 
ATOM      2  C   UNL     1      -2.664   1.047   1.400  0.00  0.00    +0.219 C 
ATOM      3  O   UNL     1      -2.651   1.827   0.471  0.00  0.00    -0.275 OA
ATOM      4  H   UNL     1      -2.092  -0.785   2.016  0.00  0.00    +0.149 HD
ENDROOT
BRANCH   1   5
ATOM      5  C   UNL     1      -1.433  -0.534   0.013  0.00  0.00    +0.079 C 
BRANCH   5   6
ATOM      6  C   UNL     1      -1.416  -2.058  -0.121  0.00  0.00    -0.010 C 
ATOM      7  C   UNL     1      -0.640  -2.664   1.050  0.00  0.00    +0.012 C 
ATOM      8  C   UNL     1      -0.622  -4.188   0.916  0.00  0.00    -0.010 C 
ATOM      9  C   UNL     1      -2.057  -4.717   0.927  0.00  0.00    +0.007 C 
ATOM     10  C   UNL     1      -2.833  -4.111  -0.244  0.00  0.00    -0.010 C 
ATOM     11  C   UNL     1      -2.851  -2.587  -0.110  0.00  0.00    +0.012 C 
ATOM     12  C   UNL     1      -2.156  -4.500  -1.560  0.00  0.00    +0.007 C 
ATOM     13  C   UNL     1      -0.721  -3.970  -1.571  0.00  0.00    -0.010 C 
ATOM     14  C   UNL     1       0.055  -4.576  -0.400  0.00  0.00    +0.007 C 
ATOM     15  C   UNL     1      -0.739  -2.446  -1.437  0.00  0.00    +0.012 C 
ENDBRANCH   5   6
BRANCH   5  17
ATOM     16  C   UNL     1      -0.019   1.526   0.010  0.00  0.00    +0.006 C 
ATOM     17  C   UNL     1       0.002  -0.004   0.002  0.00  0.00    +0.019 C 
ENDBRANCH   5  17
ENDBRANCH   1   5
BRANCH   2  18
ATOM     18  C   UNL     1      -3.330   1.430   2.696  0.00  0.00    +0.155 C 
BRANCH  18  19
ATOM     19  C   UNL     1      -3.899   2.820   2.578  0.00  0.00    +0.100 A 
ATOM     20  C   UNL     1      -3.204   4.071   2.896  0.00  0.00    +0.045 A 
ATOM     21  C   UNL     1      -1.923   4.372   3.365  0.00  0.00    +0.013 A 
ATOM     22  C   UNL     1      -1.563   5.675   3.568  0.00  0.00    +0.001 A 
ATOM     23  C   UNL     1      -2.461   6.702   3.312  0.00  0.00    +0.004 A 
ATOM     24  C   UNL     1      -3.729   6.426   2.849  0.00  0.00    +0.049 A 
ATOM     25  C   UNL     1      -4.115   5.108   2.635  0.00  0.00    +0.168 A 
ATOM     26  O   UNL     1      -5.255   4.535   2.200  0.00  0.00    -0.354 OA
ATOM     27  N   UNL     1      -5.090   3.131   2.170  0.00  0.00    -0.082 NA
ENDBRANCH  18  19
ENDBRANCH   2  18
TORSDOF 5
