REMARK  Name = ZINC40904410
REMARK  6 active torsions:
REMARK  status: ('A' for Active; 'I' for Inactive)
REMARK    1  A    between atoms: C_2  and  C_3
REMARK    2  A    between atoms: C_3  and  N_4
REMARK    3  A    between atoms: C_5  and  C_7
REMARK    4  A    between atoms: N_10  and  C_13
REMARK    5  A    between atoms: C_16  and  C_20
REMARK    6  A    between atoms: C_22  and  C_25
REMARK                            x       y       z     vdW  Elec       q    Type
REMARK                         _______ _______ _______ _____ _____    ______ ____
ROOT
ATOM      1  C   UNL     1      -4.351  -4.596  -5.980  0.00  0.00    +0.065 A 
ATOM      2  C   UNL     1      -4.149  -5.585  -6.936  0.00  0.00    +0.027 A 
ATOM      3  C   UNL     1      -5.009  -5.696  -8.007  0.00  0.00    +0.013 A 
ATOM      4  C   UNL     1      -6.084  -4.817  -8.133  0.00  0.00    +0.025 A 
ATOM      5  C   UNL     1      -6.287  -3.825  -7.174  0.00  0.00    +0.052 A 
ATOM      6  C   UNL     1      -5.426  -3.720  -6.100  0.00  0.00    +0.145 A 
ATOM      7  F   UNL     1      -5.625  -2.763  -5.167  0.00  0.00    -0.204 F 
ENDROOT
BRANCH   1  11
ATOM      8  C   UNL     1      -2.411  -3.449  -2.491  0.00  0.00    +0.078 C 
ATOM      9  C   UNL     1      -2.296  -2.657  -3.795  0.00  0.00    +0.031 C 
ATOM     10  C   UNL     1      -2.288  -3.629  -4.979  0.00  0.00    +0.106 C 
ATOM     11  N   UNL     1      -3.479  -4.485  -4.896  0.00  0.00    -0.328 N 
ATOM     12  C   UNL     1      -3.734  -5.222  -3.651  0.00  0.00    +0.106 C 
ATOM     13  C   UNL     1      -3.726  -4.232  -2.482  0.00  0.00    +0.031 C 
BRANCH   8  15
ATOM     14  N   UNL     1      -1.318  -1.700  -1.126  0.00  0.00    -0.312 N 
ATOM     15  C   UNL     1      -2.386  -2.498  -1.322  0.00  0.00    +0.216 C 
ATOM     16  O   UNL     1      -3.326  -2.451  -0.557  0.00  0.00    -0.276 OA
ATOM     17  H   UNL     1      -0.566  -1.737  -1.737  0.00  0.00    +0.149 HD
BRANCH  14  18
ATOM     18  C   UNL     1      -1.293  -0.775   0.010  0.00  0.00    +0.131 C 
BRANCH  18  20
ATOM     19  C   UNL     1      -0.016   1.306   0.009  0.00  0.00    +0.005 C 
ATOM     20  C   UNL     1       0.002  -0.004   0.002  0.00  0.00    -0.016 C 
ENDBRANCH  18  20
ENDBRANCH  14  18
ENDBRANCH   8  15
ENDBRANCH   1  11
BRANCH   4  21
ATOM     21  C   UNL     1      -7.010  -4.935  -9.286  0.00  0.00    +0.202 A 
ATOM     22  N   UNL     1      -8.072  -4.148  -9.519  0.00  0.00    -0.187 NA
ATOM     23  C   UNL     1      -8.674  -4.525 -10.622  0.00  0.00    +0.259 A 
ATOM     24  O   UNL     1      -8.005  -5.575 -11.130  0.00  0.00    -0.332 OA
ATOM     25  N   UNL     1      -6.921  -5.822 -10.247  0.00  0.00    -0.056 NA
BRANCH  23  26
ATOM     26  C   UNL     1      -9.881  -3.902 -11.206  0.00  0.00    +0.039 A 
ATOM     27  C   UNL     1     -10.479  -2.808 -10.579  0.00  0.00    +0.013 A 
ATOM     28  C   UNL     1     -11.605  -2.231 -11.129  0.00  0.00    +0.001 A 
ATOM     29  C   UNL     1     -12.142  -2.735 -12.300  0.00  0.00    +0.000 A 
ATOM     30  C   UNL     1     -11.555  -3.820 -12.927  0.00  0.00    +0.001 A 
ATOM     31  C   UNL     1     -10.424  -4.402 -12.391  0.00  0.00    +0.013 A 
ENDBRANCH  23  26
ENDBRANCH   4  21
TORSDOF 6
