REMARK  Name = ZINC07790204
REMARK  6 active torsions:
REMARK  status: ('A' for Active; 'I' for Inactive)
REMARK    1  A    between atoms: C_1  and  C_2
REMARK    2  A    between atoms: C_8  and  N_10
REMARK    3  A    between atoms: C_11  and  C_13
REMARK    4  A    between atoms: C_13  and  S_14
REMARK    5  A    between atoms: S_14  and  C_15
REMARK    6  A    between atoms: N_28  and  C_29
REMARK                            x       y       z     vdW  Elec       q    Type
REMARK                         _______ _______ _______ _____ _____    ______ ____
ROOT
ATOM      1  C   UNL     1       0.253   1.096   7.648  0.00  0.00    +0.180 C 
ATOM      2  N   UNL     1      -0.955   1.559   7.489  0.00  0.00    -0.158 NA
ATOM      3  N   UNL     1      -1.381   2.099   8.710  0.00  0.00    -0.221 N 
ATOM      4  C   UNL     1      -0.380   1.937   9.596  0.00  0.00    +0.121 C 
ATOM      5  C   UNL     1      -0.388   2.338  10.949  0.00  0.00    +0.040 C 
ATOM      6  C   UNL     1      -1.139   3.373  11.529  0.00  0.00    +0.123 C 
ATOM      7  N   UNL     1      -0.876   3.441  12.813  0.00  0.00    -0.254 NA
ATOM      8  C   UNL     1       0.020   2.517  13.197  0.00  0.00    +0.072 A 
ATOM      9  C   UNL     1       0.383   1.759  12.058  0.00  0.00    +0.012 A 
ATOM     10  C   UNL     1       1.302   0.720  12.174  0.00  0.00    +0.011 A 
ATOM     11  C   UNL     1       1.849   0.434  13.394  0.00  0.00    +0.001 A 
ATOM     12  C   UNL     1       1.495   1.171  14.518  0.00  0.00    +0.002 A 
ATOM     13  C   UNL     1       0.604   2.201  14.432  0.00  0.00    +0.028 A 
ATOM     14  N   UNL     1       0.639   1.309   8.948  0.00  0.00    -0.262 N 
ATOM     15  H   UNL     1      -2.240   2.514   8.885  0.00  0.00    +0.176 HD
ENDROOT
BRANCH  14  16
ATOM     16  C   UNL     1       1.927   0.931   9.536  0.00  0.00    +0.082 C 
ATOM     17  C   UNL     1       3.064   0.577   8.576  0.00  0.00    +0.025 C 
ATOM     18  C   UNL     1       2.373  -0.525   9.381  0.00  0.00    +0.025 C 
ENDBRANCH  14  16
BRANCH   1  19
ATOM     19  S   UNL     1       1.226   0.316   6.403  0.00  0.00    -0.079 S 
BRANCH  19  20
ATOM     20  C   UNL     1       0.162   0.343   4.934  0.00  0.00    +0.172 C 
BRANCH  20  22
ATOM     21  N   UNL     1       0.283  -0.396   2.577  0.00  0.00    -0.312 N 
ATOM     22  C   UNL     1       0.884  -0.302   3.779  0.00  0.00    +0.224 C 
ATOM     23  O   UNL     1       2.006  -0.737   3.932  0.00  0.00    -0.275 OA
ATOM     24  H   UNL     1      -0.614  -0.048   2.454  0.00  0.00    +0.149 HD
BRANCH  21  31
ATOM     25  C   UNL     1       0.628   1.034   0.082  0.00  0.00    +0.009 C 
ATOM     26  C   UNL     1       0.426  -0.482   0.137  0.00  0.00    +0.006 C 
ATOM     27  C   UNL     1      -1.067  -0.800   0.047  0.00  0.00    +0.005 C 
ATOM     28  C   UNL     1      -1.269  -2.316   0.102  0.00  0.00    +0.000 C 
ATOM     29  C   UNL     1      -0.711  -2.858   1.419  0.00  0.00    +0.002 C 
ATOM     30  C   UNL     1       0.783  -2.539   1.509  0.00  0.00    +0.022 C 
ATOM     31  C   UNL     1       0.985  -1.023   1.454  0.00  0.00    +0.076 C 
ENDBRANCH  21  31
ENDBRANCH  20  22
ENDBRANCH  19  20
ENDBRANCH   1  19
TORSDOF 5
