REMARK  Name = ZINC05931876
REMARK  4 active torsions:
REMARK  status: ('A' for Active; 'I' for Inactive)
REMARK    1  A    between atoms: C_1  and  C_2
REMARK    2  A    between atoms: C_4  and  N_12
REMARK    3  A    between atoms: N_12  and  S_13
REMARK    4  A    between atoms: S_13  and  C_16
REMARK                            x       y       z     vdW  Elec       q    Type
REMARK                         _______ _______ _______ _____ _____    ______ ____
ROOT
ATOM      1  N   UNL     1       0.028  -2.753  -2.437  0.00  0.00    -0.097 NA
ENDROOT
BRANCH   1   5
ATOM      2  C   UNL     1      -0.018   1.503   0.010  0.00  0.00    +0.065 C 
ATOM      3  C   UNL     1       0.002  -0.004   0.002  0.00  0.00    +0.041 A 
ATOM      4  C   UNL     1       0.005  -0.672  -1.215  0.00  0.00    +0.050 A 
ATOM      5  C   UNL     1       0.025  -2.057  -1.238  0.00  0.00    +0.085 A 
ATOM      6  C   UNL     1       0.040  -2.740   0.002  0.00  0.00    +0.025 A 
ATOM      7  C   UNL     1       0.061  -4.140   0.064  0.00  0.00    +0.012 A 
ATOM      8  C   UNL     1       0.076  -4.761   1.277  0.00  0.00    +0.001 A 
ATOM      9  C   UNL     1       0.071  -4.021   2.457  0.00  0.00    +0.002 A 
ATOM     10  C   UNL     1       0.051  -2.660   2.432  0.00  0.00    +0.028 A 
ATOM     11  C   UNL     1       0.036  -1.985   1.199  0.00  0.00    +0.073 A 
ATOM     12  N   UNL     1       0.022  -0.648   1.146  0.00  0.00    -0.252 NA
ENDBRANCH   1   5
BRANCH   1  13
ATOM     13  S   UNL     1       0.009  -1.928  -3.873  0.00  0.00    +0.094 S 
ATOM     14  O   UNL     1      -1.246  -1.266  -3.944  0.00  0.00    -0.148 OA
ATOM     15  O   UNL     1       1.244  -1.231  -3.957  0.00  0.00    -0.148 OA
BRANCH  13  16
ATOM     16  C   UNL     1       0.019  -3.128  -5.163  0.00  0.00    +0.147 A 
ATOM     17  C   UNL     1       1.220  -3.587  -5.672  0.00  0.00    +0.069 A 
ATOM     18  C   UNL     1       1.227  -4.529  -6.686  0.00  0.00    +0.022 A 
ATOM     19  C   UNL     1       0.034  -5.011  -7.189  0.00  0.00    +0.003 A 
ATOM     20  C   UNL     1      -1.167  -4.554  -6.681  0.00  0.00    +0.022 A 
ATOM     21  C   UNL     1      -1.175  -3.616  -5.663  0.00  0.00    +0.069 A 
ATOM     22 CL   UNL     1      -2.684  -3.047  -5.020  0.00  0.00    -0.081 Cl
ATOM     23 CL   UNL     1       2.719  -2.980  -5.041  0.00  0.00    -0.081 Cl
ENDBRANCH  13  16
ENDBRANCH   1  13
TORSDOF 3
