REMARK  Name = ZINC12239034
REMARK  6 active torsions:
REMARK  status: ('A' for Active; 'I' for Inactive)
REMARK    1  A    between atoms: C_4  and  C_7
REMARK    2  A    between atoms: C_7  and  N_56
REMARK    3  A    between atoms: C_11  and  C_14
REMARK    4  A    between atoms: C_14  and  N_15
REMARK    5  A    between atoms: N_15  and  S_16
REMARK    6  A    between atoms: S_16  and  C_19
REMARK                            x       y       z     vdW  Elec       q    Type
REMARK                         _______ _______ _______ _____ _____    ______ ____
ROOT
ATOM      1  N   UNL     1      -2.260   5.647   1.050  0.00  0.00    -0.190 NA
ATOM      2  H   UNL     1      -2.868   5.062   1.528  0.00  0.00    +0.148 HD
ENDROOT
BRANCH   1   3
ATOM      3  S   UNL     1      -2.133   7.241   1.481  0.00  0.00    +0.058 S 
ATOM      4  O   UNL     1      -3.047   7.446   2.550  0.00  0.00    -0.153 OA
ATOM      5  O   UNL     1      -0.745   7.520   1.602  0.00  0.00    -0.153 OA
BRANCH   3   6
ATOM      6  C   UNL     1      -2.723   8.196   0.123  0.00  0.00    +0.106 A 
ATOM      7  C   UNL     1      -4.062   8.535   0.048  0.00  0.00    +0.030 A 
ATOM      8  C   UNL     1      -4.527   9.284  -1.015  0.00  0.00    +0.025 A 
ATOM      9  C   UNL     1      -3.649   9.697  -2.008  0.00  0.00    +0.037 A 
ATOM     10  C   UNL     1      -2.306   9.356  -1.929  0.00  0.00    -0.024 A 
ATOM     11  C   UNL     1      -1.845   8.611  -0.861  0.00  0.00    +0.034 A 
ATOM     12  C   UNL     1      -1.353   9.805  -3.006  0.00  0.00    +0.046 C 
ATOM     13  C   UNL     1      -2.078   9.826  -4.353  0.00  0.00    +0.101 C 
ATOM     14  C   UNL     1      -3.391  10.549  -4.217  0.00  0.00    +0.218 C 
ATOM     15  O   UNL     1      -3.801  11.224  -5.138  0.00  0.00    -0.275 OA
ATOM     16  N   UNL     1      -4.114  10.456  -3.086  0.00  0.00    -0.285 N 
ATOM     17  H   UNL     1      -4.964  10.919  -3.019  0.00  0.00    +0.155 HD
ENDBRANCH   3   6
ENDBRANCH   1   3
BRANCH   1  18
ATOM     18  C   UNL     1      -1.453   5.121  -0.054  0.00  0.00    +0.107 C 
BRANCH  18  22
ATOM     19  C   UNL     1      -0.013   1.086   0.008  0.00  0.00    -0.078 C 
ATOM     20  C   UNL     1      -0.729   1.579   1.267  0.00  0.00    -0.018 C 
ATOM     21  C   UNL     1      -0.764   3.110   1.262  0.00  0.00    +0.001 C 
ATOM     22  C   UNL     1      -1.466   3.591  -0.011  0.00  0.00    -0.012 C 
ATOM     23  C   UNL     1      -0.729   3.040  -1.234  0.00  0.00    -0.074 C 
ATOM     24  N   UNL     1      -0.751   1.562  -1.181  0.00  0.00    +0.383 N 
ATOM     25  H   UNL     1      -1.726   1.246  -1.117  0.00  0.00    -0.081 HD
BRANCH  24  26
ATOM     26  C   UNL     1      -0.145   1.005  -2.408  0.00  0.00    -0.043 C 
BRANCH  26  30
ATOM     27  C   UNL     1       3.831   2.477  -2.924  0.00  0.00    +0.000 A 
ATOM     28  C   UNL     1       3.612   1.313  -2.212  0.00  0.00    +0.000 A 
ATOM     29  C   UNL     1       2.326   0.837  -2.045  0.00  0.00    +0.002 A 
ATOM     30  C   UNL     1       1.258   1.524  -2.590  0.00  0.00    -0.064 A 
ATOM     31  C   UNL     1       1.477   2.686  -3.307  0.00  0.00    +0.002 A 
ATOM     32  C   UNL     1       2.763   3.165  -3.470  0.00  0.00    +0.000 A 
ENDBRANCH  26  30
ENDBRANCH  24  26
ENDBRANCH  18  22
ENDBRANCH   1  18
TORSDOF 6
