REMARK  Name = ZINC59332149
REMARK  7 active torsions:
REMARK  status: ('A' for Active; 'I' for Inactive)
REMARK    1  A    between atoms: C_1  and  C_2
REMARK    2  A    between atoms: C_2  and  C_3
REMARK    3  A    between atoms: C_3  and  C_5
REMARK    4  A    between atoms: C_3  and  S_6
REMARK    5  A    between atoms: S_6  and  C_7
REMARK    6  A    between atoms: C_13  and  C_15
REMARK    7  A    between atoms: C_18  and  N_22
REMARK                            x       y       z     vdW  Elec       q    Type
REMARK                         _______ _______ _______ _____ _____    ______ ____
ROOT
ATOM      1  C   UNL     1       3.102  -0.498  -2.760  0.00  0.00    +0.160 A 
ATOM      2  N   UNL     1       2.499  -1.099  -3.775  0.00  0.00    -0.133 NA
ATOM      3  N   UNL     1       3.114  -1.394  -4.836  0.00  0.00    -0.125 NA
ATOM      4  C   UNL     1       4.398  -1.121  -5.001  0.00  0.00    +0.189 A 
ATOM      5  S   UNL     1       4.754  -0.338  -3.431  0.00  0.00    -0.024 S 
ATOM      6  N   UNL     1       5.232  -1.367  -6.088  0.00  0.00    -0.259 N 
ATOM      7  C   UNL     1       4.745  -1.974  -7.188  0.00  0.00    +0.251 C 
ATOM      8  O   UNL     1       3.576  -2.306  -7.231  0.00  0.00    -0.270 OA
ATOM      9  H   UNL     1       6.165  -1.102  -6.053  0.00  0.00    +0.157 HD
ENDROOT
BRANCH   7  10
ATOM     10  C   UNL     1       5.630  -2.235  -8.341  0.00  0.00    +0.055 A 
ATOM     11  C   UNL     1       6.975  -1.861  -8.292  0.00  0.00    +0.017 A 
ATOM     12  C   UNL     1       7.796  -2.108  -9.372  0.00  0.00    +0.033 A 
ATOM     13  C   UNL     1       7.292  -2.727 -10.503  0.00  0.00    +0.128 A 
ATOM     14  C   UNL     1       5.961  -3.101 -10.559  0.00  0.00    +0.053 A 
ATOM     15  C   UNL     1       5.128  -2.864  -9.483  0.00  0.00    +0.055 A 
ATOM     16 CL   UNL     1       3.460  -3.341  -9.552  0.00  0.00    -0.083 Cl
BRANCH  13  17
ATOM     17  N   UNL     1       8.180  -2.989 -11.657  0.00  0.00    +0.056 N 
ATOM     18  O   UNL     1       9.343  -2.663 -11.611  0.00  0.00    -0.126 OA
ATOM     19  O   UNL     1       7.742  -3.529 -12.646  0.00  0.00    -0.126 OA
ENDBRANCH  13  17
ENDBRANCH   7  10
BRANCH   1  20
ATOM     20  S   UNL     1       2.460   0.006  -1.198  0.00  0.00    -0.094 S 
BRANCH  20  21
ATOM     21  C   UNL     1       0.718  -0.497  -1.257  0.00  0.00    +0.050 C 
ATOM     22  C   UNL     1       0.630  -2.023  -1.329  0.00  0.00    +0.019 C 
BRANCH  21  24
ATOM     23  C   UNL     1      -0.019   1.526   0.010  0.00  0.00    +0.005 C 
ATOM     24  C   UNL     1       0.002  -0.004   0.002  0.00  0.00    +0.011 C 
ENDBRANCH  21  24
ENDBRANCH  20  21
ENDBRANCH   1  20
TORSDOF 5
