REMARK  Name = ZINC47588792
REMARK  6 active torsions:
REMARK  status: ('A' for Active; 'I' for Inactive)
REMARK    1  A    between atoms: C_1  and  C_2
REMARK    2  A    between atoms: C_2  and  C_4
REMARK    3  A    between atoms: C_2  and  N_13
REMARK    4  A    between atoms: N_16  and  C_17
REMARK    5  A    between atoms: C_20  and  C_24
REMARK    6  A    between atoms: N_26  and  C_27
REMARK                            x       y       z     vdW  Elec       q    Type
REMARK                         _______ _______ _______ _____ _____    ______ ____
ROOT
ATOM      1  N   UNL     1      -1.371  -0.516   0.012  0.00  0.00    -0.290 N 
ATOM      2  C   UNL     1      -2.052  -0.640  -1.144  0.00  0.00    +0.304 C 
ATOM      3  O   UNL     1      -1.526  -0.329  -2.196  0.00  0.00    -0.252 OA
ATOM      4  N   UNL     1      -3.315  -1.109  -1.135  0.00  0.00    -0.269 N 
ATOM      5  H   UNL     1      -1.790  -0.765   0.851  0.00  0.00    +0.151 HD
ATOM      6  H   UNL     1      -3.711  -1.420  -0.306  0.00  0.00    +0.156 HD
ENDROOT
BRANCH   4   7
ATOM      7  C   UNL     1      -4.053  -1.147  -2.317  0.00  0.00    +0.036 A 
ATOM      8  C   UNL     1      -3.418  -1.431  -3.523  0.00  0.00    +0.024 A 
ATOM      9  C   UNL     1      -4.143  -1.470  -4.692  0.00  0.00    +0.016 A 
ATOM     10  C   UNL     1      -5.519  -1.224  -4.669  0.00  0.00    +0.055 A 
ATOM     11  C   UNL     1      -6.154  -0.939  -3.456  0.00  0.00    +0.055 A 
ATOM     12  C   UNL     1      -5.423  -0.907  -2.288  0.00  0.00    +0.044 A 
ATOM     13 CL   UNL     1      -7.862  -0.632  -3.421  0.00  0.00    -0.083 Cl
BRANCH  10  14
ATOM     14  C   UNL     1      -6.298  -1.264  -5.921  0.00  0.00    +0.246 C 
ATOM     15  O   UNL     1      -7.495  -1.050  -5.899  0.00  0.00    -0.270 OA
ATOM     16  N   UNL     1      -5.684  -1.538  -7.089  0.00  0.00    -0.308 N 
ATOM     17  H   UNL     1      -4.729  -1.710  -7.106  0.00  0.00    +0.149 HD
BRANCH  16  18
ATOM     18  C   UNL     1      -6.458  -1.579  -8.332  0.00  0.00    +0.073 C 
ATOM     19  C   UNL     1      -6.176  -2.726  -9.303  0.00  0.00    +0.024 C 
ATOM     20  C   UNL     1      -5.710  -1.308  -9.639  0.00  0.00    +0.024 C 
ENDBRANCH  16  18
ENDBRANCH  10  14
ENDBRANCH   4   7
BRANCH   1  22
ATOM     21  C   UNL     1      -0.021   1.523   0.023  0.00  0.00    +0.036 C 
ATOM     22  C   UNL     1       0.003  -0.007   0.002  0.00  0.00    +0.137 C 
BRANCH  22  23
ATOM     23  C   UNL     1       0.736  -0.514   1.218  0.00  0.00    +0.126 A 
ATOM     24  C   UNL     1       2.011  -0.925   1.228  0.00  0.00    +0.055 A 
ATOM     25  C   UNL     1       2.300  -1.327   2.610  0.00  0.00    +0.020 A 
ATOM     26  C   UNL     1       3.422  -1.834   3.264  0.00  0.00    +0.011 A 
ATOM     27  C   UNL     1       3.360  -2.113   4.601  0.00  0.00    +0.001 A 
ATOM     28  C   UNL     1       2.187  -1.896   5.309  0.00  0.00    +0.004 A 
ATOM     29  C   UNL     1       1.067  -1.396   4.680  0.00  0.00    +0.047 A 
ATOM     30  C   UNL     1       1.109  -1.105   3.322  0.00  0.00    +0.135 A 
ATOM     31  O   UNL     1       0.206  -0.614   2.449  0.00  0.00    -0.458 OA
ENDBRANCH  22  23
ENDBRANCH   1  22
TORSDOF 5
