REMARK  Name = ZINC20932991
REMARK  14 active torsions:
REMARK  status: ('A' for Active; 'I' for Inactive)
REMARK    1  A    between atoms: C_1  and  C_2
REMARK    2  A    between atoms: C_2  and  C_3
REMARK    3  A    between atoms: C_3  and  O_4
REMARK    4  A    between atoms: O_4  and  C_5
REMARK    5  A    between atoms: C_6  and  O_29
REMARK    6  A    between atoms: C_8  and  C_12
REMARK    7  A    between atoms: C_12  and  N_13
REMARK    8  A    between atoms: N_13  and  C_14
REMARK    9  A    between atoms: C_14  and  C_15
REMARK   10  A    between atoms: C_15  and  C_16
REMARK   11  A    between atoms: C_16  and  S_17
REMARK   12  A    between atoms: S_17  and  C_18
REMARK   13  A    between atoms: N_22  and  C_23
REMARK   14  A    between atoms: O_29  and  C_30
REMARK                            x       y       z     vdW  Elec       q    Type
REMARK                         _______ _______ _______ _____ _____    ______ ____
ROOT
ATOM      1  N   UNL     1      -0.723   1.572  -1.182  0.00  0.00    +0.382 N 
ATOM      2  H   UNL     1      -1.755   1.192  -1.174  0.00  0.00    -0.085 HD
ATOM      3  H   UNL     1      -0.738   2.672  -1.176  0.00  0.00    -0.085 HD
ENDROOT
BRANCH   1   4
ATOM      4  C   UNL     1      -0.013   1.086   0.008  0.00  0.00    -0.047 C 
BRANCH   4   8
ATOM      5  C   UNL     1      -2.017   2.461   3.527  0.00  0.00    +0.176 A 
ATOM      6  C   UNL     1      -1.009   3.230   2.955  0.00  0.00    +0.163 A 
ATOM      7  C   UNL     1      -0.358   2.779   1.817  0.00  0.00    +0.051 A 
ATOM      8  C   UNL     1      -0.718   1.572   1.248  0.00  0.00    -0.060 A 
ATOM      9  C   UNL     1      -1.719   0.807   1.816  0.00  0.00    +0.021 A 
ATOM     10  C   UNL     1      -2.369   1.249   2.955  0.00  0.00    +0.063 A 
ATOM     11 BR   UNL     1      -3.738   0.199   3.730  0.00  0.00    -0.046 Br
BRANCH   6  12
ATOM     12  O   UNL     1      -0.660   4.420   3.513  0.00  0.00    -0.491 OA
ATOM     13  C   UNL     1       0.383   5.157   2.871  0.00  0.00    +0.277 C 
ENDBRANCH   6  12
BRANCH   5  14
ATOM     14  O   UNL     1      -2.655   2.897   4.647  0.00  0.00    -0.487 OA
BRANCH  14  15
ATOM     15  C   UNL     1      -2.096   2.512   5.904  0.00  0.00    +0.229 C 
BRANCH  15  17
ATOM     16  C   UNL     1      -2.345   2.680   8.384  0.00  0.00    +0.007 C 
ATOM     17  C   UNL     1      -2.944   3.092   7.038  0.00  0.00    +0.038 C 
ENDBRANCH  15  17
ENDBRANCH  14  15
ENDBRANCH   5  14
ENDBRANCH   4   8
ENDBRANCH   1   4
BRANCH   1  18
ATOM     18  C   UNL     1      -0.062   1.117  -2.413  0.00  0.00    -0.081 C 
BRANCH  18  19
ATOM     19  C   UNL     1      -0.829   1.643  -3.628  0.00  0.00    -0.008 C 
BRANCH  19  20
ATOM     20  C   UNL     1      -0.141   1.168  -4.909  0.00  0.00    +0.075 C 
BRANCH  20  21
ATOM     21  S   UNL     1      -1.049   1.790  -6.347  0.00  0.00    -0.084 S 
BRANCH  21  22
ATOM     22  C   UNL     1      -0.067   1.114  -7.644  0.00  0.00    +0.214 A 
ATOM     23  N   UNL     1       1.012   0.373  -7.504  0.00  0.00    -0.101 NA
ATOM     24  N   UNL     1       1.485   0.046  -8.652  0.00  0.00    -0.022 NA
ATOM     25  N   UNL     1       0.760   0.543  -9.595  0.00  0.00    -0.038 NA
ATOM     26  N   UNL     1      -0.283   1.254  -8.976  0.00  0.00    -0.187 N 
BRANCH  26  27
ATOM     27  C   UNL     1      -1.321   1.958  -9.601  0.00  0.00    +0.070 A 
ATOM     28  C   UNL     1      -2.587   1.984  -9.030  0.00  0.00    +0.028 A 
ATOM     29  C   UNL     1      -3.607   2.683  -9.646  0.00  0.00    +0.002 A 
ATOM     30  C   UNL     1      -3.371   3.349 -10.835  0.00  0.00    +0.000 A 
ATOM     31  C   UNL     1      -2.114   3.321 -11.409  0.00  0.00    +0.002 A 
ATOM     32  C   UNL     1      -1.088   2.627 -10.796  0.00  0.00    +0.028 A 
ENDBRANCH  26  27
ENDBRANCH  21  22
ENDBRANCH  20  21
ENDBRANCH  19  20
ENDBRANCH  18  19
ENDBRANCH   1  18
TORSDOF 12
