REMARK  Name = ZINC61699819
REMARK  6 active torsions:
REMARK  status: ('A' for Active; 'I' for Inactive)
REMARK    1  A    between atoms: C_1  and  C_2
REMARK    2  A    between atoms: C_2  and  C_4
REMARK    3  A    between atoms: C_2  and  N_22
REMARK    4  A    between atoms: C_7  and  O_11
REMARK    5  A    between atoms: O_11  and  C_12
REMARK    6  A    between atoms: C_17  and  N_18
REMARK                            x       y       z     vdW  Elec       q    Type
REMARK                         _______ _______ _______ _____ _____    ______ ____
ROOT
ATOM      1  C   UNL     1      -1.405  -0.542   0.061  0.00  0.00    -0.061 A 
ATOM      2  C   UNL     1      -2.135  -0.539  -1.114  0.00  0.00    +0.005 A 
ATOM      3  C   UNL     1      -3.434  -1.011  -1.123  0.00  0.00    +0.047 A 
ATOM      4  C   UNL     1      -4.006  -1.489   0.047  0.00  0.00    +0.142 A 
ATOM      5  C   UNL     1      -3.271  -1.492   1.225  0.00  0.00    +0.060 A 
ATOM      6  C   UNL     1      -1.971  -1.023   1.228  0.00  0.00    +0.021 A 
ATOM      7 BR   UNL     1      -4.046  -2.142   2.822  0.00  0.00    -0.046 Br
ENDROOT
BRANCH   1   9
ATOM      8  C   UNL     1      -0.004   1.502   0.132  0.00  0.00    -0.009 C 
ATOM      9  C   UNL     1       0.011  -0.027   0.068  0.00  0.00    -0.047 C 
BRANCH   9  10
ATOM     10  N   UNL     1       0.695  -0.460  -1.158  0.00  0.00    +0.382 N 
ATOM     11  H   UNL     1       1.643  -0.114  -1.153  0.00  0.00    -0.089 HD
ATOM     12  H   UNL     1       0.704  -1.468  -1.200  0.00  0.00    -0.089 HD
ATOM     13  H   UNL     1       0.208  -0.094  -1.962  0.00  0.00    -0.089 HD
ENDBRANCH   9  10
ENDBRANCH   1   9
BRANCH   4  14
ATOM     14  O   UNL     1      -5.283  -1.954   0.040  0.00  0.00    -0.453 OA
BRANCH  14  15
ATOM     15  C   UNL     1      -6.268  -1.117   0.460  0.00  0.00    +0.160 A 
ATOM     16  C   UNL     1      -5.975   0.205   0.763  0.00  0.00    +0.068 A 
ATOM     17  C   UNL     1      -6.979   1.054   1.189  0.00  0.00    +0.045 A 
ATOM     18  C   UNL     1      -8.276   0.586   1.313  0.00  0.00    +0.022 A 
ATOM     19  C   UNL     1      -8.569  -0.731   1.011  0.00  0.00    +0.038 A 
ATOM     20  C   UNL     1      -7.570  -1.581   0.579  0.00  0.00    +0.168 A 
ATOM     21 CL   UNL     1      -6.614   2.708   1.569  0.00  0.00    -0.083 Cl
BRANCH  20  22
ATOM     22  N   UNL     1      -7.887  -2.990   0.251  0.00  0.00    +0.060 N 
ATOM     23  O   UNL     1      -9.021  -3.394   0.355  0.00  0.00    -0.126 OA
ATOM     24  O   UNL     1      -7.011  -3.735  -0.123  0.00  0.00    -0.126 OA
ENDBRANCH  20  22
ENDBRANCH  14  15
ENDBRANCH   4  14
TORSDOF 5
