REMARK  Name = ZINC12863119
REMARK  9 active torsions:
REMARK  status: ('A' for Active; 'I' for Inactive)
REMARK    1  A    between atoms: C_1  and  C_2
REMARK    2  A    between atoms: C_2  and  C_4
REMARK    3  A    between atoms: C_2  and  N_12
REMARK    4  A    between atoms: C_4  and  C_5
REMARK    5  A    between atoms: C_5  and  C_6
REMARK    6  A    between atoms: C_13  and  C_15
REMARK    7  A    between atoms: C_15  and  C_17
REMARK    8  A    between atoms: C_15  and  N_18
REMARK    9  A    between atoms: C_21  and  C_37
REMARK                            x       y       z     vdW  Elec       q    Type
REMARK                         _______ _______ _______ _____ _____    ______ ____
ROOT
ATOM      1  N   UNL     1       2.449  -5.562  -0.907  0.00  0.00    -0.212 N 
ATOM      2  C   UNL     1       3.146  -6.652  -0.516  0.00  0.00    +0.253 C 
ATOM      3  O   UNL     1       4.059  -6.693   0.279  0.00  0.00    -0.272 OA
ATOM      4  C   UNL     1       2.544  -7.809  -1.278  0.00  0.00    +0.153 C 
ATOM      5  C   UNL     1       3.577  -8.542  -2.100  0.00  0.00    +0.053 A 
ATOM      6  C   UNL     1       3.454  -8.735  -3.433  0.00  0.00    -0.015 A 
ATOM      7  C   UNL     1       4.625  -9.485  -3.851  0.00  0.00    +0.003 A 
ATOM      8  C   UNL     1       5.037  -9.973  -5.095  0.00  0.00    +0.010 A 
ATOM      9  C   UNL     1       6.228 -10.657  -5.129  0.00  0.00    +0.001 A 
ATOM     10  C   UNL     1       6.993 -10.858  -3.992  0.00  0.00    +0.002 A 
ATOM     11  C   UNL     1       6.609 -10.385  -2.749  0.00  0.00    +0.026 A 
ATOM     12  C   UNL     1       5.404  -9.688  -2.685  0.00  0.00    +0.047 A 
ATOM     13  N   UNL     1       4.741  -9.101  -1.647  0.00  0.00    -0.356 N 
ATOM     14  H   UNL     1       5.048  -9.081  -0.727  0.00  0.00    +0.166 HD
ATOM     15  C   UNL     1       2.328  -8.243  -4.307  0.00  0.00    +0.056 C 
ATOM     16  C   UNL     1       1.143  -7.806  -3.450  0.00  0.00    +0.115 C 
ATOM     17  N   UNL     1       1.665  -7.131  -2.260  0.00  0.00    -0.266 N 
ATOM     18  C   UNL     1       1.561  -5.861  -1.868  0.00  0.00    +0.313 C 
ATOM     19  O   UNL     1       0.759  -5.070  -2.326  0.00  0.00    -0.252 OA
ATOM     20  C   UNL     1       1.764  -8.758  -0.365  0.00  0.00    +0.048 C 
ENDROOT
BRANCH   1  21
ATOM     21  C   UNL     1       2.644  -4.219  -0.354  0.00  0.00    +0.168 C 
ATOM     22  C   UNL     1       3.063  -3.263  -1.473  0.00  0.00    +0.038 C 
BRANCH  21  24
ATOM     23  N   UNL     1       1.296  -2.520   0.835  0.00  0.00    -0.311 N 
ATOM     24  C   UNL     1       1.355  -3.738   0.261  0.00  0.00    +0.234 C 
ATOM     25  O   UNL     1       0.371  -4.447   0.240  0.00  0.00    -0.274 OA
ATOM     26  H   UNL     1       2.083  -1.953   0.852  0.00  0.00    +0.149 HD
BRANCH  23  28
ATOM     27  C   UNL     1      -0.062  -2.571   2.869  0.00  0.00    +0.028 C 
ATOM     28  C   UNL     1       0.043  -2.052   1.433  0.00  0.00    +0.070 C 
BRANCH  28  29
ATOM     29  C   UNL     1       0.023  -0.522   1.442  0.00  0.00    +0.026 C 
BRANCH  29  30
ATOM     30  C   UNL     1       0.002  -0.004   0.002  0.00  0.00    +0.037 C 
BRANCH  30  31
ATOM     31  C   UNL     1      -0.018   1.503   0.010  0.00  0.00    -0.047 A 
ATOM     32  C   UNL     1      -1.225   2.178   0.020  0.00  0.00    +0.003 A 
ATOM     33  C   UNL     1      -1.244   3.560   0.032  0.00  0.00    +0.000 A 
ATOM     34  C   UNL     1      -0.056   4.267   0.025  0.00  0.00    +0.000 A 
ATOM     35  C   UNL     1       1.151   3.592   0.010  0.00  0.00    +0.000 A 
ATOM     36  C   UNL     1       1.169   2.210   0.003  0.00  0.00    +0.003 A 
ENDBRANCH  30  31
ENDBRANCH  29  30
ENDBRANCH  28  29
ENDBRANCH  23  28
ENDBRANCH  21  24
ENDBRANCH   1  21
TORSDOF 6
