REMARK  Name = ZINC00926878
REMARK  18 active torsions:
REMARK  status: ('A' for Active; 'I' for Inactive)
REMARK    1  A    between atoms: C_1  and  C_2
REMARK    2  A    between atoms: C_2  and  O_3
REMARK    3  A    between atoms: O_3  and  C_4
REMARK    4  A    between atoms: C_4  and  C_6
REMARK    5  A    between atoms: C_6  and  N_7
REMARK    6  A    between atoms: C_8  and  C_12
REMARK    7  A    between atoms: C_12  and  N_13
REMARK    8  A    between atoms: N_13  and  C_14
REMARK    9  A    between atoms: N_13  and  C_26
REMARK   10  A    between atoms: C_14  and  C_15
REMARK   11  A    between atoms: C_15  and  C_16
REMARK   12  A    between atoms: C_19  and  O_24
REMARK   13  A    between atoms: C_20  and  O_22
REMARK   14  A    between atoms: O_22  and  C_23
REMARK   15  A    between atoms: O_24  and  C_25
REMARK   16  A    between atoms: C_26  and  C_27
REMARK   17  A    between atoms: C_31  and  C_40
REMARK   18  A    between atoms: C_33  and  C_39
REMARK                            x       y       z     vdW  Elec       q    Type
REMARK                         _______ _______ _______ _____ _____    ______ ____
ROOT
ATOM      1  N   UNL     1      -1.040  -4.017  -2.995  0.00  0.00    +0.387 N 
ATOM      2  H   UNL     1      -0.372  -4.771  -2.951  0.00  0.00    -0.081 HD
ENDROOT
BRANCH   1   3
ATOM      3  C   UNL     1      -2.311  -4.454  -2.402  0.00  0.00    +0.001 C 
BRANCH   3   5
ATOM      4  N   UNL     1      -2.515  -6.970  -2.769  0.00  0.00    -0.220 N 
ATOM      5  C   UNL     1      -2.792  -5.697  -3.106  0.00  0.00    +0.136 A 
ATOM      6  N   UNL     1      -3.562  -5.748  -4.166  0.00  0.00    -0.115 NA
ATOM      7  N   UNL     1      -3.748  -6.988  -4.463  0.00  0.00    -0.023 NA
ATOM      8  N   UNL     1      -3.112  -7.729  -3.624  0.00  0.00    -0.043 NA
BRANCH   4   9
ATOM      9  C   UNL     1      -1.685  -7.411  -1.645  0.00  0.00    +0.267 C 
BRANCH   9  10
ATOM     10  C   UNL     1      -0.281  -7.667  -2.127  0.00  0.00    +0.329 C 
ATOM     11  O   UNL     1      -0.022  -7.587  -3.304  0.00  0.00    -0.249 OA
BRANCH  10  12
ATOM     12  O   UNL     1       0.683  -7.983  -1.248  0.00  0.00    -0.464 OA
BRANCH  12  14
ATOM     13  C   UNL     1       2.949  -8.558  -0.632  0.00  0.00    +0.048 C 
ATOM     14  C   UNL     1       1.992  -8.212  -1.775  0.00  0.00    +0.229 C 
ENDBRANCH  12  14
ENDBRANCH  10  12
ENDBRANCH   9  10
ENDBRANCH   4   9
ENDBRANCH   3   5
ENDBRANCH   1   3
BRANCH   1  15
ATOM     15  C   UNL     1      -1.259  -3.637  -4.397  0.00  0.00    -0.073 C 
BRANCH  15  16
ATOM     16  C   UNL     1       0.083  -3.300  -5.050  0.00  0.00    +0.017 C 
BRANCH  16  17
ATOM     17  C   UNL     1      -0.141  -2.911  -6.488  0.00  0.00    -0.045 A 
ATOM     18  C   UNL     1      -0.123  -3.878  -7.475  0.00  0.00    +0.007 A 
ATOM     19  C   UNL     1      -0.328  -3.526  -8.796  0.00  0.00    +0.049 A 
ATOM     20  C   UNL     1      -0.553  -2.200  -9.133  0.00  0.00    +0.161 A 
ATOM     21  C   UNL     1      -0.572  -1.227  -8.139  0.00  0.00    +0.162 A 
ATOM     22  C   UNL     1      -0.370  -1.587  -6.816  0.00  0.00    +0.053 A 
BRANCH  21  23
ATOM     23  O   UNL     1      -0.792   0.075  -8.464  0.00  0.00    -0.491 OA
ATOM     24  C   UNL     1      -0.798   1.020  -7.392  0.00  0.00    +0.277 C 
ENDBRANCH  21  23
BRANCH  20  25
ATOM     25  O   UNL     1      -0.754  -1.852 -10.432  0.00  0.00    -0.491 OA
ATOM     26  C   UNL     1      -0.721  -2.904 -11.399  0.00  0.00    +0.277 C 
ENDBRANCH  20  25
ENDBRANCH  16  17
ENDBRANCH  15  16
ENDBRANCH   1  15
BRANCH   1  27
ATOM     27  C   UNL     1      -0.525  -2.861  -2.249  0.00  0.00    -0.037 C 
BRANCH  27  28
ATOM     28  C   UNL     1      -0.184  -3.282  -0.843  0.00  0.00    +0.001 A 
ATOM     29  C   UNL     1       1.083  -3.660  -0.540  0.00  0.00    +0.017 A 
ATOM     30  C   UNL     1       1.382  -4.063   0.836  0.00  0.00    -0.001 A 
ATOM     31  C   UNL     1       2.669  -4.462   1.209  0.00  0.00    +0.013 A 
ATOM     32  C   UNL     1       2.916  -4.832   2.501  0.00  0.00    -0.050 A 
ATOM     33  C   UNL     1       1.899  -4.815   3.447  0.00  0.00    +0.008 A 
ATOM     34  C   UNL     1       0.624  -4.426   3.101  0.00  0.00    -0.026 A 
ATOM     35  C   UNL     1       0.349  -4.044   1.792  0.00  0.00    +0.052 A 
ATOM     36  N   UNL     1      -0.918  -3.649   1.419  0.00  0.00    -0.322 N 
ATOM     37  H   UNL     1      -1.629  -3.637   2.079  0.00  0.00    +0.169 HD
ATOM     38  C   UNL     1      -1.182  -3.276   0.155  0.00  0.00    +0.251 A 
ATOM     39  O   UNL     1      -2.313  -2.928  -0.139  0.00  0.00    -0.268 OA
ATOM     40  C   UNL     1      -0.470  -4.413   4.138  0.00  0.00    +0.046 C 
ATOM     41  C   UNL     1       4.303  -5.262   2.903  0.00  0.00    +0.044 C 
ENDBRANCH  27  28
ENDBRANCH   1  27
TORSDOF 13
