REMARK  Name = ZINC15768548
REMARK  12 active torsions:
REMARK  status: ('A' for Active; 'I' for Inactive)
REMARK    1  A    between atoms: C_1  and  C_2
REMARK    2  A    between atoms: C_4  and  C_35
REMARK    3  A    between atoms: C_5  and  N_9
REMARK    4  A    between atoms: C_6  and  C_8
REMARK    5  A    between atoms: C_10  and  C_12
REMARK    6  A    between atoms: C_12  and  N_13
REMARK    7  A    between atoms: N_13  and  C_14
REMARK    8  A    between atoms: C_15  and  C_17
REMARK    9  A    between atoms: C_17  and  C_18
REMARK   10  A    between atoms: C_18  and  S_19
REMARK   11  A    between atoms: S_19  and  C_20
REMARK   12  A    between atoms: C_20  and  C_21
REMARK                            x       y       z     vdW  Elec       q    Type
REMARK                         _______ _______ _______ _____ _____    ______ ____
ROOT
ATOM      1  N   UNL     1      -4.640   5.512 -12.883  0.00  0.00    -0.296 N 
ATOM      2  C   UNL     1      -5.768   6.386 -13.213  0.00  0.00    +0.132 C 
ATOM      3  C   UNL     1      -4.546   4.967 -11.654  0.00  0.00    +0.217 C 
ATOM      4  O   UNL     1      -3.612   4.243 -11.381  0.00  0.00    -0.276 OA
ENDROOT
BRANCH   1   5
ATOM      5  C   UNL     1      -3.613   5.230 -13.890  0.00  0.00    +0.203 C 
BRANCH   5   7
ATOM      6  N   UNL     1      -3.205   3.556 -15.665  0.00  0.00    -0.284 N 
ATOM      7  C   UNL     1      -4.005   4.006 -14.678  0.00  0.00    +0.235 C 
ATOM      8  O   UNL     1      -5.040   3.427 -14.423  0.00  0.00    -0.274 OA
ATOM      9  H   UNL     1      -2.405   4.049 -15.903  0.00  0.00    +0.155 HD
BRANCH   6  14
ATOM     10  C   UNL     1      -4.521  -1.223 -18.425  0.00  0.00    +0.044 C 
ATOM     11  C   UNL     1      -4.171   0.047 -17.692  0.00  0.00    -0.050 A 
ATOM     12  C   UNL     1      -3.905   1.203 -18.402  0.00  0.00    +0.008 A 
ATOM     13  C   UNL     1      -3.585   2.368 -17.733  0.00  0.00    -0.029 A 
ATOM     14  C   UNL     1      -3.530   2.377 -16.345  0.00  0.00    +0.039 A 
ATOM     15  C   UNL     1      -3.793   1.214 -15.635  0.00  0.00    -0.029 A 
ATOM     16  C   UNL     1      -4.118   0.053 -16.310  0.00  0.00    +0.008 A 
ATOM     17  C   UNL     1      -3.729   1.218 -14.129  0.00  0.00    +0.045 C 
ATOM     18  C   UNL     1      -3.295   3.627 -18.508  0.00  0.00    +0.045 C 
ENDBRANCH   6  14
ENDBRANCH   5   7
ENDBRANCH   1   5
BRANCH   3  19
ATOM     19  C   UNL     1      -5.602   5.257 -10.619  0.00  0.00    +0.106 C 
BRANCH  19  20
ATOM     20  C   UNL     1      -5.260   4.522  -9.322  0.00  0.00    +0.079 C 
BRANCH  20  21
ATOM     21  S   UNL     1      -6.532   4.871  -8.075  0.00  0.00    -0.153 S 
BRANCH  21  22
ATOM     22  C   UNL     1      -5.986   3.938  -6.619  0.00  0.00    +0.143 C 
BRANCH  22  23
ATOM     23  C   UNL     1      -6.967   4.144  -5.494  0.00  0.00    +0.121 A 
ATOM     24  N   UNL     1      -6.752   3.532  -4.301  0.00  0.00    -0.310 N 
ATOM     25  H   UNL     1      -5.968   2.971  -4.189  0.00  0.00    +0.170 HD
ATOM     26  C   UNL     1      -7.603   3.688  -3.269  0.00  0.00    +0.260 A 
ATOM     27  O   UNL     1      -7.397   3.133  -2.204  0.00  0.00    -0.267 OA
ATOM     28  C   UNL     1      -8.757   4.519  -3.448  0.00  0.00    +0.075 A 
ATOM     29  C   UNL     1      -9.811   4.829  -2.471  0.00  0.00    -0.023 A 
ATOM     30  C   UNL     1     -10.799   5.643  -2.881  0.00  0.00    -0.004 A 
ATOM     31  S   UNL     1     -10.397   6.041  -4.567  0.00  0.00    -0.073 S 
ATOM     32  C   UNL     1      -8.895   5.108  -4.712  0.00  0.00    +0.116 A 
ATOM     33  N   UNL     1      -8.010   4.907  -5.685  0.00  0.00    -0.226 NA
ATOM     34  C   UNL     1     -11.816   5.892  -1.800  0.00  0.00    +0.043 C 
ATOM     35  C   UNL     1     -11.107   5.465  -0.494  0.00  0.00    +0.010 C 
ATOM     36  C   UNL     1     -10.086   4.435  -1.017  0.00  0.00    +0.037 C 
ENDBRANCH  22  23
ENDBRANCH  21  22
ENDBRANCH  20  21
ENDBRANCH  19  20
ENDBRANCH   3  19
TORSDOF 8
