REMARK  Name = ZINC54407226
REMARK  11 active torsions:
REMARK  status: ('A' for Active; 'I' for Inactive)
REMARK    1  A    between atoms: C_1  and  C_2
REMARK    2  A    between atoms: C_3  and  C_26
REMARK    3  A    between atoms: C_7  and  N_8
REMARK    4  A    between atoms: N_11  and  C_12
REMARK    5  A    between atoms: C_12  and  C_13
REMARK    6  A    between atoms: C_13  and  C_14
REMARK    7  A    between atoms: C_13  and  C_15
REMARK    8  A    between atoms: C_13  and  N_16
REMARK    9  A    between atoms: C_18  and  C_25
REMARK   10  A    between atoms: C_21  and  C_24
REMARK   11  A    between atoms: N_28  and  C_29
REMARK                            x       y       z     vdW  Elec       q    Type
REMARK                         _______ _______ _______ _____ _____    ______ ____
ROOT
ATOM      1  N   UNL     1      -1.672  -3.366   5.258  0.00  0.00    -0.269 N 
ATOM      2  C   UNL     1      -0.888  -2.369   4.804  0.00  0.00    +0.304 C 
ATOM      3  O   UNL     1      -0.215  -2.532   3.804  0.00  0.00    -0.253 OA
ATOM      4  N   UNL     1      -0.849  -1.191   5.457  0.00  0.00    -0.300 N 
ATOM      5  H   UNL     1      -2.155  -3.261   6.093  0.00  0.00    +0.156 HD
ATOM      6  H   UNL     1      -1.386  -1.061   6.255  0.00  0.00    +0.150 HD
ENDROOT
BRANCH   1  13
ATOM      7  C   UNL     1      -2.458  -5.723   6.641  0.00  0.00    +0.046 C 
ATOM      8  C   UNL     1      -2.170  -5.725   5.162  0.00  0.00    -0.017 A 
ATOM      9  C   UNL     1      -2.292  -6.904   4.426  0.00  0.00    +0.041 A 
ATOM     10  C   UNL     1      -2.023  -6.898   3.057  0.00  0.00    +0.013 A 
ATOM     11  C   UNL     1      -1.639  -5.727   2.434  0.00  0.00    +0.003 A 
ATOM     12  C   UNL     1      -1.519  -4.559   3.163  0.00  0.00    +0.023 A 
ATOM     13  C   UNL     1      -1.789  -4.553   4.526  0.00  0.00    +0.038 A 
BRANCH   9  14
ATOM     14  C   UNL     1      -2.703  -8.157   5.096  0.00  0.00    +0.244 C 
ATOM     15  O   UNL     1      -3.049  -8.138   6.261  0.00  0.00    -0.270 OA
ATOM     16  N   UNL     1      -2.693  -9.319   4.414  0.00  0.00    -0.314 N 
ATOM     17  C   UNL     1      -3.101 -10.560   5.078  0.00  0.00    +0.128 C 
ATOM     18  H   UNL     1      -2.417  -9.334   3.485  0.00  0.00    +0.149 HD
ENDBRANCH   9  14
ENDBRANCH   1  13
BRANCH   4  19
ATOM     19  C   UNL     1       0.003  -0.107   4.963  0.00  0.00    +0.093 C 
BRANCH  19  20
ATOM     20  C   UNL     1      -0.043   1.066   5.944  0.00  0.00    -0.055 C 
ATOM     21  C   UNL     1       0.487   0.614   7.306  0.00  0.00    -0.008 C 
ATOM     22  C   UNL     1       0.824   2.210   5.414  0.00  0.00    -0.008 C 
BRANCH  20  23
ATOM     23  N   UNL     1      -1.430   1.530   6.088  0.00  0.00    +0.384 N 
ATOM     24  C   UNL     1      -1.964   1.889   4.769  0.00  0.00    -0.075 C 
ATOM     25  C   UNL     1      -3.433   2.295   4.902  0.00  0.00    -0.031 C 
ATOM     26  C   UNL     1      -3.541   3.498   5.844  0.00  0.00    +0.003 C 
ATOM     27  C   UNL     1      -2.915   3.136   7.193  0.00  0.00    -0.031 C 
ATOM     28  C   UNL     1      -1.464   2.699   6.975  0.00  0.00    -0.075 C 
ATOM     29  C   UNL     1      -3.704   1.991   7.832  0.00  0.00    +0.005 C 
ATOM     30  C   UNL     1      -3.986   2.671   3.526  0.00  0.00    +0.005 C 
ATOM     31  H   UNL     1      -1.991   0.791   6.486  0.00  0.00    -0.081 HD
ENDBRANCH  20  23
ENDBRANCH  19  20
ENDBRANCH   4  19
TORSDOF 5
