REMARK  Name = ZINC00863690
REMARK  9 active torsions:
REMARK  status: ('A' for Active; 'I' for Inactive)
REMARK    1  A    between atoms: C_1  and  C_2
REMARK    2  A    between atoms: C_5  and  N_31
REMARK    3  A    between atoms: C_7  and  N_8
REMARK    4  A    between atoms: C_9  and  C_11
REMARK    5  A    between atoms: C_11  and  S_12
REMARK    6  A    between atoms: S_12  and  C_13
REMARK    7  A    between atoms: C_16  and  C_24
REMARK    8  A    between atoms: N_17  and  C_18
REMARK    9  A    between atoms: C_27  and  O_30
REMARK                            x       y       z     vdW  Elec       q    Type
REMARK                         _______ _______ _______ _____ _____    ______ ____
ROOT
ATOM      1  C   UNL     1      -4.951   0.631   0.061  0.00  0.00    +0.197 A 
ATOM      2  N   UNL     1      -4.408  -0.558   0.193  0.00  0.00    -0.122 NA
ATOM      3  N   UNL     1      -3.128  -0.470   0.123  0.00  0.00    -0.128 NA
ATOM      4  C   UNL     1      -2.772   0.780  -0.058  0.00  0.00    +0.169 A 
ATOM      5  N   UNL     1      -3.929   1.528  -0.097  0.00  0.00    -0.270 N 
ENDROOT
BRANCH   5   6
ATOM      6  C   UNL     1      -4.036   2.915  -0.268  0.00  0.00    +0.051 A 
ATOM      7  C   UNL     1      -3.594   3.774   0.729  0.00  0.00    +0.026 A 
ATOM      8  C   UNL     1      -3.695   5.141   0.555  0.00  0.00    +0.002 A 
ATOM      9  C   UNL     1      -4.248   5.653  -0.604  0.00  0.00    +0.000 A 
ATOM     10  C   UNL     1      -4.695   4.799  -1.596  0.00  0.00    +0.002 A 
ATOM     11  C   UNL     1      -4.591   3.432  -1.431  0.00  0.00    +0.026 A 
ENDBRANCH   5   6
BRANCH   4  12
ATOM     12  C   UNL     1      -1.391   1.291  -0.188  0.00  0.00    +0.020 A 
ATOM     13  C   UNL     1      -1.160   2.553  -0.738  0.00  0.00    +0.015 A 
ATOM     14  C   UNL     1       0.129   3.028  -0.852  0.00  0.00    +0.046 A 
ATOM     15  C   UNL     1       1.198   2.250  -0.426  0.00  0.00    +0.117 A 
ATOM     16  C   UNL     1       0.973   0.992   0.117  0.00  0.00    +0.046 A 
ATOM     17  C   UNL     1      -0.313   0.510   0.235  0.00  0.00    +0.015 A 
BRANCH  15  18
ATOM     18  O   UNL     1       2.467   2.722  -0.539  0.00  0.00    -0.507 OA
ATOM     19  H   UNL     1       2.773   3.216   0.233  0.00  0.00    +0.292 HD
ENDBRANCH  15  18
ENDBRANCH   4  12
BRANCH   1  20
ATOM     20  S   UNL     1      -6.673   1.004   0.089  0.00  0.00    -0.076 S 
BRANCH  20  21
ATOM     21  C   UNL     1      -7.349  -0.657   0.339  0.00  0.00    +0.173 C 
BRANCH  21  23
ATOM     22  N   UNL     1      -9.577  -1.705   0.577  0.00  0.00    -0.285 N 
ATOM     23  C   UNL     1      -8.853  -0.583   0.397  0.00  0.00    +0.227 C 
ATOM     24  O   UNL     1      -9.413   0.487   0.281  0.00  0.00    -0.275 OA
ATOM     25  H   UNL     1      -9.129  -2.551   0.738  0.00  0.00    +0.155 HD
BRANCH  22  32
ATOM     26  C   UNL     1     -10.976  -3.955  -0.462  0.00  0.00    +0.045 C 
ATOM     27  C   UNL     1     -11.696  -2.728   0.034  0.00  0.00    -0.029 A 
ATOM     28  C   UNL     1     -13.076  -2.672  -0.007  0.00  0.00    +0.007 A 
ATOM     29  C   UNL     1     -13.738  -1.547   0.448  0.00  0.00    +0.033 A 
ATOM     30  C   UNL     1     -13.021  -0.473   0.945  0.00  0.00    +0.128 A 
ATOM     31  C   UNL     1     -11.642  -0.525   0.994  0.00  0.00    +0.056 A 
ATOM     32  C   UNL     1     -10.974  -1.652   0.533  0.00  0.00    +0.038 A 
BRANCH  30  33
ATOM     33  N   UNL     1     -13.734   0.729   1.432  0.00  0.00    +0.056 N 
ATOM     34  O   UNL     1     -14.951   0.773   1.394  0.00  0.00    -0.126 OA
ATOM     35  O   UNL     1     -13.104   1.675   1.870  0.00  0.00    -0.126 OA
ENDBRANCH  30  33
ENDBRANCH  22  32
ENDBRANCH  21  23
ENDBRANCH  20  21
ENDBRANCH   1  20
TORSDOF 8
