REMARK  Name = ZINC06046306
REMARK  5 active torsions:
REMARK  status: ('A' for Active; 'I' for Inactive)
REMARK    1  A    between atoms: C_1  and  C_2
REMARK    2  A    between atoms: C_6  and  C_8
REMARK    3  A    between atoms: C_10  and  C_17
REMARK    4  A    between atoms: C_11  and  C_16
REMARK    5  A    between atoms: C_17  and  C_19
REMARK                            x       y       z     vdW  Elec       q    Type
REMARK                         _______ _______ _______ _____ _____    ______ ____
ROOT
ATOM      1  C   UNL     1       0.113  -2.632   1.899  0.00  0.00    +0.140 C 
ATOM      2  C   UNL     1      -1.041  -3.215   2.689  0.00  0.00    +0.041 C 
ATOM      3  C   UNL     1      -0.957  -4.512   3.062  0.00  0.00    +0.018 C 
ATOM      4  N   UNL     1       0.132  -5.268   2.736  0.00  0.00    -0.273 N 
ATOM      5  C   UNL     1       1.177  -4.804   2.041  0.00  0.00    +0.304 C 
ATOM      6  O   UNL     1       2.102  -5.556   1.799  0.00  0.00    -0.252 OA
ATOM      7  N   UNL     1       1.238  -3.533   1.600  0.00  0.00    -0.288 N 
ATOM      8  C   UNL     1      -2.082  -5.132   3.850  0.00  0.00    +0.061 C 
ATOM      9  H   UNL     1       0.149  -6.194   3.026  0.00  0.00    +0.156 HD
ATOM     10  H   UNL     1       2.006  -3.219   1.097  0.00  0.00    +0.151 HD
ENDROOT
BRANCH   1  16
ATOM     11  C   UNL     1      -1.520   1.162  -0.927  0.00  0.00    +0.044 C 
ATOM     12  C   UNL     1      -1.214  -0.304  -0.761  0.00  0.00    -0.050 A 
ATOM     13  C   UNL     1      -1.433  -1.179  -1.809  0.00  0.00    +0.003 A 
ATOM     14  C   UNL     1      -1.153  -2.524  -1.657  0.00  0.00    +0.001 A 
ATOM     15  C   UNL     1      -0.652  -2.994  -0.456  0.00  0.00    +0.006 A 
ATOM     16  C   UNL     1      -0.432  -2.119   0.591  0.00  0.00    -0.022 A 
ATOM     17  C   UNL     1      -0.709  -0.773   0.437  0.00  0.00    +0.009 A 
ENDBRANCH   1  16
BRANCH   2  18
ATOM     18  C   UNL     1      -2.169  -2.429   3.026  0.00  0.00    +0.193 C 
ATOM     19  O   UNL     1      -3.258  -2.689   2.547  0.00  0.00    -0.287 OA
BRANCH  18  20
ATOM     20  C   UNL     1      -2.024  -1.290   3.960  0.00  0.00    +0.022 A 
ATOM     21  C   UNL     1      -0.799  -1.047   4.584  0.00  0.00    +0.013 A 
ATOM     22  C   UNL     1      -0.671   0.015   5.454  0.00  0.00    +0.021 A 
ATOM     23  C   UNL     1      -1.754   0.840   5.709  0.00  0.00    +0.041 A 
ATOM     24  C   UNL     1      -2.972   0.603   5.093  0.00  0.00    +0.021 A 
ATOM     25  C   UNL     1      -3.111  -0.453   4.217  0.00  0.00    +0.013 A 
ATOM     26 CL   UNL     1      -1.585   2.175   6.806  0.00  0.00    -0.084 Cl
ENDBRANCH  18  20
ENDBRANCH   2  18
TORSDOF 3
