REMARK  Name = ZINC43742760
REMARK  8 active torsions:
REMARK  status: ('A' for Active; 'I' for Inactive)
REMARK    1  A    between atoms: C_1  and  C_2
REMARK    2  A    between atoms: N_18  and  C_21
REMARK    3  A    between atoms: C_24  and  C_27
REMARK    4  A    between atoms: N_29  and  C_30
REMARK    5  A    between atoms: C_32  and  C_38
REMARK    6  A    between atoms: C_32  and  C_39
REMARK    7  A    between atoms: C_34  and  C_36
REMARK    8  A    between atoms: C_34  and  C_37
REMARK                            x       y       z     vdW  Elec       q    Type
REMARK                         _______ _______ _______ _____ _____    ______ ____
ROOT
ATOM      1  C   UNL     1       3.779  -0.995  -1.488  0.00  0.00    +0.046 A 
ATOM      2  C   UNL     1       3.501  -1.215  -2.833  0.00  0.00    +0.025 A 
ATOM      3  C   UNL     1       4.352  -1.983  -3.597  0.00  0.00    +0.015 A 
ATOM      4  C   UNL     1       5.495  -2.542  -3.018  0.00  0.00    +0.037 A 
ATOM      5  C   UNL     1       5.770  -2.318  -1.667  0.00  0.00    +0.015 A 
ATOM      6  C   UNL     1       4.918  -1.545  -0.911  0.00  0.00    +0.025 A 
ENDROOT
BRANCH   1  24
ATOM      7  C   UNL     1       1.482   2.730  -0.194  0.00  0.00    +0.048 C 
ATOM      8  C   UNL     1       1.275   1.221  -0.044  0.00  0.00    +0.153 C 
ATOM      9  C   UNL     1      -0.172   0.873   0.208  0.00  0.00    +0.053 A 
ATOM     10  C   UNL     1      -0.626   0.436   1.405  0.00  0.00    -0.015 A 
ATOM     11  C   UNL     1      -2.055   0.228   1.254  0.00  0.00    +0.003 A 
ATOM     12  C   UNL     1      -3.044  -0.203   2.144  0.00  0.00    +0.010 A 
ATOM     13  C   UNL     1      -4.324  -0.289   1.653  0.00  0.00    +0.001 A 
ATOM     14  C   UNL     1      -4.632   0.032   0.341  0.00  0.00    +0.002 A 
ATOM     15  C   UNL     1      -3.674   0.462  -0.559  0.00  0.00    +0.026 A 
ATOM     16  C   UNL     1      -2.365   0.560  -0.089  0.00  0.00    +0.047 A 
ATOM     17  N   UNL     1      -1.202   0.944  -0.691  0.00  0.00    -0.356 N 
ATOM     18  H   UNL     1      -1.118   1.224  -1.615  0.00  0.00    +0.166 HD
ATOM     19  C   UNL     1       0.203   0.194   2.640  0.00  0.00    +0.056 C 
ATOM     20  C   UNL     1       1.583   0.853   2.495  0.00  0.00    +0.115 C 
ATOM     21  N   UNL     1       2.021   0.666   1.110  0.00  0.00    -0.265 N 
ATOM     22  C   UNL     1       3.037  -0.036   0.609  0.00  0.00    +0.317 C 
ATOM     23  O   UNL     1       3.962  -0.463   1.270  0.00  0.00    -0.252 OA
ATOM     24  N   UNL     1       2.913  -0.215  -0.717  0.00  0.00    -0.192 N 
ATOM     25  C   UNL     1       1.848   0.453  -1.211  0.00  0.00    +0.257 C 
ATOM     26  O   UNL     1       1.438   0.440  -2.352  0.00  0.00    -0.272 OA
ENDBRANCH   1  24
BRANCH   4  27
ATOM     27  C   UNL     1       6.409  -3.366  -3.834  0.00  0.00    +0.244 C 
ATOM     28  O   UNL     1       6.168  -3.559  -5.009  0.00  0.00    -0.270 OA
ATOM     29  N   UNL     1       7.511  -3.904  -3.274  0.00  0.00    -0.309 N 
ATOM     30  H   UNL     1       7.703  -3.749  -2.336  0.00  0.00    +0.149 HD
BRANCH  29  31
ATOM     31  C   UNL     1       8.420  -4.724  -4.085  0.00  0.00    +0.071 C 
ATOM     32  C   UNL     1       7.930  -6.173  -4.079  0.00  0.00    +0.009 C 
ATOM     33  C   UNL     1       8.874  -7.042  -4.909  0.00  0.00    -0.072 C 
ATOM     34  N   UNL     1      10.257  -6.919  -4.475  0.00  0.00    +0.386 N 
ATOM     35  C   UNL     1      10.777  -5.580  -4.247  0.00  0.00    -0.072 C 
ATOM     36  C   UNL     1       9.818  -4.687  -3.467  0.00  0.00    +0.009 C 
ATOM     37  C   UNL     1      11.178  -4.898  -5.557  0.00  0.00    -0.010 C 
ATOM     38  C   UNL     1      12.064  -5.721  -3.399  0.00  0.00    -0.010 C 
ATOM     39  C   UNL     1       8.708  -6.731  -6.396  0.00  0.00    -0.010 C 
ATOM     40  C   UNL     1       8.447  -8.513  -4.698  0.00  0.00    -0.010 C 
ATOM     41  H   UNL     1      10.372  -7.460  -3.614  0.00  0.00    -0.084 HD
ATOM     42  H   UNL     1      10.853  -7.383  -5.165  0.00  0.00    -0.084 HD
ENDBRANCH  29  31
ENDBRANCH   4  27
TORSDOF 3
