REMARK  Name = ZINC13026917
REMARK  5 active torsions:
REMARK  status: ('A' for Active; 'I' for Inactive)
REMARK    1  A    between atoms: N_13  and  C_17
REMARK    2  A    between atoms: C_17  and  C_18
REMARK    3  A    between atoms: C_23  and  S_27
REMARK    4  A    between atoms: S_27  and  C_28
REMARK    5  A    between atoms: C_28  and  C_29
REMARK                            x       y       z     vdW  Elec       q    Type
REMARK                         _______ _______ _______ _____ _____    ______ ____
ROOT
ATOM      1  C   UNL     1      -2.058  -3.164   2.847  0.00  0.00    +0.237 C 
ATOM      2  O   UNL     1      -2.161  -2.030   2.427  0.00  0.00    -0.274 OA
ATOM      3  N   UNL     1      -2.846  -3.583   3.856  0.00  0.00    -0.252 N 
ATOM      4  C   UNL     1      -3.783  -2.712   4.420  0.00  0.00    +0.241 A 
ATOM      5  N   UNL     1      -4.614  -3.009   5.424  0.00  0.00    -0.188 NA
ATOM      6  C   UNL     1      -5.360  -1.961   5.706  0.00  0.00    +0.186 A 
ATOM      7  N   UNL     1      -5.008  -0.962   4.869  0.00  0.00    -0.252 N 
ATOM      8  H   UNL     1      -5.385  -0.068   4.840  0.00  0.00    +0.191 HD
ATOM      9  N   UNL     1      -3.986  -1.470   4.052  0.00  0.00    -0.135 NA
ATOM     10  H   UNL     1      -2.763  -4.489   4.192  0.00  0.00    +0.158 HD
ENDROOT
BRANCH   1  11
ATOM     11  C   UNL     1      -1.047  -4.103   2.240  0.00  0.00    +0.214 C 
BRANCH  11  24
ATOM     12  C   UNL     1      -0.017   1.377   0.010  0.00  0.00    +0.001 A 
ATOM     13  C   UNL     1       1.171   2.084   0.002  0.00  0.00    +0.004 A 
ATOM     14  C   UNL     1       2.375   1.410  -0.015  0.00  0.00    +0.046 A 
ATOM     15  C   UNL     1       2.398   0.019  -0.023  0.00  0.00    +0.126 A 
ATOM     16  C   UNL     1       1.206  -0.687  -0.013  0.00  0.00    +0.027 A 
ATOM     17  C   UNL     1       0.002  -0.004   0.002  0.00  0.00    +0.010 A 
ATOM     18  C   UNL     1       1.195  -2.190  -0.012  0.00  0.00    +0.144 C 
ATOM     19  C   UNL     1       2.552  -2.742  -0.437  0.00  0.00    +0.081 C 
ATOM     20  C   UNL     1       3.643  -1.988   0.336  0.00  0.00    +0.232 C 
ATOM     21  O   UNL     1       3.600  -0.613  -0.045  0.00  0.00    -0.492 OA
ATOM     22  C   UNL     1       0.817  -2.714   1.355  0.00  0.00    +0.252 C 
ATOM     23  O   UNL     1       1.412  -2.542   2.397  0.00  0.00    -0.272 OA
ATOM     24  N   UNL     1      -0.321  -3.414   1.170  0.00  0.00    -0.215 N 
ATOM     25  C   UNL     1      -0.706  -3.401  -0.113  0.00  0.00    +0.310 C 
ATOM     26  O   UNL     1      -1.702  -3.961  -0.525  0.00  0.00    -0.252 OA
ATOM     27  N   UNL     1       0.136  -2.696  -0.893  0.00  0.00    -0.281 N 
ATOM     28  H   UNL     1       0.057  -2.552  -1.849  0.00  0.00    +0.152 HD
ENDBRANCH  11  24
ENDBRANCH   1  11
BRANCH   6  29
ATOM     29  S   UNL     1      -6.600  -1.878   6.956  0.00  0.00    -0.082 S 
BRANCH  29  30
ATOM     30  C   UNL     1      -6.575  -3.528   7.709  0.00  0.00    +0.112 C 
BRANCH  30  31
ATOM     31  C   UNL     1      -7.604  -3.593   8.809  0.00  0.00    -0.037 A 
ATOM     32  C   UNL     1      -7.256  -3.246  10.101  0.00  0.00    +0.006 A 
ATOM     33  C   UNL     1      -8.198  -3.305  11.110  0.00  0.00    +0.020 A 
ATOM     34  C   UNL     1      -9.490  -3.713  10.827  0.00  0.00    +0.041 A 
ATOM     35  C   UNL     1      -9.837  -4.061   9.534  0.00  0.00    +0.020 A 
ATOM     36  C   UNL     1      -8.895  -3.995   8.524  0.00  0.00    +0.006 A 
ATOM     37 CL   UNL     1     -10.674  -3.789  12.094  0.00  0.00    -0.084 Cl
ENDBRANCH  30  31
ENDBRANCH  29  30
ENDBRANCH   6  29
TORSDOF 5
