REMARK  Name = ZINC02742758
REMARK  12 active torsions:
REMARK  status: ('A' for Active; 'I' for Inactive)
REMARK    1  A    between atoms: C_1  and  C_2
REMARK    2  A    between atoms: C_2  and  C_4
REMARK    3  A    between atoms: C_2  and  S_17
REMARK    4  A    between atoms: N_6  and  N_7
REMARK    5  A    between atoms: C_8  and  C_9
REMARK    6  A    between atoms: C_12  and  N_14
REMARK    7  A    between atoms: S_17  and  C_18
REMARK    8  A    between atoms: C_21  and  C_26
REMARK    9  A    between atoms: N_22  and  C_23
REMARK   10  A    between atoms: C_23  and  C_24
REMARK   11  A    between atoms: C_26  and  N_27
REMARK   12  A    between atoms: N_27  and  C_28
REMARK                            x       y       z     vdW  Elec       q    Type
REMARK                         _______ _______ _______ _____ _____    ______ ____
ROOT
ATOM      1  C   UNL     1       1.923  -6.338   0.572  0.00  0.00    +0.193 A 
ATOM      2  N   UNL     1       1.924  -6.251  -0.738  0.00  0.00    -0.122 NA
ATOM      3  N   UNL     1       2.126  -5.032  -1.094  0.00  0.00    -0.132 NA
ATOM      4  C   UNL     1       2.265  -4.276  -0.042  0.00  0.00    +0.152 A 
ATOM      5  N   UNL     1       2.146  -5.082   1.057  0.00  0.00    -0.301 N 
ENDROOT
BRANCH   1   6
ATOM      6  S   UNL     1       1.685  -7.802   1.524  0.00  0.00    -0.073 S 
BRANCH   6   8
ATOM      7  C   UNL     1       2.764  -9.126  -0.609  0.00  0.00    +0.029 C 
ATOM      8  C   UNL     1       1.466  -9.010   0.194  0.00  0.00    +0.139 C 
BRANCH   8   9
ATOM      9  C   UNL     1       1.120 -10.352   0.786  0.00  0.00    +0.245 C 
ATOM     10  O   UNL     1       1.375 -10.585   1.943  0.00  0.00    -0.273 OA
ATOM     11  N   UNL     1       0.525 -11.291   0.024  0.00  0.00    -0.206 N 
ATOM     12  H   UNL     1       0.320 -11.104  -0.905  0.00  0.00    +0.177 HD
BRANCH  11  13
ATOM     13  N   UNL     1       0.229 -12.440   0.530  0.00  0.00    -0.187 NA
ATOM     14  C   UNL     1      -0.362 -13.373  -0.226  0.00  0.00    +0.145 C 
BRANCH  14  15
ATOM     15  C   UNL     1      -0.679 -14.602   0.316  0.00  0.00    +0.034 A 
ATOM     16  C   UNL     1      -1.327 -15.770  -0.328  0.00  0.00    +0.019 A 
ATOM     17  C   UNL     1      -1.508 -16.834   0.453  0.00  0.00    +0.041 A 
ATOM     18  C   UNL     1      -1.089 -16.790   1.795  0.00  0.00    +0.164 A 
ATOM     19  S   UNL     1      -0.409 -15.205   1.974  0.00  0.00    -0.064 S 
BRANCH  18  20
ATOM     20  N   UNL     1      -1.198 -17.865   2.828  0.00  0.00    +0.063 N 
ATOM     21  O   UNL     1      -1.743 -19.023   2.518  0.00  0.00    -0.126 OA
ATOM     22  O   UNL     1      -0.750 -17.654   4.048  0.00  0.00    -0.126 OA
ENDBRANCH  18  20
ENDBRANCH  14  15
ENDBRANCH  11  13
ENDBRANCH   8   9
ENDBRANCH   6   8
ENDBRANCH   1   6
BRANCH   5  23
ATOM     23  C   UNL     1       2.235  -4.679   2.463  0.00  0.00    +0.152 C 
BRANCH  23  24
ATOM     24  C   UNL     1       0.865  -4.304   2.966  0.00  0.00    -0.013 C 
ATOM     25  C   UNL     1       0.376  -4.889   4.032  0.00  0.00    +0.005 C 
ENDBRANCH  23  24
ENDBRANCH   5  23
BRANCH   4  26
ATOM     26  C   UNL     1       2.517  -2.790  -0.037  0.00  0.00    +0.178 C 
BRANCH  26  27
ATOM     27  N   UNL     1       1.237  -2.078  -0.021  0.00  0.00    -0.337 N 
ATOM     28  H   UNL     1       0.405  -2.576  -0.015  0.00  0.00    +0.147 HD
BRANCH  27  29
ATOM     29  C   UNL     1       1.215  -0.681  -0.013  0.00  0.00    +0.028 A 
ATOM     30  C   UNL     1       0.002  -0.004   0.002  0.00  0.00    +0.024 A 
ATOM     31  C   UNL     1      -0.017   1.377   0.010  0.00  0.00    +0.022 A 
ATOM     32  C   UNL     1       1.171   2.086   0.002  0.00  0.00    +0.041 A 
ATOM     33  C   UNL     1       2.381   1.415  -0.013  0.00  0.00    +0.022 A 
ATOM     34  C   UNL     1       2.406   0.034  -0.021  0.00  0.00    +0.024 A 
ATOM     35 CL   UNL     1       1.144   3.822   0.011  0.00  0.00    -0.084 Cl
ENDBRANCH  27  29
ENDBRANCH  26  27
ENDBRANCH   4  26
TORSDOF 11
