REMARK  Name = ZINC20368415
REMARK  10 active torsions:
REMARK  status: ('A' for Active; 'I' for Inactive)
REMARK    1  A    between atoms: C_1  and  C_2
REMARK    2  A    between atoms: C_5  and  C_8
REMARK    3  A    between atoms: C_9  and  C_14
REMARK    4  A    between atoms: N_15  and  N_16
REMARK    5  A    between atoms: N_16  and  S_17
REMARK    6  A    between atoms: S_17  and  C_20
REMARK    7  A    between atoms: C_23  and  C_26
REMARK    8  A    between atoms: C_26  and  C_27
REMARK    9  A    between atoms: C_26  and  C_28
REMARK   10  A    between atoms: C_26  and  C_29
REMARK                            x       y       z     vdW  Elec       q    Type
REMARK                         _______ _______ _______ _____ _____    ______ ____
ROOT
ATOM      1  C   UNL     1       1.529   4.239   0.651  0.00  0.00    +0.143 C 
ATOM      2  N   UNL     1       1.015   5.426   0.745  0.00  0.00    -0.174 NA
ENDROOT
BRANCH   1   4
ATOM      3  C   UNL     1       1.066   1.675   0.313  0.00  0.00    +0.101 A 
ATOM      4  C   UNL     1       0.649   3.061   0.537  0.00  0.00    +0.040 A 
ATOM      5  C   UNL     1      -0.716   3.050   0.619  0.00  0.00    +0.115 A 
ATOM      6  N   UNL     1      -1.133   1.779   0.464  0.00  0.00    -0.284 N 
ATOM      7  H   UNL     1      -2.208   1.546   0.493  0.00  0.00    +0.188 HD
ATOM      8  N   UNL     1      -0.027   0.944   0.281  0.00  0.00    -0.173 NA
BRANCH   3  13
ATOM      9  C   UNL     1       6.471  -0.217  -0.292  0.00  0.00    +0.044 C 
ATOM     10  C   UNL     1       5.056   0.278  -0.134  0.00  0.00    -0.050 A 
ATOM     11  C   UNL     1       4.150  -0.453   0.612  0.00  0.00    +0.004 A 
ATOM     12  C   UNL     1       2.853  -0.004   0.761  0.00  0.00    +0.010 A 
ATOM     13  C   UNL     1       2.458   1.188   0.157  0.00  0.00    +0.003 A 
ATOM     14  C   UNL     1       3.374   1.918  -0.598  0.00  0.00    +0.010 A 
ATOM     15  C   UNL     1       4.670   1.462  -0.736  0.00  0.00    +0.004 A 
ENDBRANCH   3  13
ENDBRANCH   1   4
BRANCH   2  16
ATOM     16  N   UNL     1       1.849   6.552   0.748  0.00  0.00    -0.137 N 
ATOM     17  H   UNL     1       2.813   6.442   0.752  0.00  0.00    +0.197 HD
BRANCH  16  18
ATOM     18  S   UNL     1       1.189   8.071   0.743  0.00  0.00    +0.086 S 
ATOM     19  O   UNL     1       2.263   8.981   0.934  0.00  0.00    -0.149 OA
ATOM     20  O   UNL     1       0.327   8.136  -0.385  0.00  0.00    -0.149 OA
BRANCH  18  21
ATOM     21  C   UNL     1       0.162   8.197   2.169  0.00  0.00    +0.110 A 
ATOM     22  C   UNL     1      -1.146   7.752   2.121  0.00  0.00    +0.029 A 
ATOM     23  C   UNL     1      -1.950   7.847   3.241  0.00  0.00    +0.006 A 
ATOM     24  C   UNL     1      -1.449   8.396   4.407  0.00  0.00    -0.042 A 
ATOM     25  C   UNL     1      -0.143   8.846   4.453  0.00  0.00    +0.006 A 
ATOM     26  C   UNL     1       0.662   8.747   3.334  0.00  0.00    +0.029 A 
BRANCH  24  27
ATOM     27  C   UNL     1      -2.328   8.505   5.627  0.00  0.00    -0.013 C 
ATOM     28  C   UNL     1      -2.457   9.974   6.033  0.00  0.00    +0.015 C 
ATOM     29  C   UNL     1      -3.713   7.939   5.309  0.00  0.00    +0.015 C 
ATOM     30  C   UNL     1      -1.704   7.710   6.776  0.00  0.00    +0.015 C 
ENDBRANCH  24  27
ENDBRANCH  18  21
ENDBRANCH  16  18
ENDBRANCH   2  16
TORSDOF 6
