REMARK  Name = ZINC36534215
REMARK  12 active torsions:
REMARK  status: ('A' for Active; 'I' for Inactive)
REMARK    1  A    between atoms: C_1  and  C_2
REMARK    2  A    between atoms: C_5  and  S_8
REMARK    3  A    between atoms: S_8  and  C_11
REMARK    4  A    between atoms: C_11  and  N_12
REMARK    5  A    between atoms: C_13  and  C_15
REMARK    6  A    between atoms: C_15  and  C_17
REMARK    7  A    between atoms: C_15  and  N_26
REMARK    8  A    between atoms: N_26  and  C_27
REMARK    9  A    between atoms: C_28  and  C_30
REMARK   10  A    between atoms: C_30  and  C_31
REMARK   11  A    between atoms: C_31  and  C_33
REMARK   12  A    between atoms: C_31  and  C_34
REMARK                            x       y       z     vdW  Elec       q    Type
REMARK                         _______ _______ _______ _____ _____    ______ ____
ROOT
ATOM      1  C   UNL     1       3.215  -4.926   3.538  0.00  0.00    +0.192 C 
ENDROOT
BRANCH   1   2
ATOM      2  C   UNL     1       2.468  -3.764   4.140  0.00  0.00    -0.015 A 
ATOM      3  C   UNL     1       1.125  -3.588   3.861  0.00  0.00    +0.010 A 
ATOM      4  C   UNL     1       0.435  -2.524   4.411  0.00  0.00    +0.050 A 
ATOM      5  C   UNL     1       1.089  -1.629   5.242  0.00  0.00    +0.166 A 
ATOM      6  C   UNL     1       2.441  -1.806   5.523  0.00  0.00    +0.167 A 
ATOM      7  C   UNL     1       3.125  -2.878   4.973  0.00  0.00    +0.055 A 
ATOM      8  O   UNL     1       2.848  -0.805   6.357  0.00  0.00    -0.453 OA
ATOM      9  C   UNL     1       1.836   0.214   6.256  0.00  0.00    +0.466 C 
ATOM     10  O   UNL     1       0.648  -0.517   5.900  0.00  0.00    -0.453 OA
ENDBRANCH   1   2
BRANCH   1  12
ATOM     11  N   UNL     1       3.226  -3.968   1.258  0.00  0.00    -0.294 N 
ATOM     12  C   UNL     1       2.918  -5.005   2.063  0.00  0.00    +0.239 C 
ATOM     13  O   UNL     1       2.403  -6.000   1.600  0.00  0.00    -0.273 OA
ATOM     14  H   UNL     1       3.638  -3.172   1.628  0.00  0.00    +0.150 HD
BRANCH  11  15
ATOM     15  C   UNL     1       2.937  -4.045  -0.177  0.00  0.00    +0.278 C 
BRANCH  15  16
ATOM     16  S   UNL     1       1.333  -3.269  -0.513  0.00  0.00    +0.013 S 
ATOM     17  O   UNL     1       0.360  -3.735   0.412  0.00  0.00    -0.168 OA
ATOM     18  O   UNL     1       1.067  -3.278  -1.909  0.00  0.00    -0.168 OA
BRANCH  16  23
ATOM     19  C   UNL     1       2.102   2.554   0.866  0.00  0.00    +0.044 C 
ATOM     20  C   UNL     1       1.910   1.100   0.522  0.00  0.00    -0.050 A 
ATOM     21  C   UNL     1       2.166   0.654  -0.761  0.00  0.00    +0.005 A 
ATOM     22  C   UNL     1       1.989  -0.680  -1.077  0.00  0.00    +0.027 A 
ATOM     23  C   UNL     1       1.558  -1.568  -0.110  0.00  0.00    +0.090 A 
ATOM     24  C   UNL     1       1.303  -1.123   1.173  0.00  0.00    +0.027 A 
ATOM     25  C   UNL     1       1.484   0.211   1.491  0.00  0.00    +0.005 A 
ENDBRANCH  16  23
ENDBRANCH  15  16
ENDBRANCH  11  15
ENDBRANCH   1  12
BRANCH   1  26
ATOM     26  N   UNL     1       2.790  -6.168   4.188  0.00  0.00    -0.289 N 
ATOM     27  C   UNL     1       1.417  -6.650   4.021  0.00  0.00    +0.133 C 
ATOM     28  C   UNL     1       3.663  -6.868   4.940  0.00  0.00    +0.217 C 
ATOM     29  O   UNL     1       4.800  -6.469   5.078  0.00  0.00    -0.276 OA
BRANCH  28  30
ATOM     30  C   UNL     1       3.227  -8.146   5.609  0.00  0.00    +0.104 C 
BRANCH  30  31
ATOM     31  C   UNL     1       4.399  -8.737   6.394  0.00  0.00    +0.025 C 
ATOM     32  C   UNL     1       5.508  -9.147   5.423  0.00  0.00    +0.013 C 
BRANCH  31  33
ATOM     33  C   UNL     1       3.931  -9.947   7.161  0.00  0.00    -0.044 A 
ATOM     34  C   UNL     1       3.406 -11.033   6.486  0.00  0.00    +0.004 A 
ATOM     35  C   UNL     1       2.977 -12.142   7.190  0.00  0.00    +0.000 A 
ATOM     36  C   UNL     1       3.072 -12.166   8.569  0.00  0.00    +0.000 A 
ATOM     37  C   UNL     1       3.598 -11.080   9.244  0.00  0.00    +0.000 A 
ATOM     38  C   UNL     1       4.032  -9.972   8.540  0.00  0.00    +0.004 A 
ENDBRANCH  31  33
ENDBRANCH  30  31
ENDBRANCH  28  30
ENDBRANCH   1  26
TORSDOF 9
