REMARK  Name = ZINC39662841
REMARK  6 active torsions:
REMARK  status: ('A' for Active; 'I' for Inactive)
REMARK    1  A    between atoms: C_6  and  C_7
REMARK    2  A    between atoms: C_10  and  C_12
REMARK    3  A    between atoms: C_16  and  C_25
REMARK    4  A    between atoms: N_27  and  C_28
REMARK    5  A    between atoms: C_28  and  C_29
REMARK    6  A    between atoms: C_32  and  C_35
REMARK                            x       y       z     vdW  Elec       q    Type
REMARK                         _______ _______ _______ _____ _____    ______ ____
ROOT
ATOM      1  C   UNL     1      -4.585  -0.945   0.150  0.00  0.00    +0.282 C 
ATOM      2  O   UNL     1      -5.231  -1.976   0.190  0.00  0.00    -0.267 OA
ATOM      3  N   UNL     1      -5.216   0.245   0.116  0.00  0.00    -0.294 N 
ATOM      4  C   UNL     1      -4.607   1.595   0.060  0.00  0.00    +0.121 C 
ATOM      5  C   UNL     1      -5.514   2.392  -0.904  0.00  0.00    +0.100 C 
ATOM      6  C   UNL     1      -6.870   1.670  -0.855  0.00  0.00    -0.004 C 
ATOM      7  C   UNL     1      -6.677   0.499   0.120  0.00  0.00    +0.115 C 
ATOM      8  C   UNL     1      -7.953   2.614  -0.341  0.00  0.00    -0.010 C 
ATOM      9  C   UNL     1      -9.303   1.891  -0.356  0.00  0.00    -0.082 C 
ATOM     10  N   UNL     1      -9.613   1.457  -1.723  0.00  0.00    +0.379 N 
ATOM     11  C   UNL     1      -8.617   0.478  -2.176  0.00  0.00    -0.082 C 
ATOM     12  C   UNL     1      -7.239   1.141  -2.238  0.00  0.00    -0.010 C 
ATOM     13  H   UNL     1     -10.530   1.036  -1.741  0.00  0.00    -0.086 HD
ATOM     14  H   UNL     1      -9.601   2.256  -2.339  0.00  0.00    -0.086 HD
ENDROOT
BRANCH   1  18
ATOM     15  C   UNL     1      -1.017  -0.366   0.101  0.00  0.00    +0.136 A 
ATOM     16  C   UNL     1      -1.017  -1.731   0.146  0.00  0.00    +0.050 A 
ATOM     17  C   UNL     1      -2.353  -2.142   0.171  0.00  0.00    +0.055 A 
ATOM     18  C   UNL     1      -3.121  -0.999   0.140  0.00  0.00    +0.190 A 
ATOM     19  O   UNL     1      -2.290   0.064   0.103  0.00  0.00    -0.450 OA
BRANCH  15  25
ATOM     20  C   UNL     1       0.048   1.884   0.024  0.00  0.00    +0.014 A 
ATOM     21  C   UNL     1       1.171   2.682  -0.011  0.00  0.00    +0.039 A 
ATOM     22  C   UNL     1       2.433   2.108  -0.007  0.00  0.00    +0.123 A 
ATOM     23  C   UNL     1       2.573   0.729   0.031  0.00  0.00    +0.039 A 
ATOM     24  C   UNL     1       1.456  -0.079   0.066  0.00  0.00    +0.014 A 
ATOM     25  C   UNL     1       0.183   0.494   0.063  0.00  0.00    +0.017 A 
ATOM     26  F   UNL     1       3.530   2.895  -0.042  0.00  0.00    -0.205 F 
ENDBRANCH  15  25
ENDBRANCH   1  18
BRANCH   5  27
ATOM     27  C   UNL     1      -4.950   2.359  -2.302  0.00  0.00    +0.218 C 
ATOM     28  O   UNL     1      -4.305   1.402  -2.673  0.00  0.00    -0.275 OA
ATOM     29  N   UNL     1      -5.162   3.395  -3.138  0.00  0.00    -0.315 N 
ATOM     30  H   UNL     1      -5.678   4.161  -2.841  0.00  0.00    +0.149 HD
BRANCH  29  31
ATOM     31  C   UNL     1      -4.614   3.363  -4.497  0.00  0.00    +0.107 C 
BRANCH  31  32
ATOM     32  C   UNL     1      -4.997   4.649  -5.231  0.00  0.00    +0.006 C 
ATOM     33  C   UNL     1      -6.516   4.702  -5.409  0.00  0.00    +0.006 C 
ATOM     34  C   UNL     1      -6.899   5.989  -6.143  0.00  0.00    +0.015 C 
ATOM     35  C   UNL     1      -6.224   6.012  -7.516  0.00  0.00    +0.102 C 
ATOM     36  C   UNL     1      -4.706   5.959  -7.339  0.00  0.00    +0.015 C 
ATOM     37  C   UNL     1      -4.322   4.673  -6.604  0.00  0.00    +0.006 C 
BRANCH  35  38
ATOM     38  C   UNL     1      -6.602   7.279  -8.240  0.00  0.00    +0.359 C 
ATOM     39  O   UNL     1      -5.827   7.779  -9.037  0.00  0.00    -0.246 OA
ATOM     40  O   UNL     1      -7.681   7.804  -8.027  0.00  0.00    -0.246 OA
ENDBRANCH  35  38
ENDBRANCH  31  32
ENDBRANCH  29  31
ENDBRANCH   5  27
TORSDOF 6
