REMARK  Name = ZINC64070182
REMARK  6 active torsions:
REMARK  status: ('A' for Active; 'I' for Inactive)
REMARK    1  A    between atoms: C_1  and  C_2
REMARK    2  A    between atoms: C_2  and  C_3
REMARK    3  A    between atoms: C_2  and  C_4
REMARK    4  A    between atoms: C_2  and  C_5
REMARK    5  A    between atoms: C_13  and  C_16
REMARK    6  A    between atoms: N_18  and  C_19
REMARK                            x       y       z     vdW  Elec       q    Type
REMARK                         _______ _______ _______ _____ _____    ______ ____
ROOT
ATOM      1  C   UNL     1       0.718  -0.497  -1.257  0.00  0.00    -0.001 C 
ATOM      2  C   UNL     1      -0.023   0.010  -2.498  0.00  0.00    +0.009 C 
ATOM      3  C   UNL     1       0.558  -0.692  -3.731  0.00  0.00    +0.042 C 
ATOM      4  C   UNL     1       2.059  -0.622  -3.666  0.00  0.00    -0.014 C 
ATOM      5  C   UNL     1       2.798  -0.300  -2.611  0.00  0.00    -0.058 C 
ATOM      6  C   UNL     1       2.152   0.032  -1.268  0.00  0.00    +0.035 C 
ATOM      7  C   UNL     1       4.294  -0.256  -2.796  0.00  0.00    +0.055 C 
ATOM      8  C   UNL     1       4.736  -1.075  -4.033  0.00  0.00    +0.145 C 
ATOM      9  S   UNL     1       3.174  -0.979  -5.004  0.00  0.00    -0.116 S 
ENDROOT
BRANCH   1  11
ATOM     10  C   UNL     1      -0.019   1.526   0.010  0.00  0.00    +0.011 C 
ATOM     11  C   UNL     1       0.002  -0.004   0.002  0.00  0.00    -0.035 C 
ATOM     12  C   UNL     1       0.742  -0.511   1.242  0.00  0.00    +0.011 C 
ATOM     13  C   UNL     1      -1.433  -0.534   0.013  0.00  0.00    +0.011 C 
ENDBRANCH   1  11
BRANCH   8  14
ATOM     14  C   UNL     1       5.880  -0.412  -4.756  0.00  0.00    +0.263 C 
ATOM     15  O   UNL     1       5.764   0.864  -5.173  0.00  0.00    -0.270 OA
ATOM     16  N   UNL     1       6.981  -1.072  -4.977  0.00  0.00    -0.175 NA
BRANCH  16  17
ATOM     17  C   UNL     1       8.016  -0.472  -5.631  0.00  0.00    +0.249 A 
ATOM     18  N   UNL     1       9.208  -1.040  -5.931  0.00  0.00    -0.243 N 
ATOM     19  H   UNL     1       9.490  -1.945  -5.724  0.00  0.00    +0.192 HD
ATOM     20  N   UNL     1       9.954  -0.058  -6.602  0.00  0.00    -0.159 NA
ATOM     21  C   UNL     1       9.206   1.012  -6.671  0.00  0.00    +0.247 A 
ATOM     22  N   UNL     1       8.034   0.766  -6.091  0.00  0.00    -0.198 NA
ENDBRANCH  16  17
ENDBRANCH   8  14
TORSDOF 3
