REMARK  Name = ZINC09233969
REMARK  4 active torsions:
REMARK  status: ('A' for Active; 'I' for Inactive)
REMARK    1  A    between atoms: C_4  and  C_7
REMARK    2  A    between atoms: C_7  and  C_9
REMARK    3  A    between atoms: C_11  and  C_29
REMARK    4  A    between atoms: C_33  and  N_35
REMARK                            x       y       z     vdW  Elec       q    Type
REMARK                         _______ _______ _______ _____ _____    ______ ____
ROOT
ATOM      1  C   UNL     1       0.167   2.616  -2.016  0.00  0.00    +0.069 C 
ATOM      2  C   UNL     1      -0.704   1.573  -1.279  0.00  0.00    +0.016 C 
ATOM      3  C   UNL     1       0.068   1.274   0.018  0.00  0.00    -0.047 C 
ATOM      4  C   UNL     1      -0.716   1.881   1.205  0.00  0.00    +0.052 C 
ATOM      5  S   UNL     1       0.704   2.429   2.267  0.00  0.00    -0.181 S 
ATOM      6  C   UNL     1       1.869   2.780   0.878  0.00  0.00    -0.005 C 
ATOM      7  C   UNL     1       1.579   2.344  -1.482  0.00  0.00    +0.052 C 
ATOM      8  C   UNL     1       2.406   3.600  -1.474  0.00  0.00    -0.024 A 
ATOM      9  C   UNL     1       2.269   4.818  -0.847  0.00  0.00    +0.043 A 
ATOM     10  C   UNL     1       3.220   5.808  -1.040  0.00  0.00    +0.124 A 
ATOM     11  C   UNL     1       4.306   5.567  -1.865  0.00  0.00    +0.040 A 
ATOM     12  C   UNL     1       4.445   4.347  -2.494  0.00  0.00    +0.026 A 
ATOM     13  C   UNL     1       3.494   3.348  -2.304  0.00  0.00    +0.036 A 
ATOM     14  N   UNL     1       3.416   2.052  -2.822  0.00  0.00    -0.286 N 
ATOM     15  C   UNL     1       2.323   1.397  -2.388  0.00  0.00    +0.212 C 
ATOM     16  O   UNL     1       1.999   0.263  -2.671  0.00  0.00    -0.277 OA
ATOM     17  F   UNL     1       3.088   7.004  -0.426  0.00  0.00    -0.205 F 
ATOM     18  H   UNL     1       4.073   1.669  -3.424  0.00  0.00    +0.155 HD
ATOM     19  N   UNL     1       1.461   1.756  -0.157  0.00  0.00    +0.401 N 
ATOM     20  H   UNL     1       2.095   0.951  -0.084  0.00  0.00    -0.078 HD
ENDROOT
BRANCH   2  21
ATOM     21  C   UNL     1      -2.060   2.148  -0.963  0.00  0.00    -0.043 A 
ATOM     22  C   UNL     1      -3.159   1.315  -0.862  0.00  0.00    +0.004 A 
ATOM     23  C   UNL     1      -4.402   1.843  -0.572  0.00  0.00    +0.002 A 
ATOM     24  C   UNL     1      -4.549   3.205  -0.383  0.00  0.00    +0.033 A 
ATOM     25  C   UNL     1      -3.450   4.038  -0.484  0.00  0.00    +0.126 A 
ATOM     26  C   UNL     1      -2.205   3.509  -0.769  0.00  0.00    +0.036 A 
BRANCH  25  27
ATOM     27  N   UNL     1      -3.607   5.496  -0.282  0.00  0.00    +0.056 N 
ATOM     28  O   UNL     1      -4.703   5.962  -0.028  0.00  0.00    -0.126 OA
ATOM     29  O   UNL     1      -2.639   6.230  -0.371  0.00  0.00    -0.126 OA
ENDBRANCH  25  27
ENDBRANCH   2  21
BRANCH   1  30
ATOM     30  C   UNL     1       0.112   2.399  -3.506  0.00  0.00    +0.166 C 
ATOM     31  O   UNL     1      -0.161   1.304  -3.950  0.00  0.00    -0.292 OA
BRANCH  30  35
ATOM     32  C   UNL     1       0.910   5.620  -6.148  0.00  0.00    +0.000 A 
ATOM     33  C   UNL     1       0.600   4.372  -6.659  0.00  0.00    +0.001 A 
ATOM     34  C   UNL     1       0.340   3.320  -5.807  0.00  0.00    +0.011 A 
ATOM     35  C   UNL     1       0.389   3.517  -4.423  0.00  0.00    +0.018 A 
ATOM     36  C   UNL     1       0.698   4.782  -3.915  0.00  0.00    +0.011 A 
ATOM     37  C   UNL     1       0.961   5.823  -4.780  0.00  0.00    +0.001 A 
ENDBRANCH  30  35
ENDBRANCH   1  30
TORSDOF 4
