REMARK  Name = ZINC16844441
REMARK  5 active torsions:
REMARK  status: ('A' for Active; 'I' for Inactive)
REMARK    1  A    between atoms: C_1  and  C_2
REMARK    2  A    between atoms: C_2  and  C_3
REMARK    3  A    between atoms: C_4  and  O_11
REMARK    4  A    between atoms: C_6  and  C_10
REMARK    5  A    between atoms: C_8  and  O_9
REMARK                            x       y       z     vdW  Elec       q    Type
REMARK                         _______ _______ _______ _____ _____    ______ ____
ROOT
ATOM      1  C   UNL     1      -0.718   1.572   1.248  0.00  0.00    +0.075 A 
ATOM      2  C   UNL     1      -0.372   2.783   1.837  0.00  0.00    +0.222 A 
ATOM      3  N   UNL     1      -1.021   3.179   2.927  0.00  0.00    -0.198 NA
ATOM      4  C   UNL     1      -1.973   2.436   3.455  0.00  0.00    +0.134 A 
ATOM      5  N   UNL     1      -2.325   1.281   2.929  0.00  0.00    -0.198 NA
ATOM      6  C   UNL     1      -1.727   0.818   1.835  0.00  0.00    +0.222 A 
ATOM      7  C   UNL     1      -2.678   2.922   4.695  0.00  0.00    +0.088 C 
ENDROOT
BRANCH   1   9
ATOM      8  C   UNL     1      -0.753   1.593  -1.232  0.00  0.00    +0.009 C 
ATOM      9  C   UNL     1      -0.013   1.086   0.008  0.00  0.00    +0.042 C 
ENDBRANCH   1   9
BRANCH   6  10
ATOM     10  O   UNL     1      -2.096  -0.372   1.302  0.00  0.00    -0.492 OA
ATOM     11  H   UNL     1      -1.604  -1.128   1.649  0.00  0.00    +0.294 HD
ENDBRANCH   6  10
BRANCH   2  12
ATOM     12  O   UNL     1       0.610   3.550   1.304  0.00  0.00    -0.492 OA
ATOM     13  H   UNL     1       0.298   4.188   0.647  0.00  0.00    +0.294 HD
ENDBRANCH   2  12
TORSDOF 3
