REMARK  Name = ZINC42956886
REMARK  7 active torsions:
REMARK  status: ('A' for Active; 'I' for Inactive)
REMARK    1  A    between atoms: C_1  and  C_2
REMARK    2  A    between atoms: C_2  and  N_3
REMARK    3  A    between atoms: N_3  and  C_4
REMARK    4  A    between atoms: C_4  and  C_5
REMARK    5  A    between atoms: N_18  and  C_19
REMARK    6  A    between atoms: C_19  and  C_20
REMARK    7  A    between atoms: C_20  and  C_21
REMARK                            x       y       z     vdW  Elec       q    Type
REMARK                         _______ _______ _______ _____ _____    ______ ____
ROOT
ATOM      1  N   UNL     1      -1.372  -0.511   0.012  0.00  0.00    -0.282 N 
ATOM      2  C   UNL     1      -1.993  -0.751   1.184  0.00  0.00    +0.302 C 
ATOM      3  O   UNL     1      -3.134  -1.171   1.193  0.00  0.00    -0.253 OA
ATOM      4  N   UNL     1      -1.350  -0.524   2.347  0.00  0.00    -0.299 N 
ATOM      5  H   UNL     1      -0.440  -0.188   2.340  0.00  0.00    +0.150 HD
ENDROOT
BRANCH   1   7
ATOM      6  C   UNL     1      -0.019   1.526   0.010  0.00  0.00    +0.024 C 
ATOM      7  C   UNL     1       0.002  -0.004   0.002  0.00  0.00    +0.106 C 
ENDBRANCH   1   7
BRANCH   1   8
ATOM      8  C   UNL     1      -2.072  -0.758  -1.251  0.00  0.00    +0.157 C 
BRANCH   8   9
ATOM      9  C   UNL     1      -1.816  -2.197  -1.703  0.00  0.00    +0.228 C 
ATOM     10  C   UNL     1      -2.454  -2.428  -3.079  0.00  0.00    +0.275 C 
ATOM     11  O   UNL     1      -2.208  -3.785  -3.465  0.00  0.00    -0.485 OA
ATOM     12  C   UNL     1      -2.437  -4.740  -2.522  0.00  0.00    +0.162 A 
ATOM     13  C   UNL     1      -2.574  -6.064  -2.912  0.00  0.00    +0.049 A 
ATOM     14  C   UNL     1      -2.802  -7.045  -1.966  0.00  0.00    +0.004 A 
ATOM     15  C   UNL     1      -2.895  -6.709  -0.628  0.00  0.00    +0.004 A 
ATOM     16  C   UNL     1      -2.761  -5.392  -0.232  0.00  0.00    +0.049 A 
ATOM     17  C   UNL     1      -2.534  -4.402  -1.177  0.00  0.00    +0.163 A 
ATOM     18  O   UNL     1      -2.411  -3.108  -0.773  0.00  0.00    -0.480 OA
ENDBRANCH   8   9
ENDBRANCH   1   8
BRANCH   4  19
ATOM     19  C   UNL     1      -2.025  -0.784   3.620  0.00  0.00    +0.110 C 
BRANCH  19  20
ATOM     20  C   UNL     1      -1.081  -0.446   4.776  0.00  0.00    +0.056 C 
BRANCH  20  21
ATOM     21  C   UNL     1      -1.776  -0.714   6.087  0.00  0.00    -0.021 A 
ATOM     22  C   UNL     1      -2.444   0.179   6.833  0.00  0.00    +0.087 A 
ATOM     23  N   UNL     1      -2.940  -0.428   7.955  0.00  0.00    -0.360 N 
ATOM     24  H   UNL     1      -3.458   0.015   8.646  0.00  0.00    +0.165 HD
ATOM     25  C   UNL     1      -2.594  -1.761   7.957  0.00  0.00    +0.047 A 
ATOM     26  C   UNL     1      -1.855  -2.000   6.784  0.00  0.00    +0.003 A 
ATOM     27  C   UNL     1      -1.372  -3.281   6.514  0.00  0.00    +0.010 A 
ATOM     28  C   UNL     1      -1.623  -4.300   7.390  0.00  0.00    +0.001 A 
ATOM     29  C   UNL     1      -2.355  -4.070   8.547  0.00  0.00    +0.002 A 
ATOM     30  C   UNL     1      -2.833  -2.811   8.838  0.00  0.00    +0.026 A 
ENDBRANCH  20  21
ENDBRANCH  19  20
ENDBRANCH   4  19
TORSDOF 6
