REMARK  Name = ZINC39534337
REMARK  9 active torsions:
REMARK  status: ('A' for Active; 'I' for Inactive)
REMARK    1  A    between atoms: C_4  and  C_7
REMARK    2  A    between atoms: C_7  and  N_8
REMARK    3  A    between atoms: N_8  and  C_9
REMARK    4  A    between atoms: C_9  and  C_10
REMARK    5  A    between atoms: C_10  and  C_12
REMARK    6  A    between atoms: C_10  and  N_28
REMARK    7  A    between atoms: C_15  and  S_18
REMARK    8  A    between atoms: S_18  and  O_21
REMARK    9  A    between atoms: O_21  and  C_22
REMARK                            x       y       z     vdW  Elec       q    Type
REMARK                         _______ _______ _______ _____ _____    ______ ____
ROOT
ATOM      1  C   UNL     1       5.739  -1.909   2.844  0.00  0.00    -0.023 C 
ENDROOT
BRANCH   1   2
ATOM      2  N   UNL     1       5.652  -0.637   3.574  0.00  0.00    +0.388 N 
ATOM      3  C   UNL     1       6.062  -0.844   4.969  0.00  0.00    -0.062 C 
ATOM      4  C   UNL     1       5.990   0.484   5.724  0.00  0.00    +0.064 C 
ATOM      5  N   UNL     1       4.615   1.000   5.671  0.00  0.00    -0.304 NA
ATOM      6  C   UNL     1       4.182   1.189   4.280  0.00  0.00    +0.130 C 
ATOM      7  C   UNL     1       4.269  -0.145   3.536  0.00  0.00    -0.043 C 
ATOM      8 CL   UNL     1       2.479   1.782   4.255  0.00  0.00    -0.107 Cl
ATOM      9  H   UNL     1       3.981   0.393   6.168  0.00  0.00    +0.123 HD
ATOM     10  H   UNL     1       6.262   0.041   3.141  0.00  0.00    -0.081 HD
ENDBRANCH   1   2
BRANCH   1  11
ATOM     11  C   UNL     1       7.151  -2.432   2.912  0.00  0.00    -0.060 A 
ATOM     12  C   UNL     1       8.217  -1.559   2.801  0.00  0.00    +0.004 A 
ATOM     13  C   UNL     1       9.512  -2.039   2.864  0.00  0.00    +0.031 A 
ATOM     14  C   UNL     1       9.741  -3.391   3.038  0.00  0.00    +0.128 A 
ATOM     15  C   UNL     1       8.675  -4.263   3.149  0.00  0.00    +0.031 A 
ATOM     16  C   UNL     1       7.380  -3.784   3.091  0.00  0.00    +0.004 A 
BRANCH  14  17
ATOM     17  S   UNL     1      11.392  -4.002   3.116  0.00  0.00    +0.151 S 
ATOM     18  O   UNL     1      11.337  -5.370   2.736  0.00  0.00    -0.131 OA
ATOM     19  O   UNL     1      12.208  -3.056   2.439  0.00  0.00    -0.131 OA
BRANCH  17  20
ATOM     20  O   UNL     1      11.814  -3.973   4.578  0.00  0.00    -0.342 OA
BRANCH  20  21
ATOM     21  C   UNL     1      11.260  -4.958   5.333  0.00  0.00    +0.157 A 
ATOM     22  C   UNL     1      10.044  -4.747   5.968  0.00  0.00    +0.048 A 
ATOM     23  C   UNL     1       9.483  -5.750   6.734  0.00  0.00    +0.004 A 
ATOM     24  C   UNL     1      10.132  -6.964   6.869  0.00  0.00    +0.000 A 
ATOM     25  C   UNL     1      11.344  -7.176   6.237  0.00  0.00    +0.004 A 
ATOM     26  C   UNL     1      11.906  -6.179   5.465  0.00  0.00    +0.048 A 
ENDBRANCH  20  21
ENDBRANCH  17  20
ENDBRANCH  14  17
ENDBRANCH   1  11
BRANCH   1  27
ATOM     27  C   UNL     1       5.348  -1.686   1.382  0.00  0.00    +0.070 C 
BRANCH  27  28
ATOM     28  N   UNL     1       5.353  -2.973   0.672  0.00  0.00    -0.313 NA
ATOM     29  H   UNL     1       4.804  -3.660   1.165  0.00  0.00    +0.122 HD
BRANCH  28  30
ATOM     30  C   UNL     1       4.880  -2.813  -0.710  0.00  0.00    +0.116 C 
BRANCH  30  34
ATOM     31  C   UNL     1       4.933  -6.602  -2.681  0.00  0.00    +0.000 A 
ATOM     32  C   UNL     1       3.802  -6.194  -2.000  0.00  0.00    +0.000 A 
ATOM     33  C   UNL     1       3.785  -4.968  -1.362  0.00  0.00    +0.005 A 
ATOM     34  C   UNL     1       4.899  -4.150  -1.404  0.00  0.00    -0.034 A 
ATOM     35  C   UNL     1       6.030  -4.559  -2.085  0.00  0.00    +0.005 A 
ATOM     36  C   UNL     1       6.047  -5.785  -2.724  0.00  0.00    +0.000 A 
ENDBRANCH  30  34
ENDBRANCH  28  30
ENDBRANCH  27  28
ENDBRANCH   1  27
TORSDOF 9
