REMARK  Name = ZINC27023785
REMARK  18 active torsions:
REMARK  status: ('A' for Active; 'I' for Inactive)
REMARK    1  A    between atoms: C_1  and  C_2
REMARK    2  A    between atoms: C_2  and  O_3
REMARK    3  A    between atoms: O_3  and  C_4
REMARK    4  A    between atoms: C_6  and  C_20
REMARK    5  A    between atoms: C_9  and  O_10
REMARK    6  A    between atoms: O_10  and  C_11
REMARK    7  A    between atoms: C_11  and  C_13
REMARK    8  A    between atoms: C_16  and  C_19
REMARK    9  A    between atoms: C_21  and  C_34
REMARK   10  A    between atoms: C_22  and  C_33
REMARK   11  A    between atoms: C_24  and  C_32
REMARK   12  A    between atoms: C_25  and  C_26
REMARK   13  A    between atoms: C_26  and  O_28
REMARK   14  A    between atoms: O_28  and  C_29
REMARK   15  A    between atoms: C_29  and  C_30
REMARK   16  A    between atoms: C_34  and  O_36
REMARK   17  A    between atoms: O_36  and  C_37
REMARK   18  A    between atoms: C_37  and  C_38
REMARK                            x       y       z     vdW  Elec       q    Type
REMARK                         _______ _______ _______ _____ _____    ______ ____
ROOT
ATOM      1  C   UNL     1      -2.510   0.004   0.226  0.00  0.00    +0.096 C 
ATOM      2  C   UNL     1      -3.686  -0.863   0.571  0.00  0.00    +0.065 C 
ATOM      3  C   UNL     1      -3.655  -2.194   0.387  0.00  0.00    +0.016 C 
ATOM      4  N   UNL     1      -2.541  -2.805  -0.122  0.00  0.00    -0.321 N 
ATOM      5  C   UNL     1      -1.335  -2.158  -0.117  0.00  0.00    +0.016 C 
ATOM      6  C   UNL     1      -1.270  -0.825   0.046  0.00  0.00    +0.065 C 
ATOM      7  C   UNL     1      -0.065  -2.949  -0.296  0.00  0.00    +0.061 C 
ATOM      8  C   UNL     1      -4.861  -3.024   0.745  0.00  0.00    +0.061 C 
ATOM      9  H   UNL     1      -2.613  -3.821  -0.539  0.00  0.00    +0.152 HD
ENDROOT
BRANCH   1  12
ATOM     10  C   UNL     1      -3.110   2.804  -2.238  0.00  0.00    +0.163 A 
ATOM     11  C   UNL     1      -2.846   2.123  -1.060  0.00  0.00    +0.054 A 
ATOM     12  C   UNL     1      -2.803   0.742  -1.055  0.00  0.00    -0.031 A 
ATOM     13  C   UNL     1      -3.034   0.035  -2.221  0.00  0.00    +0.008 A 
ATOM     14  C   UNL     1      -3.303   0.707  -3.398  0.00  0.00    +0.050 A 
ATOM     15  C   UNL     1      -3.342   2.093  -3.412  0.00  0.00    +0.173 A 
BRANCH  10  16
ATOM     16  O   UNL     1      -3.147   4.163  -2.247  0.00  0.00    -0.489 OA
BRANCH  16  18
ATOM     17  C   UNL     1      -2.983   6.340  -1.210  0.00  0.00    +0.048 C 
ATOM     18  C   UNL     1      -2.900   4.826  -1.005  0.00  0.00    +0.226 C 
ENDBRANCH  16  18
ENDBRANCH  10  16
BRANCH  15  19
ATOM     19  O   UNL     1      -3.606   2.756  -4.570  0.00  0.00    -0.419 OA
BRANCH  19  20
ATOM     20  C   UNL     1      -2.547   3.164  -5.295  0.00  0.00    +0.345 C 
ATOM     21  O   UNL     1      -1.421   3.016  -4.864  0.00  0.00    -0.245 OA
BRANCH  20  22
ATOM     22  C   UNL     1      -2.755   3.791  -6.617  0.00  0.00    +0.059 A 
ATOM     23  C   UNL     1      -4.048   3.957  -7.118  0.00  0.00    +0.015 A 
ATOM     24  C   UNL     1      -4.235   4.549  -8.350  0.00  0.00    +0.004 A 
ATOM     25  C   UNL     1      -3.145   4.967  -9.094  0.00  0.00    -0.050 A 
ATOM     26  C   UNL     1      -1.861   4.801  -8.605  0.00  0.00    +0.004 A 
ATOM     27  C   UNL     1      -1.660   4.216  -7.372  0.00  0.00    +0.015 A 
ATOM     28  C   UNL     1      -3.357   5.607 -10.441  0.00  0.00    +0.044 C 
ENDBRANCH  20  22
ENDBRANCH  19  20
ENDBRANCH  15  19
ENDBRANCH   1  12
BRANCH   6  29
ATOM     29  C   UNL     1      -0.006  -0.191   0.055  0.00  0.00    +0.338 C 
ATOM     30  O   UNL     1       0.519   0.105   1.112  0.00  0.00    -0.245 OA
BRANCH  29  31
ATOM     31  O   UNL     1       0.617   0.087  -1.109  0.00  0.00    -0.457 OA
BRANCH  31  32
ATOM     32  C   UNL     1       1.891   0.729  -1.025  0.00  0.00    +0.259 C 
BRANCH  32  33
ATOM     33  C   UNL     1       2.431   0.958  -2.414  0.00  0.00    +0.006 C 
ATOM     34  C   UNL     1       2.962   2.113  -2.728  0.00  0.00    +0.007 C 
ENDBRANCH  32  33
ENDBRANCH  31  32
ENDBRANCH  29  31
ENDBRANCH   6  29
BRANCH   2  35
ATOM     35  C   UNL     1      -4.851  -0.266   1.107  0.00  0.00    +0.338 C 
ATOM     36  O   UNL     1      -5.810  -0.957   1.396  0.00  0.00    -0.245 OA
BRANCH  35  37
ATOM     37  O   UNL     1      -4.898   1.069   1.298  0.00  0.00    -0.457 OA
BRANCH  37  38
ATOM     38  C   UNL     1      -6.106   1.604   1.843  0.00  0.00    +0.259 C 
BRANCH  38  39
ATOM     39  C   UNL     1      -5.974   3.098   1.984  0.00  0.00    +0.006 C 
ATOM     40  C   UNL     1      -6.953   3.881   1.603  0.00  0.00    +0.007 C 
ENDBRANCH  38  39
ENDBRANCH  37  38
ENDBRANCH  35  37
ENDBRANCH   2  35
TORSDOF 14
