REMARK  Name = ZINC14547901
REMARK  3 active torsions:
REMARK  status: ('A' for Active; 'I' for Inactive)
REMARK    1  A    between atoms: C_1  and  C_2
REMARK    2  A    between atoms: C_15  and  C_18
REMARK    3  A    between atoms: C_27  and  O_28
REMARK                            x       y       z     vdW  Elec       q    Type
REMARK                         _______ _______ _______ _____ _____    ______ ____
ROOT
ATOM      1  C   UNL     1       0.610   3.205  -3.881  0.00  0.00    +0.044 C 
ATOM      2  C   UNL     1      -0.204   2.667  -2.732  0.00  0.00    -0.050 A 
ATOM      3  C   UNL     1      -1.584   2.650  -2.810  0.00  0.00    +0.005 A 
ATOM      4  C   UNL     1      -2.312   2.119  -1.797  0.00  0.00    +0.023 A 
ATOM      5  C   UNL     1      -1.694   1.661  -0.639  0.00  0.00    +0.031 A 
ATOM      6  C   UNL     1      -0.308   1.700  -0.544  0.00  0.00    -0.019 A 
ATOM      7  C   UNL     1       0.430   2.192  -1.599  0.00  0.00    +0.009 A 
ATOM      8  C   UNL     1       0.320   1.164   0.683  0.00  0.00    +0.049 C 
ATOM      9  C   UNL     1       1.653   1.625   1.150  0.00  0.00    -0.023 C 
ATOM     10  C   UNL     1       1.678   1.573   2.477  0.00  0.00    -0.030 C 
ATOM     11  C   UNL     1       0.325   1.096   3.007  0.00  0.00    +0.033 C 
ATOM     12  C   UNL     1      -0.619   1.521   1.874  0.00  0.00    +0.029 C 
ATOM     13  C   UNL     1      -1.870   0.686   1.665  0.00  0.00    +0.109 C 
ATOM     14  N   UNL     1      -2.483   1.192   0.418  0.00  0.00    -0.336 N 
ATOM     15  H   UNL     1      -3.449   1.199   0.331  0.00  0.00    +0.147 HD
ENDROOT
BRANCH  13  16
ATOM     16  C   UNL     1      -1.506  -0.768   1.514  0.00  0.00    +0.022 A 
ATOM     17  C   UNL     1      -1.273  -1.560   2.650  0.00  0.00    -0.009 A 
ATOM     18  C   UNL     1      -1.371  -1.023   3.946  0.00  0.00    +0.009 A 
ATOM     19  C   UNL     1      -1.137  -1.819   5.024  0.00  0.00    +0.001 A 
ATOM     20  C   UNL     1      -0.802  -3.163   4.865  0.00  0.00    +0.001 A 
ATOM     21  C   UNL     1      -0.711  -3.720   3.627  0.00  0.00    +0.008 A 
ATOM     22  C   UNL     1      -0.938  -2.928   2.489  0.00  0.00    -0.017 A 
ATOM     23  C   UNL     1      -0.834  -3.466   1.194  0.00  0.00    +0.012 A 
ATOM     24  C   UNL     1      -1.060  -2.671   0.114  0.00  0.00    +0.046 A 
ATOM     25  C   UNL     1      -1.397  -1.323   0.271  0.00  0.00    +0.122 A 
BRANCH  25  26
ATOM     26  O   UNL     1      -1.617  -0.554  -0.828  0.00  0.00    -0.506 OA
ATOM     27  H   UNL     1      -0.811  -0.204  -1.232  0.00  0.00    +0.292 HD
ENDBRANCH  25  26
ENDBRANCH  13  16
TORSDOF 2
