REMARK  Name = ZINC13031530
REMARK  15 active torsions:
REMARK  status: ('A' for Active; 'I' for Inactive)
REMARK    1  A    between atoms: C_1  and  C_2
REMARK    2  A    between atoms: C_2  and  N_60
REMARK    3  A    between atoms: C_3  and  C_4
REMARK    4  A    between atoms: C_3  and  N_60
REMARK    5  A    between atoms: C_5  and  C_7
REMARK    6  A    between atoms: C_5  and  C_25
REMARK    7  A    between atoms: C_5  and  N_60
REMARK    8  A    between atoms: C_7  and  N_8
REMARK    9  A    between atoms: N_8  and  C_9
REMARK   10  A    between atoms: C_12  and  S_18
REMARK   11  A    between atoms: C_14  and  N_15
REMARK   12  A    between atoms: S_18  and  N_21
REMARK   13  A    between atoms: N_21  and  C_22
REMARK   14  A    between atoms: C_22  and  C_23
REMARK   15  A    between atoms: C_22  and  C_24
REMARK                            x       y       z     vdW  Elec       q    Type
REMARK                         _______ _______ _______ _____ _____    ______ ____
ROOT
ATOM      1  C   UNL     1      -2.041   4.856  -3.295  0.00  0.00    +0.058 A 
ATOM      2  C   UNL     1      -1.755   5.978  -2.529  0.00  0.00    +0.027 A 
ATOM      3  C   UNL     1      -1.872   5.922  -1.154  0.00  0.00    +0.030 A 
ATOM      4  C   UNL     1      -2.264   4.746  -0.539  0.00  0.00    +0.108 A 
ATOM      5  C   UNL     1      -2.549   3.627  -1.299  0.00  0.00    +0.063 A 
ATOM      6  C   UNL     1      -2.439   3.678  -2.675  0.00  0.00    +0.149 A 
ENDROOT
BRANCH   6   7
ATOM      7  N   UNL     1      -2.745   2.480  -3.488  0.00  0.00    +0.058 N 
ATOM      8  O   UNL     1      -2.978   1.417  -2.941  0.00  0.00    -0.126 OA
ATOM      9  O   UNL     1      -2.763   2.557  -4.703  0.00  0.00    -0.126 OA
ENDBRANCH   6   7
BRANCH   4  10
ATOM     10  S   UNL     1      -2.406   4.677   1.215  0.00  0.00    +0.059 S 
ATOM     11  O   UNL     1      -3.319   3.628   1.508  0.00  0.00    -0.153 OA
ATOM     12  O   UNL     1      -2.610   6.011   1.659  0.00  0.00    -0.153 OA
BRANCH  10  13
ATOM     13  N   UNL     1      -0.934   4.202   1.808  0.00  0.00    -0.187 NA
ATOM     14  H   UNL     1      -0.847   3.351   2.265  0.00  0.00    +0.148 HD
BRANCH  13  15
ATOM     15  C   UNL     1       0.238   5.063   1.635  0.00  0.00    +0.070 C 
ATOM     16  C   UNL     1       0.428   5.923   2.886  0.00  0.00    +0.025 C 
ATOM     17  C   UNL     1       1.480   4.197   1.417  0.00  0.00    +0.025 C 
ENDBRANCH  13  15
ENDBRANCH  10  13
ENDBRANCH   4  10
BRANCH   1  18
ATOM     18  N   UNL     1      -1.929   4.911  -4.686  0.00  0.00    -0.343 N 
ATOM     19  H   UNL     1      -2.215   4.157  -5.226  0.00  0.00    +0.146 HD
BRANCH  18  20
ATOM     20  C   UNL     1      -1.380   6.107  -5.330  0.00  0.00    +0.091 C 
BRANCH  20  21
ATOM     21  C   UNL     1      -1.479   5.959  -6.850  0.00  0.00    -0.020 C 
BRANCH  21  22
ATOM     22  C   UNL     1      -1.067   7.250  -7.508  0.00  0.00    -0.059 A 
ATOM     23  C   UNL     1      -1.550   8.454  -7.030  0.00  0.00    +0.002 A 
ATOM     24  C   UNL     1      -1.169   9.639  -7.631  0.00  0.00    +0.000 A 
ATOM     25  C   UNL     1      -0.312   9.620  -8.716  0.00  0.00    +0.000 A 
ATOM     26  C   UNL     1       0.166   8.416  -9.197  0.00  0.00    +0.000 A 
ATOM     27  C   UNL     1      -0.212   7.231  -8.594  0.00  0.00    +0.002 A 
ENDBRANCH  21  22
BRANCH  21  28
ATOM     28  N   UNL     1      -2.876   5.625  -7.200  0.00  0.00    +0.385 N 
ATOM     29  H   UNL     1      -3.292   5.085  -6.432  0.00  0.00    -0.081 HD
BRANCH  28  31
ATOM     30  C   UNL     1      -4.153   7.349  -6.032  0.00  0.00    -0.017 C 
ATOM     31  C   UNL     1      -3.658   6.864  -7.396  0.00  0.00    -0.081 C 
ENDBRANCH  28  31
BRANCH  28  32
ATOM     32  C   UNL     1      -2.906   4.808  -8.432  0.00  0.00    -0.081 C 
ATOM     33  C   UNL     1      -2.456   3.386  -8.089  0.00  0.00    -0.017 C 
ENDBRANCH  28  32
ENDBRANCH  21  28
ENDBRANCH  20  21
ENDBRANCH  18  20
ENDBRANCH   1  18
TORSDOF 11
