REMARK  Name = ZINC08660400
REMARK  14 active torsions:
REMARK  status: ('A' for Active; 'I' for Inactive)
REMARK    1  A    between atoms: C_1  and  C_2
REMARK    2  A    between atoms: C_2  and  O_3
REMARK    3  A    between atoms: O_3  and  C_4
REMARK    4  A    between atoms: C_4  and  C_6
REMARK    5  A    between atoms: C_10  and  C_42
REMARK    6  A    between atoms: C_22  and  O_41
REMARK    7  A    between atoms: C_24  and  C_40
REMARK    8  A    between atoms: C_29  and  C_31
REMARK    9  A    between atoms: C_31  and  C_33
REMARK   10  A    between atoms: C_31  and  C_34
REMARK   11  A    between atoms: C_34  and  C_35
REMARK   12  A    between atoms: C_35  and  C_36
REMARK   13  A    between atoms: C_36  and  O_38
REMARK   14  A    between atoms: O_38  and  C_39
REMARK                            x       y       z     vdW  Elec       q    Type
REMARK                         _______ _______ _______ _____ _____    ______ ____
ROOT
ATOM      1  C   UNL     1       0.808   0.942   2.005  0.00  0.00    +0.098 C 
ATOM      2  C   UNL     1      -0.547   0.316   2.318  0.00  0.00    +0.015 C 
ATOM      3  C   UNL     1      -1.576   0.622   1.226  0.00  0.00    +0.008 C 
ATOM      4  C   UNL     1      -1.044   0.163  -0.125  0.00  0.00    -0.025 C 
ATOM      5  C   UNL     1       0.273   0.872  -0.413  0.00  0.00    +0.003 C 
ATOM      6  C   UNL     1       1.319   0.508   0.627  0.00  0.00    +0.019 C 
ATOM      7  C   UNL     1       0.724   0.627  -1.849  0.00  0.00    +0.078 C 
ATOM      8  C   UNL     1      -0.286   1.371  -2.724  0.00  0.00    +0.137 C 
ATOM      9  O   UNL     1       0.015   1.754  -3.825  0.00  0.00    -0.297 OA
ATOM     10  C   UNL     1      -1.640   1.595  -2.100  0.00  0.00    +0.063 C 
ATOM     11  C   UNL     1      -2.034   0.383  -1.264  0.00  0.00    +0.008 C 
ATOM     12  C   UNL     1      -3.458   0.503  -0.754  0.00  0.00    +0.036 C 
ATOM     13  C   UNL     1      -4.487   0.626  -1.887  0.00  0.00    +0.121 C 
ATOM     14  C   UNL     1      -3.834   0.953  -3.200  0.00  0.00    +0.000 C 
ATOM     15  C   UNL     1      -2.718   2.007  -3.048  0.00  0.00    +0.008 C 
ATOM     16  C   UNL     1      -2.337   2.254  -4.515  0.00  0.00    +0.005 C 
ATOM     17  C   UNL     1      -3.708   2.259  -5.244  0.00  0.00    +0.005 C 
ATOM     18  C   UNL     1      -4.727   1.620  -4.265  0.00  0.00    +0.001 C 
ATOM     19  C   UNL     1      -3.309  -0.334  -3.861  0.00  0.00    +0.014 C 
ATOM     20  C   UNL     1      -0.803  -1.347  -0.062  0.00  0.00    +0.012 C 
ENDROOT
BRANCH   1  21
ATOM     21  C   UNL     1       1.804   0.521   3.056  0.00  0.00    +0.310 C 
ATOM     22  O   UNL     1       2.812  -0.063   2.733  0.00  0.00    -0.251 OA
BRANCH  21  23
ATOM     23  O   UNL     1       1.572   0.794   4.349  0.00  0.00    -0.465 OA
BRANCH  23  25
ATOM     24  C   UNL     1       2.138   0.755   6.718  0.00  0.00    +0.048 C 
ATOM     25  C   UNL     1       2.574   0.359   5.306  0.00  0.00    +0.229 C 
ENDBRANCH  23  25
ENDBRANCH  21  23
ENDBRANCH   1  21
BRANCH  18  26
ATOM     26  C   UNL     1      -5.631   2.693  -3.675  0.00  0.00    -0.010 C 
ATOM     27  C   UNL     1      -4.774   3.823  -3.101  0.00  0.00    +0.008 C 
BRANCH  26  28
ATOM     28  C   UNL     1      -6.544   3.249  -4.769  0.00  0.00    +0.014 C 
BRANCH  28  29
ATOM     29  C   UNL     1      -7.588   4.174  -4.140  0.00  0.00    +0.121 C 
BRANCH  29  30
ATOM     30  C   UNL     1      -8.488   4.723  -5.218  0.00  0.00    +0.307 C 
ATOM     31  O   UNL     1      -8.312   4.406  -6.371  0.00  0.00    -0.251 OA
BRANCH  30  32
ATOM     32  O   UNL     1      -9.484   5.563  -4.897  0.00  0.00    -0.468 OA
ATOM     33  C   UNL     1     -10.310   6.052  -5.987  0.00  0.00    +0.280 C 
ENDBRANCH  30  32
ENDBRANCH  29  30
ENDBRANCH  28  29
ENDBRANCH  26  28
ENDBRANCH  18  26
BRANCH  13  34
ATOM     34  O   UNL     1      -5.207  -0.613  -2.005  0.00  0.00    -0.391 OA
ATOM     35  H   UNL     1      -5.654  -0.887  -1.193  0.00  0.00    +0.210 HD
ENDBRANCH  13  34
TORSDOF 9
