REMARK  Name = ZINC45129785
REMARK  8 active torsions:
REMARK  status: ('A' for Active; 'I' for Inactive)
REMARK    1  A    between atoms: C_1  and  C_2
REMARK    2  A    between atoms: C_2  and  C_4
REMARK    3  A    between atoms: C_2  and  N_11
REMARK    4  A    between atoms: N_11  and  C_12
REMARK    5  A    between atoms: N_15  and  C_16
REMARK    6  A    between atoms: C_16  and  C_17
REMARK    7  A    between atoms: C_17  and  C_18
REMARK    8  A    between atoms: C_18  and  N_19
REMARK                            x       y       z     vdW  Elec       q    Type
REMARK                         _______ _______ _______ _____ _____    ______ ____
ROOT
ATOM      1  N   UNL     1       0.822  -0.440  -1.214  0.00  0.00    -0.282 N 
ATOM      2  C   UNL     1       0.547   0.072  -2.559  0.00  0.00    +0.134 C 
ATOM      3  C   UNL     1       1.831  -1.312  -1.018  0.00  0.00    +0.302 C 
ATOM      4  O   UNL     1       2.059  -1.738   0.098  0.00  0.00    -0.253 OA
ATOM      5  N   UNL     1       2.586  -1.713  -2.060  0.00  0.00    -0.299 N 
ATOM      6  H   UNL     1       2.404  -1.374  -2.950  0.00  0.00    +0.150 HD
ENDROOT
BRANCH   1   8
ATOM      7  C   UNL     1       0.007   1.523  -0.005  0.00  0.00    +0.033 C 
ATOM      8  C   UNL     1       0.000  -0.005  -0.082  0.00  0.00    +0.104 C 
BRANCH   8   9
ATOM      9  C   UNL     1      -1.413  -0.492  -0.270  0.00  0.00    -0.027 A 
ATOM     10  C   UNL     1      -1.652  -1.671  -0.951  0.00  0.00    +0.008 A 
ATOM     11  C   UNL     1      -2.948  -2.119  -1.124  0.00  0.00    +0.038 A 
ATOM     12  C   UNL     1      -4.007  -1.387  -0.614  0.00  0.00    +0.123 A 
ATOM     13  C   UNL     1      -3.766  -0.206   0.068  0.00  0.00    +0.038 A 
ATOM     14  C   UNL     1      -2.469   0.237   0.244  0.00  0.00    +0.008 A 
ATOM     15  F   UNL     1      -5.274  -1.824  -0.783  0.00  0.00    -0.205 F 
ENDBRANCH   8   9
ENDBRANCH   1   8
BRANCH   5  16
ATOM     16  C   UNL     1       3.683  -2.661  -1.847  0.00  0.00    +0.107 C 
BRANCH  16  17
ATOM     17  C   UNL     1       4.375  -2.948  -3.181  0.00  0.00    +0.038 C 
BRANCH  17  18
ATOM     18  C   UNL     1       5.520  -3.938  -2.959  0.00  0.00    +0.119 C 
BRANCH  18  19
ATOM     19  N   UNL     1       6.183  -4.212  -4.237  0.00  0.00    -0.224 N 
ATOM     20  C   UNL     1       5.823  -5.202  -5.082  0.00  0.00    +0.246 C 
ATOM     21  O   UNL     1       4.925  -6.003  -4.936  0.00  0.00    -0.273 OA
ATOM     22  C   UNL     1       6.776  -5.098  -6.245  0.00  0.00    +0.113 C 
ATOM     23  C   UNL     1       6.020  -4.842  -7.556  0.00  0.00    +0.035 C 
ATOM     24  C   UNL     1       6.840  -5.618  -8.619  0.00  0.00    +0.003 C 
ATOM     25  C   UNL     1       7.282  -6.891  -7.852  0.00  0.00    +0.003 C 
ATOM     26  C   UNL     1       7.580  -6.388  -6.422  0.00  0.00    +0.035 C 
ATOM     27  N   UNL     1       7.645  -3.968  -5.907  0.00  0.00    -0.285 N 
ATOM     28  C   UNL     1       7.218  -3.509  -4.714  0.00  0.00    +0.309 C 
ATOM     29  O   UNL     1       7.719  -2.565  -4.135  0.00  0.00    -0.252 OA
ATOM     30  H   UNL     1       8.378  -3.619  -6.438  0.00  0.00    +0.151 HD
ENDBRANCH  18  19
ENDBRANCH  17  18
ENDBRANCH  16  17
ENDBRANCH   5  16
TORSDOF 6
