REMARK  Name = ZINC63303139
REMARK  3 active torsions:
REMARK  status: ('A' for Active; 'I' for Inactive)
REMARK    1  A    between atoms: C_6  and  N_7
REMARK    2  A    between atoms: C_8  and  C_10
REMARK    3  A    between atoms: C_10  and  N_11
REMARK                            x       y       z     vdW  Elec       q    Type
REMARK                         _______ _______ _______ _____ _____    ______ ____
ROOT
ATOM      1  N   UNL     1      -4.786   0.087   0.347  0.00  0.00    -0.291 N 
ATOM      2  C   UNL     1      -6.042  -0.384   0.471  0.00  0.00    +0.303 C 
ATOM      3  O   UNL     1      -6.235  -1.579   0.582  0.00  0.00    -0.253 OA
ATOM      4  N   UNL     1      -7.085   0.470   0.472  0.00  0.00    -0.283 N 
ATOM      5  C   UNL     1      -6.839   1.915   0.449  0.00  0.00    +0.114 C 
ATOM      6  C   UNL     1      -7.505   2.568   1.674  0.00  0.00    +0.052 C 
ATOM      7  C   UNL     1      -8.892   1.984   1.775  0.00  0.00    -0.035 C 
ATOM      8  C   UNL     1     -10.083   2.562   1.876  0.00  0.00    +0.001 A 
ATOM      9  C   UNL     1     -10.477   3.971   2.034  0.00  0.00    +0.030 A 
ATOM     10  C   UNL     1     -11.814   4.217   2.085  0.00  0.00    +0.042 A 
ATOM     11  C   UNL     1     -12.785   3.213   1.994  0.00  0.00    +0.022 A 
ATOM     12  C   UNL     1     -12.511   1.892   1.856  0.00  0.00    +0.027 A 
ATOM     13  C   UNL     1     -11.140   1.508   1.799  0.00  0.00    +0.043 A 
ATOM     14  N   UNL     1     -10.600   0.330   1.694  0.00  0.00    -0.376 N 
ATOM     15  C   UNL     1      -9.146   0.481   1.754  0.00  0.00    +0.124 C 
ATOM     16  C   UNL     1      -8.459  -0.058   0.490  0.00  0.00    +0.138 C 
ATOM     17 CL   UNL     1     -12.343   5.860   2.272  0.00  0.00    -0.084 Cl
ATOM     18  H   UNL     1      -4.626   1.044   0.332  0.00  0.00    +0.151 HD
ATOM     19  H   UNL     1     -11.080  -0.508   1.594  0.00  0.00    +0.160 HD
ENDROOT
BRANCH   1  20
ATOM     20  C   UNL     1      -3.661  -0.845   0.237  0.00  0.00    +0.202 C 
BRANCH  20  22
ATOM     21  N   UNL     1      -1.203  -0.723  -0.005  0.00  0.00    -0.284 N 
ATOM     22  C   UNL     1      -2.376  -0.069   0.110  0.00  0.00    +0.234 C 
ATOM     23  O   UNL     1      -2.397   1.143   0.113  0.00  0.00    -0.274 OA
ATOM     24  H   UNL     1      -1.192  -1.690  -0.082  0.00  0.00    +0.155 HD
BRANCH  21  30
ATOM     25  C   UNL     1       0.122   1.157   0.732  0.00  0.00    +0.027 A 
ATOM     26  C   UNL     1       1.308   1.866   0.721  0.00  0.00    +0.051 A 
ATOM     27  C   UNL     1       2.381   1.418  -0.035  0.00  0.00    +0.162 A 
ATOM     28  C   UNL     1       2.263   0.252  -0.783  0.00  0.00    +0.164 A 
ATOM     29  C   UNL     1       1.072  -0.458  -0.772  0.00  0.00    +0.072 A 
ATOM     30  C   UNL     1       0.001  -0.006  -0.015  0.00  0.00    +0.037 A 
ATOM     31  O   UNL     1       3.307  -0.208  -1.525  0.00  0.00    -0.485 OA
ATOM     32  C   UNL     1       4.357   0.724  -1.806  0.00  0.00    +0.270 C 
ATOM     33  C   UNL     1       4.712   1.455  -0.504  0.00  0.00    +0.270 C 
ATOM     34  O   UNL     1       3.540   2.132  -0.037  0.00  0.00    -0.485 OA
ENDBRANCH  21  30
ENDBRANCH  20  22
ENDBRANCH   1  20
TORSDOF 3
