REMARK  Name = ZINC51503683
REMARK  5 active torsions:
REMARK  status: ('A' for Active; 'I' for Inactive)
REMARK    1  A    between atoms: C_1  and  C_2
REMARK    2  A    between atoms: C_2  and  C_3
REMARK    3  A    between atoms: C_3  and  N_4
REMARK    4  A    between atoms: N_4  and  C_5
REMARK    5  A    between atoms: C_5  and  C_6
REMARK                            x       y       z     vdW  Elec       q    Type
REMARK                         _______ _______ _______ _____ _____    ______ ____
ROOT
ATOM      1  N   UNL     1       0.762  -1.976   1.234  0.00  0.00    -0.311 N 
ATOM      2  C   UNL     1      -0.262  -2.686   1.839  0.00  0.00    +0.128 A 
ATOM      3  C   UNL     1      -1.371  -2.020   2.364  0.00  0.00    +0.084 A 
ATOM      4  C   UNL     1      -2.369  -2.770   2.959  0.00  0.00    +0.136 A 
ATOM      5  N   UNL     1      -2.244  -4.089   3.014  0.00  0.00    -0.203 NA
ATOM      6  C   UNL     1      -1.179  -4.693   2.508  0.00  0.00    +0.216 A 
ATOM      7  N   UNL     1      -0.205  -4.011   1.925  0.00  0.00    -0.200 NA
ATOM      8  N   UNL     1      -1.085  -6.072   2.585  0.00  0.00    -0.327 N 
ATOM      9 CL   UNL     1      -3.770  -1.993   3.628  0.00  0.00    -0.062 Cl
ATOM     10  H   UNL     1      -1.794  -6.583   3.006  0.00  0.00    +0.145 HD
ATOM     11  H   UNL     1      -0.311  -6.526   2.218  0.00  0.00    +0.145 HD
ENDROOT
BRANCH   1  12
ATOM     12  C   UNL     1       0.742  -0.511   1.242  0.00  0.00    +0.106 C 
BRANCH  12  14
ATOM     13  C   UNL     1      -0.019   1.526   0.010  0.00  0.00    +0.005 C 
ATOM     14  C   UNL     1       0.002  -0.004   0.002  0.00  0.00    +0.016 C 
ENDBRANCH  12  14
ENDBRANCH   1  12
BRANCH   1  15
ATOM     15  C   UNL     1       1.864  -2.690   0.585  0.00  0.00    +0.154 C 
BRANCH  15  16
ATOM     16  C   UNL     1       2.981  -2.935   1.601  0.00  0.00    +0.228 C 
ATOM     17  C   UNL     1       4.145  -3.671   0.923  0.00  0.00    +0.275 C 
ATOM     18  O   UNL     1       5.176  -3.871   1.897  0.00  0.00    -0.485 OA
ATOM     19  C   UNL     1       5.503  -2.800   2.671  0.00  0.00    +0.162 A 
ATOM     20  C   UNL     1       6.705  -2.803   3.364  0.00  0.00    +0.049 A 
ATOM     21  C   UNL     1       7.049  -1.724   4.157  0.00  0.00    +0.004 A 
ATOM     22  C   UNL     1       6.197  -0.641   4.261  0.00  0.00    +0.004 A 
ATOM     23  C   UNL     1       4.999  -0.631   3.572  0.00  0.00    +0.049 A 
ATOM     24  C   UNL     1       4.648  -1.710   2.774  0.00  0.00    +0.163 A 
ATOM     25  O   UNL     1       3.468  -1.683   2.096  0.00  0.00    -0.480 OA
ENDBRANCH  15  16
ENDBRANCH   1  15
TORSDOF 4
