REMARK  Name = ZINC36207652
REMARK  16 active torsions:
REMARK  status: ('A' for Active; 'I' for Inactive)
REMARK    1  A    between atoms: C_1  and  C_2
REMARK    2  A    between atoms: C_5  and  C_8
REMARK    3  A    between atoms: C_17  and  C_19
REMARK    4  A    between atoms: C_19  and  N_20
REMARK    5  A    between atoms: N_20  and  C_21
REMARK    6  A    between atoms: N_20  and  C_26
REMARK    7  A    between atoms: C_21  and  C_22
REMARK    8  A    between atoms: C_22  and  C_23
REMARK    9  A    between atoms: C_23  and  O_24
REMARK   10  A    between atoms: O_24  and  C_25
REMARK   11  A    between atoms: C_26  and  C_27
REMARK   12  A    between atoms: C_27  and  C_29
REMARK   13  A    between atoms: C_27  and  O_37
REMARK   14  A    between atoms: C_29  and  O_30
REMARK   15  A    between atoms: O_30  and  C_31
REMARK   16  A    between atoms: C_31  and  C_32
REMARK                            x       y       z     vdW  Elec       q    Type
REMARK                         _______ _______ _______ _____ _____    ______ ____
ROOT
ATOM      1  C   UNL     1       3.588  -7.620   2.744  0.00  0.00    -0.003 C 
ENDROOT
BRANCH   1  11
ATOM      2  C   UNL     1       8.731  -6.780   0.434  0.00  0.00    +0.004 A 
ATOM      3  C   UNL     1       9.147  -7.837  -0.304  0.00  0.00    +0.056 A 
ATOM      4  S   UNL     1       7.798  -8.994  -0.165  0.00  0.00    -0.076 S 
ATOM      5  C   UNL     1       6.718  -8.041   0.871  0.00  0.00    +0.116 A 
ATOM      6  C   UNL     1       7.430  -6.851   1.089  0.00  0.00    +0.080 A 
ATOM      7  C   UNL     1       6.778  -5.881   1.916  0.00  0.00    +0.260 A 
ATOM      8  O   UNL     1       7.315  -4.814   2.159  0.00  0.00    -0.267 OA
ATOM      9  N   UNL     1       5.563  -6.164   2.420  0.00  0.00    -0.312 N 
ATOM     10  H   UNL     1       5.116  -5.511   2.980  0.00  0.00    +0.170 HD
ATOM     11  C   UNL     1       4.949  -7.347   2.158  0.00  0.00    +0.094 A 
ATOM     12  N   UNL     1       5.515  -8.248   1.400  0.00  0.00    -0.229 NA
BRANCH   2  17
ATOM     13  C   UNL     1      12.047  -2.105   0.991  0.00  0.00    +0.044 C 
ATOM     14  C   UNL     1      11.179  -3.329   0.845  0.00  0.00    -0.050 A 
ATOM     15  C   UNL     1      11.713  -4.584   1.076  0.00  0.00    +0.004 A 
ATOM     16  C   UNL     1      10.923  -5.708   0.944  0.00  0.00    +0.009 A 
ATOM     17  C   UNL     1       9.585  -5.576   0.578  0.00  0.00    -0.017 A 
ATOM     18  C   UNL     1       9.052  -4.309   0.347  0.00  0.00    +0.009 A 
ATOM     19  C   UNL     1       9.850  -3.192   0.487  0.00  0.00    +0.004 A 
ENDBRANCH   2  17
ENDBRANCH   1  11
BRANCH   1  20
ATOM     20  N   UNL     1       3.194  -9.003   2.442  0.00  0.00    +0.386 N 
ATOM     21  H   UNL     1       3.274  -9.166   1.449  0.00  0.00    -0.081 HD
BRANCH  20  22
ATOM     22  C   UNL     1       1.803  -9.218   2.863  0.00  0.00    -0.076 C 
BRANCH  22  23
ATOM     23  C   UNL     1       0.873  -8.345   2.019  0.00  0.00    +0.009 C 
BRANCH  23  24
ATOM     24  C   UNL     1      -0.582  -8.675   2.356  0.00  0.00    +0.157 C 
BRANCH  24  25
ATOM     25  O   UNL     1      -1.451  -7.858   1.567  0.00  0.00    -0.383 OA
ATOM     26  C   UNL     1      -2.841  -8.089   1.806  0.00  0.00    +0.193 C 
ENDBRANCH  24  25
ENDBRANCH  23  24
ENDBRANCH  22  23
ENDBRANCH  20  22
BRANCH  20  27
ATOM     27  C   UNL     1       4.074  -9.932   3.163  0.00  0.00    -0.044 C 
BRANCH  27  28
ATOM     28  C   UNL     1       3.745 -11.368   2.753  0.00  0.00    +0.124 C 
BRANCH  28  29
ATOM     29  O   UNL     1       4.054 -11.552   1.370  0.00  0.00    -0.391 OA
ATOM     30  H   UNL     1       4.984 -11.398   1.151  0.00  0.00    +0.210 HD
ENDBRANCH  28  29
BRANCH  28  31
ATOM     31  C   UNL     1       4.573 -12.342   3.594  0.00  0.00    +0.189 C 
BRANCH  31  32
ATOM     32  O   UNL     1       4.182 -13.683   3.294  0.00  0.00    -0.370 OA
BRANCH  32  33
ATOM     33  C   UNL     1       4.899 -14.676   4.030  0.00  0.00    +0.234 C 
BRANCH  33  34
ATOM     34  C   UNL     1       4.409 -16.045   3.636  0.00  0.00    +0.130 A 
ATOM     35  C   UNL     1       4.908 -16.805   2.644  0.00  0.00    +0.047 A 
ATOM     36  C   UNL     1       4.155 -18.001   2.625  0.00  0.00    +0.041 A 
ATOM     37  C   UNL     1       3.240 -17.901   3.606  0.00  0.00    +0.195 A 
ATOM     38  O   UNL     1       3.402 -16.717   4.219  0.00  0.00    -0.465 OA
ENDBRANCH  33  34
ENDBRANCH  32  33
ENDBRANCH  31  32
ENDBRANCH  28  31
ENDBRANCH  27  28
ENDBRANCH  20  27
ENDBRANCH   1  20
TORSDOF 14
