REMARK  Name = ZINC06074496
REMARK  12 active torsions:
REMARK  status: ('A' for Active; 'I' for Inactive)
REMARK    1  A    between atoms: C_1  and  C_2
REMARK    2  A    between atoms: C_2  and  C_3
REMARK    3  A    between atoms: C_2  and  C_4
REMARK    4  A    between atoms: C_2  and  N_5
REMARK    5  A    between atoms: C_6  and  C_8
REMARK    6  A    between atoms: C_8  and  C_10
REMARK    7  A    between atoms: C_8  and  N_17
REMARK    8  A    between atoms: N_17  and  C_18
REMARK    9  A    between atoms: C_18  and  C_19
REMARK   10  A    between atoms: C_25  and  C_27
REMARK   11  A    between atoms: C_28  and  N_35
REMARK   12  A    between atoms: C_29  and  C_32
REMARK                            x       y       z     vdW  Elec       q    Type
REMARK                         _______ _______ _______ _____ _____    ______ ____
ROOT
ATOM      1  N   UNL     1      -0.779   5.685  -0.606  0.00  0.00    -0.279 N 
ATOM      2  C   UNL     1      -0.508   6.574  -1.582  0.00  0.00    +0.257 C 
ATOM      3  O   UNL     1       0.644   6.891  -1.815  0.00  0.00    -0.269 OA
ENDROOT
BRANCH   2   4
ATOM      4  C   UNL     1      -1.600   7.159  -2.363  0.00  0.00    +0.115 A 
ATOM      5  C   UNL     1      -1.540   7.990  -3.483  0.00  0.00    +0.076 A 
ATOM      6  C   UNL     1      -2.805   8.342  -3.955  0.00  0.00    +0.155 A 
ATOM      7  N   UNL     1      -3.872   7.894  -3.332  0.00  0.00    -0.203 NA
ATOM      8  S   UNL     1      -3.360   7.007  -2.134  0.00  0.00    +0.019 S 
BRANCH   6   9
ATOM      9  C   UNL     1      -2.943   9.213  -5.137  0.00  0.00    +0.262 C 
ATOM     10  O   UNL     1      -1.952   9.624  -5.709  0.00  0.00    -0.269 OA
ATOM     11  N   UNL     1      -4.169   9.553  -5.583  0.00  0.00    -0.324 N 
ATOM     12  H   UNL     1      -4.960   9.226  -5.127  0.00  0.00    +0.145 HD
ATOM     13  H   UNL     1      -4.260  10.126  -6.361  0.00  0.00    +0.145 HD
ENDBRANCH   6   9
BRANCH   5  14
ATOM     14  N   UNL     1      -0.354   8.416  -4.066  0.00  0.00    -0.355 N 
ATOM     15  H   UNL     1       0.497   8.135  -3.694  0.00  0.00    +0.142 HD
ATOM     16  H   UNL     1      -0.376   8.993  -4.844  0.00  0.00    +0.142 HD
ENDBRANCH   5  14
ENDBRANCH   2   4
BRANCH   1  17
ATOM     17  C   UNL     1       0.307   5.150   0.219  0.00  0.00    +0.193 C 
BRANCH  17  18
ATOM     18  C   UNL     1       1.036   4.076  -0.547  0.00  0.00    -0.018 A 
ATOM     19  C   UNL     1       2.419   4.058  -0.563  0.00  0.00    +0.009 A 
ATOM     20  C   UNL     1       3.089   3.074  -1.265  0.00  0.00    +0.038 A 
ATOM     21  C   UNL     1       2.376   2.107  -1.953  0.00  0.00    +0.123 A 
ATOM     22  C   UNL     1       0.991   2.130  -1.941  0.00  0.00    +0.038 A 
ATOM     23  C   UNL     1       0.323   3.111  -1.234  0.00  0.00    +0.009 A 
ATOM     24  F   UNL     1       3.030   1.145  -2.640  0.00  0.00    -0.205 F 
ENDBRANCH  17  18
BRANCH  17  26
ATOM     25  N   UNL     1       0.547   3.962   2.375  0.00  0.00    -0.309 N 
ATOM     26  C   UNL     1      -0.265   4.563   1.484  0.00  0.00    +0.238 C 
ATOM     27  O   UNL     1      -1.457   4.632   1.699  0.00  0.00    -0.273 OA
ATOM     28  H   UNL     1       1.491   3.859   2.178  0.00  0.00    +0.149 HD
BRANCH  25  30
ATOM     29  C   UNL     1      -1.004   2.349   3.362  0.00  0.00    +0.031 C 
ATOM     30  C   UNL     1       0.004   3.465   3.642  0.00  0.00    +0.026 C 
ATOM     31  C   UNL     1       1.143   2.918   4.505  0.00  0.00    +0.031 C 
ATOM     32  C   UNL     1      -0.692   4.609   4.382  0.00  0.00    +0.031 C 
ENDBRANCH  25  30
ENDBRANCH  17  26
ENDBRANCH   1  17
BRANCH   1  33
ATOM     33  C   UNL     1      -2.159   5.255  -0.369  0.00  0.00    +0.140 C 
BRANCH  33  34
ATOM     34  C   UNL     1      -2.884   6.308   0.472  0.00  0.00    +0.136 C 
ATOM     35  C   UNL     1      -4.259   5.769   0.915  0.00  0.00    +0.035 C 
ATOM     36  C   UNL     1      -4.208   5.826   2.461  0.00  0.00    +0.031 C 
ATOM     37  C   UNL     1      -3.084   6.863   2.711  0.00  0.00    +0.160 C 
ATOM     38  O   UNL     1      -2.130   6.585   1.664  0.00  0.00    -0.375 OA
ENDBRANCH  33  34
ENDBRANCH   1  33
TORSDOF 9
