REMARK  Name = ZINC15275315
REMARK  8 active torsions:
REMARK  status: ('A' for Active; 'I' for Inactive)
REMARK    1  A    between atoms: C_1  and  C_2
REMARK    2  A    between atoms: C_6  and  N_8
REMARK    3  A    between atoms: C_9  and  C_25
REMARK    4  A    between atoms: C_12  and  S_13
REMARK    5  A    between atoms: S_13  and  C_14
REMARK    6  A    between atoms: C_14  and  C_15
REMARK    7  A    between atoms: N_17  and  C_18
REMARK    8  A    between atoms: C_23  and  C_24
REMARK                            x       y       z     vdW  Elec       q    Type
REMARK                         _______ _______ _______ _____ _____    ______ ____
ROOT
ATOM      1  N   UNL     1       0.068  -2.827   2.379  0.00  0.00    -0.270 N 
ATOM      2  C   UNL     1      -0.905  -3.675   2.861  0.00  0.00    +0.171 A 
ATOM      3  N   UNL     1      -0.482  -4.127   4.020  0.00  0.00    -0.128 NA
ATOM      4  N   UNL     1       0.670  -3.628   4.293  0.00  0.00    -0.122 NA
ATOM      5  C   UNL     1       1.060  -2.832   3.325  0.00  0.00    +0.197 A 
ENDROOT
BRANCH   2   6
ATOM      6  C   UNL     1      -2.182  -4.012   2.200  0.00  0.00    +0.045 A 
ATOM      7  C   UNL     1      -2.621  -3.552   1.000  0.00  0.00    +0.095 A 
ATOM      8  N   UNL     1      -3.846  -4.085   0.723  0.00  0.00    -0.360 N 
ATOM      9  H   UNL     1      -4.361  -3.905  -0.079  0.00  0.00    +0.165 HD
ATOM     10  C   UNL     1      -4.245  -4.919   1.745  0.00  0.00    +0.047 A 
ATOM     11  C   UNL     1      -3.225  -4.918   2.712  0.00  0.00    +0.010 A 
ATOM     12  C   UNL     1      -3.357  -5.686   3.866  0.00  0.00    +0.011 A 
ATOM     13  C   UNL     1      -4.489  -6.448   4.053  0.00  0.00    +0.001 A 
ATOM     14  C   UNL     1      -5.496  -6.453   3.098  0.00  0.00    +0.002 A 
ATOM     15  C   UNL     1      -5.383  -5.691   1.955  0.00  0.00    +0.026 A 
ENDBRANCH   2   6
BRANCH   1  21
ATOM     16  C   UNL     1      -0.028   1.480   0.007  0.00  0.00    +0.044 C 
ATOM     17  C   UNL     1       0.003  -0.027  -0.006  0.00  0.00    -0.048 A 
ATOM     18  C   UNL     1       0.014  -0.707  -1.210  0.00  0.00    +0.003 A 
ATOM     19  C   UNL     1       0.043  -2.090  -1.225  0.00  0.00    +0.002 A 
ATOM     20  C   UNL     1       0.061  -2.795  -0.037  0.00  0.00    +0.026 A 
ATOM     21  C   UNL     1       0.050  -2.114   1.172  0.00  0.00    +0.051 A 
ATOM     22  C   UNL     1       0.026  -0.726   1.185  0.00  0.00    +0.029 A 
ENDBRANCH   1  21
BRANCH   5  23
ATOM     23  S   UNL     1       2.574  -1.933   3.256  0.00  0.00    -0.076 S 
BRANCH  23  24
ATOM     24  C   UNL     1       3.419  -2.378   4.798  0.00  0.00    +0.173 C 
BRANCH  24  25
ATOM     25  C   UNL     1       4.746  -1.667   4.867  0.00  0.00    +0.227 C 
ATOM     26  O   UNL     1       5.088  -0.933   3.965  0.00  0.00    -0.275 OA
ATOM     27  N   UNL     1       5.553  -1.848   5.932  0.00  0.00    -0.285 N 
ATOM     28  H   UNL     1       5.246  -2.371   6.689  0.00  0.00    +0.155 HD
BRANCH  27  29
ATOM     29  C   UNL     1       6.832  -1.282   5.944  0.00  0.00    +0.036 A 
ATOM     30  C   UNL     1       7.477  -0.994   4.748  0.00  0.00    +0.023 A 
ATOM     31  C   UNL     1       8.740  -0.435   4.764  0.00  0.00    +0.002 A 
ATOM     32  C   UNL     1       9.362  -0.162   5.968  0.00  0.00    +0.000 A 
ATOM     33  C   UNL     1       8.723  -0.448   7.160  0.00  0.00    +0.005 A 
ATOM     34  C   UNL     1       7.457  -1.001   7.152  0.00  0.00    -0.029 A 
ATOM     35  C   UNL     1       6.758  -1.305   8.452  0.00  0.00    +0.045 C 
ENDBRANCH  27  29
ENDBRANCH  24  25
ENDBRANCH  23  24
ENDBRANCH   5  23
TORSDOF 6
