REMARK  Name = ZINC11423550
REMARK  9 active torsions:
REMARK  status: ('A' for Active; 'I' for Inactive)
REMARK    1  A    between atoms: C_1  and  C_2
REMARK    2  A    between atoms: C_11  and  S_16
REMARK    3  A    between atoms: N_12  and  C_13
REMARK    4  A    between atoms: S_16  and  C_17
REMARK    5  A    between atoms: C_17  and  C_18
REMARK    6  A    between atoms: C_18  and  C_20
REMARK    7  A    between atoms: C_20  and  C_30
REMARK    8  A    between atoms: C_30  and  O_32
REMARK    9  A    between atoms: O_32  and  C_33
REMARK                            x       y       z     vdW  Elec       q    Type
REMARK                         _______ _______ _______ _____ _____    ______ ____
ROOT
ATOM      1  C   UNL     1      -1.387   2.083   1.289  0.00  0.00    +0.183 C 
ATOM      2  O   UNL     1      -1.412   3.294   1.384  0.00  0.00    -0.291 OA
ENDROOT
BRANCH   1   3
ATOM      3  C   UNL     1      -0.186   1.385   1.510  0.00  0.00    +0.138 C 
ATOM      4  C   UNL     1       0.988   2.090   1.837  0.00  0.00    +0.110 C 
ATOM      5  N   UNL     1       1.085   3.437   1.966  0.00  0.00    -0.301 N 
ATOM      6  C   UNL     1       2.398   3.750   2.297  0.00  0.00    +0.054 A 
ATOM      7  C   UNL     1       3.054   4.948   2.546  0.00  0.00    +0.025 A 
ATOM      8  C   UNL     1       4.400   4.945   2.852  0.00  0.00    +0.002 A 
ATOM      9  C   UNL     1       5.100   3.751   2.913  0.00  0.00    +0.002 A 
ATOM     10  C   UNL     1       4.458   2.554   2.667  0.00  0.00    +0.025 A 
ATOM     11  C   UNL     1       3.104   2.547   2.358  0.00  0.00    +0.054 A 
ATOM     12  N   UNL     1       2.203   1.530   2.068  0.00  0.00    -0.301 N 
ATOM     13  H   UNL     1       0.362   4.073   1.849  0.00  0.00    +0.153 HD
ATOM     14  H   UNL     1       2.406   0.582   2.035  0.00  0.00    +0.153 HD
BRANCH   3  15
ATOM     15  C   UNL     1      -0.155  -0.072   1.395  0.00  0.00    +0.345 C 
ATOM     16  O   UNL     1       0.884  -0.675   1.582  0.00  0.00    -0.245 OA
BRANCH  15  17
ATOM     17  O   UNL     1      -1.280  -0.747   1.082  0.00  0.00    -0.464 OA
ATOM     18  C   UNL     1      -1.178  -2.170   0.986  0.00  0.00    +0.280 C 
ENDBRANCH  15  17
ENDBRANCH   3  15
ENDBRANCH   1   3
BRANCH   1  19
ATOM     19  C   UNL     1      -2.642   1.329   0.932  0.00  0.00    +0.157 C 
BRANCH  19  20
ATOM     20  S   UNL     1      -4.009   2.501   0.712  0.00  0.00    -0.078 S 
BRANCH  20  31
ATOM     21  C   UNL     1     -13.022   0.339  -0.704  0.00  0.00    +0.007 C 
ATOM     22  C   UNL     1     -11.582   0.223  -0.199  0.00  0.00    -0.011 C 
ATOM     23  C   UNL     1     -10.726  -0.483  -1.254  0.00  0.00    +0.022 C 
ATOM     24  C   UNL     1      -9.275  -0.541  -0.769  0.00  0.00    +0.108 C 
ATOM     25  N   UNL     1      -8.778   0.821  -0.541  0.00  0.00    -0.300 N 
ATOM     26  C   UNL     1      -9.556   1.502   0.503  0.00  0.00    +0.108 C 
ATOM     27  C   UNL     1     -11.015   1.622   0.056  0.00  0.00    +0.022 C 
ATOM     28  C   UNL     1      -7.425   0.812  -0.226  0.00  0.00    +0.221 A 
ATOM     29  N   UNL     1      -6.663  -0.250  -0.137  0.00  0.00    -0.112 NA
ATOM     30  N   UNL     1      -5.370   0.172   0.199  0.00  0.00    -0.121 NA
ATOM     31  C   UNL     1      -5.385   1.478   0.305  0.00  0.00    +0.194 A 
ATOM     32  N   UNL     1      -6.657   1.907   0.050  0.00  0.00    -0.287 N 
BRANCH  32  33
ATOM     33  C   UNL     1      -7.116   3.299   0.065  0.00  0.00    +0.093 C 
ATOM     34  C   UNL     1      -6.052   4.395  -0.020  0.00  0.00    +0.027 C 
ATOM     35  C   UNL     1      -6.783   4.138   1.300  0.00  0.00    +0.027 C 
ENDBRANCH  32  33
ENDBRANCH  20  31
ENDBRANCH  19  20
ENDBRANCH   1  19
TORSDOF 7
