REMARK  Name = ZINC11997789
REMARK  12 active torsions:
REMARK  status: ('A' for Active; 'I' for Inactive)
REMARK    1  A    between atoms: C_1  and  C_2
REMARK    2  A    between atoms: C_5  and  N_25
REMARK    3  A    between atoms: C_7  and  S_8
REMARK    4  A    between atoms: S_8  and  N_11
REMARK    5  A    between atoms: N_11  and  C_12
REMARK    6  A    between atoms: C_12  and  C_13
REMARK    7  A    between atoms: C_13  and  C_15
REMARK    8  A    between atoms: C_13  and  N_59
REMARK    9  A    between atoms: C_18  and  O_21
REMARK   10  A    between atoms: O_21  and  C_22
REMARK   11  A    between atoms: C_23  and  N_59
REMARK   12  A    between atoms: C_24  and  N_59
REMARK                            x       y       z     vdW  Elec       q    Type
REMARK                         _______ _______ _______ _____ _____    ______ ____
ROOT
ATOM      1  S   UNL     1       0.023   4.985  -2.482  0.00  0.00    +0.059 S 
ATOM      2  O   UNL     1      -0.197   4.780  -1.093  0.00  0.00    -0.153 OA
ATOM      3  O   UNL     1       1.325   5.016  -3.051  0.00  0.00    -0.153 OA
ENDROOT
BRANCH   1  10
ATOM      4  C   UNL     1      -0.115   4.722  -5.490  0.00  0.00    +0.046 C 
ATOM      5  C   UNL     1      -0.869   3.679  -4.707  0.00  0.00    -0.024 A 
ATOM      6  C   UNL     1      -1.559   2.682  -5.372  0.00  0.00    +0.007 A 
ATOM      7  C   UNL     1      -2.256   1.727  -4.657  0.00  0.00    +0.025 A 
ATOM      8  C   UNL     1      -2.253   1.763  -3.269  0.00  0.00    +0.061 A 
ATOM      9  C   UNL     1      -1.554   2.762  -2.604  0.00  0.00    +0.054 A 
ATOM     10  C   UNL     1      -0.864   3.717  -3.325  0.00  0.00    +0.110 A 
BRANCH   8  11
ATOM     11  N   UNL     1      -2.954   0.795  -2.541  0.00  0.00    -0.144 N 
ATOM     12  C   UNL     1      -3.430   0.935  -1.295  0.00  0.00    +0.240 C 
ATOM     13  O   UNL     1      -3.302   1.982  -0.696  0.00  0.00    -0.274 OA
ATOM     14  C   UNL     1      -4.129  -0.230  -0.661  0.00  0.00    +0.122 C 
ATOM     15  C   UNL     1      -4.560  -1.219  -1.777  0.00  0.00    +0.198 C 
ATOM     16  S   UNL     1      -3.339  -0.747  -3.069  0.00  0.00    +0.052 S 
ATOM     17  O   UNL     1      -3.975  -0.574  -4.329  0.00  0.00    -0.155 OA
ATOM     18  O   UNL     1      -2.145  -1.506  -2.942  0.00  0.00    -0.155 OA
ENDBRANCH   8  11
ENDBRANCH   1  10
BRANCH   1  19
ATOM     19  N   UNL     1      -0.696   6.425  -2.869  0.00  0.00    -0.191 NA
ATOM     20  H   UNL     1      -0.197   7.104  -3.349  0.00  0.00    +0.148 HD
BRANCH  19  21
ATOM     21  C   UNL     1      -2.088   6.675  -2.485  0.00  0.00    +0.095 C 
BRANCH  21  22
ATOM     22  C   UNL     1      -2.360   8.181  -2.505  0.00  0.00    -0.023 C 
BRANCH  22  23
ATOM     23  C   UNL     1      -3.793   8.438  -2.116  0.00  0.00    -0.059 A 
ATOM     24  C   UNL     1      -4.088   8.956  -0.869  0.00  0.00    +0.005 A 
ATOM     25  C   UNL     1      -5.401   9.197  -0.513  0.00  0.00    +0.046 A 
ATOM     26  C   UNL     1      -6.424   8.909  -1.404  0.00  0.00    +0.120 A 
ATOM     27  C   UNL     1      -6.126   8.384  -2.653  0.00  0.00    +0.046 A 
ATOM     28  C   UNL     1      -4.811   8.150  -3.006  0.00  0.00    +0.005 A 
BRANCH  26  29
ATOM     29  O   UNL     1      -7.717   9.139  -1.053  0.00  0.00    -0.495 OA
ATOM     30  C   UNL     1      -7.949   9.681   0.248  0.00  0.00    +0.277 C 
ENDBRANCH  26  29
ENDBRANCH  22  23
BRANCH  22  33
ATOM     31  C   UNL     1      -1.317   8.061  -0.323  0.00  0.00    -0.096 C 
ATOM     32  C   UNL     1      -0.159   9.130  -2.161  0.00  0.00    -0.096 C 
ATOM     33  N   UNL     1      -1.478   8.877  -1.544  0.00  0.00    +0.381 N 
ATOM     34  H   UNL     1      -1.906   9.776  -1.290  0.00  0.00    -0.082 HD
ENDBRANCH  22  33
ENDBRANCH  21  22
ENDBRANCH  19  21
ENDBRANCH   1  19
TORSDOF 8
