REMARK  Name = ZINC13423840
REMARK  6 active torsions:
REMARK  status: ('A' for Active; 'I' for Inactive)
REMARK    1  A    between atoms: C_1  and  C_2
REMARK    2  A    between atoms: C_5  and  O_28
REMARK    3  A    between atoms: C_18  and  C_27
REMARK    4  A    between atoms: C_23  and  C_25
REMARK    5  A    between atoms: C_25  and  O_26
REMARK    6  A    between atoms: O_28  and  C_29
REMARK                            x       y       z     vdW  Elec       q    Type
REMARK                         _______ _______ _______ _____ _____    ______ ____
ROOT
ATOM      1  C   UNL     1      -1.822  -0.675  -4.671  0.00  0.00    +0.012 C 
ATOM      2  C   UNL     1      -1.452   0.799  -4.853  0.00  0.00    -0.026 C 
ATOM      3  C   UNL     1      -2.393   1.438  -5.877  0.00  0.00    +0.010 C 
ATOM      4  C   UNL     1      -2.258   0.714  -7.218  0.00  0.00    +0.032 C 
ATOM      5  C   UNL     1      -0.814   0.822  -7.713  0.00  0.00    +0.122 C 
ATOM      6  C   UNL     1       0.125   0.180  -6.690  0.00  0.00    +0.035 C 
ATOM      7  C   UNL     1      -0.009   0.905  -5.350  0.00  0.00    -0.002 C 
ATOM      8  C   UNL     1       0.932   0.266  -4.327  0.00  0.00    +0.004 C 
ATOM      9  C   UNL     1       0.797   0.988  -2.985  0.00  0.00    +0.004 C 
ATOM     10  C   UNL     1      -0.645   0.873  -2.489  0.00  0.00    -0.004 C 
ATOM     11  C   UNL     1      -1.584   1.527  -3.515  0.00  0.00    -0.001 C 
ATOM     12  C   UNL     1      -3.035   1.497  -3.046  0.00  0.00    +0.005 C 
ATOM     13  C   UNL     1      -3.188   2.139  -1.656  0.00  0.00    +0.007 C 
ATOM     14  C   UNL     1      -2.275   1.387  -0.709  0.00  0.00    -0.024 C 
ATOM     15  C   UNL     1      -0.815   1.624  -1.182  0.00  0.00    -0.001 C 
ATOM     16  C   UNL     1      -0.013   1.086   0.008  0.00  0.00    +0.005 C 
ATOM     17  C   UNL     1      -0.803   1.618   1.235  0.00  0.00    +0.006 C 
ATOM     18  C   UNL     1      -2.256   1.862   0.740  0.00  0.00    +0.021 C 
ATOM     19  C   UNL     1      -2.598  -0.108  -0.758  0.00  0.00    +0.012 C 
ENDROOT
BRANCH  18  20
ATOM     20  C   UNL     1      -3.244   1.049   1.579  0.00  0.00    +0.160 C 
BRANCH  20  21
ATOM     21  O   UNL     1      -3.298   1.583   2.903  0.00  0.00    -0.395 OA
ATOM     22  H   UNL     1      -3.906   1.116   3.491  0.00  0.00    +0.209 HD
ENDBRANCH  20  21
ENDBRANCH  18  20
BRANCH   5  23
ATOM     23  O   UNL     1      -0.469   2.199  -7.879  0.00  0.00    -0.348 OA
BRANCH  23  24
ATOM     24  C   UNL     1      -0.749   2.715  -9.181  0.00  0.00    +0.250 C 
ATOM     25  C   UNL     1      -0.459   4.218  -9.208  0.00  0.00    +0.061 C 
ATOM     26  C   UNL     1      -0.704   4.753 -10.622  0.00  0.00    +0.007 C 
ATOM     27  C   UNL     1       0.172   3.974 -11.609  0.00  0.00    +0.028 C 
ATOM     28  C   UNL     1      -0.143   2.481 -11.490  0.00  0.00    +0.163 C 
ATOM     29  O   UNL     1       0.076   2.055 -10.144  0.00  0.00    -0.351 OA
ENDBRANCH  23  24
ENDBRANCH   5  23
TORSDOF 4
