REMARK  Name = ZINC34774478
REMARK  6 active torsions:
REMARK  status: ('A' for Active; 'I' for Inactive)
REMARK    1  A    between atoms: C_2  and  C_3
REMARK    2  A    between atoms: C_3  and  N_4
REMARK    3  A    between atoms: C_12  and  C_28
REMARK    4  A    between atoms: C_17  and  S_19
REMARK    5  A    between atoms: S_19  and  C_20
REMARK    6  A    between atoms: C_20  and  C_21
REMARK                            x       y       z     vdW  Elec       q    Type
REMARK                         _______ _______ _______ _____ _____    ______ ____
ROOT
ATOM      1  N   UNL     1      -0.482  -1.533  -3.425  0.00  0.00    +0.384 N 
ATOM      2  C   UNL     1      -1.031  -2.195  -4.616  0.00  0.00    -0.059 C 
ATOM      3  C   UNL     1      -2.154  -3.150  -4.196  0.00  0.00    +0.088 C 
ATOM      4  N   UNL     1      -1.627  -4.071  -3.177  0.00  0.00    -0.318 N 
ATOM      5  C   UNL     1      -0.914  -3.496  -2.025  0.00  0.00    +0.088 C 
ATOM      6  C   UNL     1       0.150  -2.525  -2.547  0.00  0.00    -0.059 C 
ATOM      7  C   UNL     1      -1.796  -5.438  -3.299  0.00  0.00    +0.134 A 
ATOM      8  C   UNL     1      -3.066  -6.029  -3.058  0.00  0.00    +0.055 A 
ATOM      9  C   UNL     1      -4.326  -5.398  -2.675  0.00  0.00    +0.002 A 
ATOM     10  C   UNL     1      -5.418  -6.179  -2.501  0.00  0.00    +0.056 A 
ATOM     11  S   UNL     1      -4.815  -7.820  -2.845  0.00  0.00    -0.076 S 
ATOM     12  C   UNL     1      -3.125  -7.428  -3.211  0.00  0.00    +0.115 A 
ATOM     13  N   UNL     1      -2.061  -8.129  -3.556  0.00  0.00    -0.214 NA
ATOM     14  C   UNL     1      -0.900  -7.525  -3.768  0.00  0.00    +0.191 A 
ATOM     15  N   UNL     1      -0.778  -6.208  -3.646  0.00  0.00    -0.206 NA
ATOM     16  H   UNL     1      -1.228  -1.071  -2.927  0.00  0.00    -0.081 HD
ENDROOT
BRANCH   9  17
ATOM     17  C   UNL     1      -4.407  -3.932  -2.479  0.00  0.00    -0.017 A 
ATOM     18  C   UNL     1      -3.615  -3.309  -1.514  0.00  0.00    +0.008 A 
ATOM     19  C   UNL     1      -3.695  -1.943  -1.337  0.00  0.00    +0.001 A 
ATOM     20  C   UNL     1      -4.559  -1.191  -2.113  0.00  0.00    +0.000 A 
ATOM     21  C   UNL     1      -5.347  -1.803  -3.071  0.00  0.00    +0.001 A 
ATOM     22  C   UNL     1      -5.272  -3.168  -3.262  0.00  0.00    +0.008 A 
ENDBRANCH   9  17
BRANCH   1  23
ATOM     23  C   UNL     1       0.517  -0.538  -3.837  0.00  0.00    -0.052 C 
BRANCH  23  25
ATOM     24  C   UNL     1      -0.029   1.800  -4.275  0.00  0.00    +0.002 C 
ATOM     25  C   UNL     1      -0.155   0.548  -4.637  0.00  0.00    -0.053 C 
ENDBRANCH  23  25
ENDBRANCH   1  23
BRANCH  14  26
ATOM     26  S   UNL     1       0.504  -8.485  -4.227  0.00  0.00    -0.081 S 
BRANCH  26  27
ATOM     27  C   UNL     1      -0.125 -10.186  -4.276  0.00  0.00    +0.114 C 
BRANCH  27  28
ATOM     28  C   UNL     1       0.991 -11.123  -4.661  0.00  0.00    -0.019 A 
ATOM     29  C   UNL     1       1.224 -11.411  -5.993  0.00  0.00    +0.006 A 
ATOM     30  C   UNL     1       2.247 -12.270  -6.346  0.00  0.00    +0.000 A 
ATOM     31  C   UNL     1       3.039 -12.842  -5.368  0.00  0.00    +0.001 A 
ATOM     32  C   UNL     1       2.807 -12.556  -4.036  0.00  0.00    +0.020 A 
ATOM     33  C   UNL     1       1.786 -11.691  -3.682  0.00  0.00    +0.045 A 
ATOM     34 CL   UNL     1       1.499 -11.325  -2.009  0.00  0.00    -0.083 Cl
ENDBRANCH  27  28
ENDBRANCH  26  27
ENDBRANCH  14  26
TORSDOF 6
