REMARK  Name = ZINC13065546
REMARK  9 active torsions:
REMARK  status: ('A' for Active; 'I' for Inactive)
REMARK    1  A    between atoms: C_1  and  C_2
REMARK    2  A    between atoms: C_12  and  C_14
REMARK    3  A    between atoms: C_14  and  N_57
REMARK    4  A    between atoms: C_15  and  C_16
REMARK    5  A    between atoms: C_15  and  N_57
REMARK    6  A    between atoms: C_21  and  C_22
REMARK    7  A    between atoms: C_21  and  N_57
REMARK    8  A    between atoms: N_26  and  C_27
REMARK    9  A    between atoms: C_27  and  C_28
REMARK                            x       y       z     vdW  Elec       q    Type
REMARK                         _______ _______ _______ _____ _____    ______ ____
ROOT
ATOM      1  N   UNL     1       1.744  -2.710  -1.494  0.00  0.00    +0.392 N 
ATOM      2  H   UNL     1       0.911  -2.596  -2.083  0.00  0.00    -0.080 HD
ENDROOT
BRANCH   1   3
ATOM      3  C   UNL     1       1.937  -4.147  -1.209  0.00  0.00    -0.036 C 
BRANCH   3  15
ATOM      4  C   UNL     1      -3.625  -6.384   1.486  0.00  0.00    +0.046 C 
ATOM      5  C   UNL     1      -3.115  -6.436   0.070  0.00  0.00    -0.026 A 
ATOM      6  C   UNL     1      -3.869  -7.037  -0.916  0.00  0.00    +0.005 A 
ATOM      7  C   UNL     1      -3.410  -7.091  -2.224  0.00  0.00    +0.001 A 
ATOM      8  C   UNL     1      -2.201  -6.550  -2.561  0.00  0.00    +0.010 A 
ATOM      9  C   UNL     1      -1.419  -5.936  -1.577  0.00  0.00    -0.001 A 
ATOM     10  C   UNL     1      -1.881  -5.879  -0.249  0.00  0.00    +0.052 A 
ATOM     11  N   UNL     1      -1.106  -5.272   0.717  0.00  0.00    -0.322 N 
ATOM     12  H   UNL     1      -1.426  -5.234   1.632  0.00  0.00    +0.169 HD
ATOM     13  C   UNL     1       0.086  -4.733   0.408  0.00  0.00    +0.251 A 
ATOM     14  O   UNL     1       0.745  -4.204   1.287  0.00  0.00    -0.268 OA
ATOM     15  C   UNL     1       0.595  -4.764  -0.908  0.00  0.00    +0.001 A 
ATOM     16  C   UNL     1      -0.121  -5.341  -1.904  0.00  0.00    +0.017 A 
ENDBRANCH   3  15
ENDBRANCH   1   3
BRANCH   1  17
ATOM     17  C   UNL     1       2.919  -2.176  -2.215  0.00  0.00    -0.002 C 
BRANCH  17  18
ATOM     18  C   UNL     1       2.891  -2.689  -3.632  0.00  0.00    +0.089 A 
ATOM     19  C   UNL     1       2.357  -2.051  -4.689  0.00  0.00    +0.042 A 
ATOM     20  C   UNL     1       2.551  -2.887  -5.813  0.00  0.00    +0.041 A 
ATOM     21  C   UNL     1       3.192  -3.986  -5.375  0.00  0.00    +0.195 A 
ATOM     22  O   UNL     1       3.400  -3.858  -4.054  0.00  0.00    -0.470 OA
ENDBRANCH  17  18
ENDBRANCH   1  17
BRANCH   1  23
ATOM     23  C   UNL     1       1.546  -1.966  -0.232  0.00  0.00    +0.001 C 
BRANCH  23  24
ATOM     24  C   UNL     1       1.204  -0.535  -0.558  0.00  0.00    +0.135 A 
ATOM     25  N   UNL     1       2.050   0.439  -0.785  0.00  0.00    -0.115 NA
ATOM     26  N   UNL     1       1.372   1.507  -1.027  0.00  0.00    -0.023 NA
ATOM     27  N   UNL     1       0.114   1.239  -0.961  0.00  0.00    -0.044 NA
ATOM     28  N   UNL     1      -0.030  -0.010  -0.673  0.00  0.00    -0.227 N 
BRANCH  28  29
ATOM     29  C   UNL     1      -1.299  -0.723  -0.505  0.00  0.00    +0.182 C 
BRANCH  29  30
ATOM     30  C   UNL     1      -1.829  -1.131  -1.855  0.00  0.00    -0.026 A 
ATOM     31  C   UNL     1      -2.582  -0.241  -2.598  0.00  0.00    +0.008 A 
ATOM     32  C   UNL     1      -3.066  -0.612  -3.839  0.00  0.00    +0.038 A 
ATOM     33  C   UNL     1      -2.804  -1.879  -4.333  0.00  0.00    +0.123 A 
ATOM     34  C   UNL     1      -2.054  -2.771  -3.585  0.00  0.00    +0.038 A 
ATOM     35  C   UNL     1      -1.568  -2.396  -2.347  0.00  0.00    +0.008 A 
ATOM     36  F   UNL     1      -3.280  -2.244  -5.543  0.00  0.00    -0.205 F 
ENDBRANCH  29  30
ENDBRANCH  28  29
ENDBRANCH  23  24
ENDBRANCH   1  23
TORSDOF 8
