REMARK  Name = ZINC03595910
REMARK  6 active torsions:
REMARK  status: ('A' for Active; 'I' for Inactive)
REMARK    1  A    between atoms: C_1  and  C_2
REMARK    2  A    between atoms: C_2  and  C_3
REMARK    3  A    between atoms: C_6  and  N_9
REMARK    4  A    between atoms: C_10  and  C_12
REMARK    5  A    between atoms: C_12  and  N_13
REMARK    6  A    between atoms: C_21  and  C_23
REMARK                            x       y       z     vdW  Elec       q    Type
REMARK                         _______ _______ _______ _____ _____    ______ ____
ROOT
ATOM      1  N   UNL     1      -2.267   5.716   7.046  0.00  0.00    -0.215 N 
ATOM      2  C   UNL     1      -2.714   6.946   6.720  0.00  0.00    +0.247 C 
ATOM      3  O   UNL     1      -3.667   7.220   6.021  0.00  0.00    -0.273 OA
ATOM      4  C   UNL     1      -1.778   7.912   7.410  0.00  0.00    +0.115 C 
ATOM      5  C   UNL     1      -2.545   8.775   8.406  0.00  0.00    +0.035 C 
ATOM      6  C   UNL     1      -1.576   9.726   9.114  0.00  0.00    +0.003 C 
ATOM      7  C   UNL     1      -0.881  10.609   8.076  0.00  0.00    +0.000 C 
ATOM      8  C   UNL     1      -0.097   9.730   7.100  0.00  0.00    +0.006 C 
ATOM      9  C   UNL     1      -1.059   8.780   6.384  0.00  0.00    +0.018 C 
ATOM     10  C   UNL     1      -0.273   7.887   5.423  0.00  0.00    +0.010 C 
ATOM     11  N   UNL     1      -0.823   7.043   8.110  0.00  0.00    -0.285 N 
ATOM     12  C   UNL     1      -1.193   5.776   7.843  0.00  0.00    +0.310 C 
ATOM     13  O   UNL     1      -0.615   4.798   8.273  0.00  0.00    -0.252 OA
ATOM     14  H   UNL     1      -0.076   7.326   8.660  0.00  0.00    +0.151 HD
ENDROOT
BRANCH   1  15
ATOM     15  C   UNL     1      -2.884   4.468   6.589  0.00  0.00    +0.214 C 
BRANCH  15  17
ATOM     16  N   UNL     1      -2.667   2.914   4.677  0.00  0.00    -0.284 N 
ATOM     17  C   UNL     1      -2.255   4.043   5.288  0.00  0.00    +0.235 C 
ATOM     18  O   UNL     1      -1.377   4.716   4.791  0.00  0.00    -0.274 OA
ATOM     19  H   UNL     1      -3.420   2.417   5.033  0.00  0.00    +0.155 HD
BRANCH  16  23
ATOM     20  C   UNL     1      -0.708   1.564   1.257  0.00  0.00    -0.048 A 
ATOM     21  C   UNL     1      -2.069   1.364   1.396  0.00  0.00    +0.005 A 
ATOM     22  C   UNL     1      -2.721   1.806   2.531  0.00  0.00    +0.023 A 
ATOM     23  C   UNL     1      -2.009   2.461   3.528  0.00  0.00    +0.033 A 
ATOM     24  C   UNL     1      -0.643   2.664   3.382  0.00  0.00    +0.023 A 
ATOM     25  C   UNL     1       0.004   2.215   2.248  0.00  0.00    +0.005 A 
BRANCH  20  27
ATOM     26  C   UNL     1       0.498  -0.353   0.247  0.00  0.00    +0.009 C 
ATOM     27  C   UNL     1       0.000   1.076   0.019  0.00  0.00    +0.032 C 
ENDBRANCH  20  27
ENDBRANCH  16  23
ENDBRANCH  15  17
ENDBRANCH   1  15
TORSDOF 4
