REMARK  Name = ZINC59231897
REMARK  4 active torsions:
REMARK  status: ('A' for Active; 'I' for Inactive)
REMARK    1  A    between atoms: C_4  and  C_7
REMARK    2  A    between atoms: C_8  and  C_9
REMARK    3  A    between atoms: C_12  and  C_13
REMARK    4  A    between atoms: C_17  and  N_19
REMARK                            x       y       z     vdW  Elec       q    Type
REMARK                         _______ _______ _______ _____ _____    ______ ____
ROOT
ATOM      1  C   UNL     1       4.993  -2.743  -0.119  0.00  0.00    +0.126 C 
ATOM      2  N   UNL     1       6.167  -2.159  -0.105  0.00  0.00    -0.227 NA
ATOM      3  C   UNL     1       7.142  -3.107  -0.101  0.00  0.00    +0.128 C 
ATOM      4  C   UNL     1       8.504  -2.896  -0.087  0.00  0.00    +0.041 C 
ATOM      5  C   UNL     1       6.446  -4.410  -0.115  0.00  0.00    +0.268 C 
ATOM      6  O   UNL     1       6.954  -5.516  -0.117  0.00  0.00    -0.268 OA
ATOM      7  N   UNL     1       5.127  -4.115  -0.120  0.00  0.00    -0.265 N 
ATOM      8  H   UNL     1       4.401  -4.758  -0.126  0.00  0.00    +0.157 HD
ENDROOT
BRANCH   4   9
ATOM      9  C   UNL     1       9.035  -1.533  -0.189  0.00  0.00    -0.021 A 
ATOM     10  C   UNL     1       8.165  -0.434  -0.167  0.00  0.00    +0.008 A 
ATOM     11  C   UNL     1       8.673   0.843  -0.263  0.00  0.00    +0.003 A 
ATOM     12  C   UNL     1      10.039   1.043  -0.381  0.00  0.00    +0.033 A 
ATOM     13  C   UNL     1      10.905  -0.036  -0.403  0.00  0.00    +0.127 A 
ATOM     14  C   UNL     1      10.415  -1.321  -0.302  0.00  0.00    +0.040 A 
BRANCH  13  15
ATOM     15  N   UNL     1      12.362   0.190  -0.529  0.00  0.00    +0.056 N 
ATOM     16  O   UNL     1      12.794   1.316  -0.612  0.00  0.00    -0.126 OA
ATOM     17  O   UNL     1      13.121  -0.752  -0.548  0.00  0.00    -0.126 OA
ENDBRANCH  13  15
ENDBRANCH   4   9
BRANCH   1  19
ATOM     18  C   UNL     1       3.689  -0.686  -0.125  0.00  0.00    +0.011 C 
ATOM     19  C   UNL     1       3.713  -2.034  -0.126  0.00  0.00    +0.044 C 
BRANCH  18  23
ATOM     20  C   UNL     1      -0.022   1.369  -0.147  0.00  0.00    +0.000 A 
ATOM     21  C   UNL     1       1.161   2.086  -0.138  0.00  0.00    +0.001 A 
ATOM     22  C   UNL     1       2.372   1.426  -0.130  0.00  0.00    +0.008 A 
ATOM     23  C   UNL     1       2.401   0.027  -0.132  0.00  0.00    -0.025 A 
ATOM     24  C   UNL     1       1.200  -0.690  -0.141  0.00  0.00    +0.008 A 
ATOM     25  C   UNL     1      -0.002  -0.015  -0.148  0.00  0.00    +0.001 A 
ENDBRANCH  18  23
ENDBRANCH   1  19
TORSDOF 4
