REMARK  Name = ZINC01457908
REMARK  4 active torsions:
REMARK  status: ('A' for Active; 'I' for Inactive)
REMARK    1  A    between atoms: C_5  and  C_7
REMARK    2  A    between atoms: N_9  and  C_10
REMARK    3  A    between atoms: C_10  and  C_11
REMARK    4  A    between atoms: N_13  and  N_14
REMARK                            x       y       z     vdW  Elec       q    Type
REMARK                         _______ _______ _______ _____ _____    ______ ____
ROOT
ATOM      1  C   UNL     1      -1.278  -4.863   0.122  0.00  0.00    +0.249 C 
ATOM      2  O   UNL     1      -2.195  -4.117   0.394  0.00  0.00    -0.272 OA
ATOM      3  N   UNL     1      -1.516  -6.171  -0.095  0.00  0.00    -0.205 N 
ATOM      4  H   UNL     1      -0.783  -6.768  -0.313  0.00  0.00    +0.177 HD
ENDROOT
BRANCH   3   5
ATOM      5  N   UNL     1      -2.822  -6.670  -0.006  0.00  0.00    -0.174 NA
ATOM      6  C   UNL     1      -3.040  -7.959  -0.110  0.00  0.00    +0.153 C 
ATOM      7  C   UNL     1      -2.033  -9.045  -0.138  0.00  0.00    +0.031 A 
ATOM      8  C   UNL     1      -0.644  -9.057  -0.069  0.00  0.00    +0.032 A 
ATOM      9  C   UNL     1       0.035 -10.259  -0.121  0.00  0.00    +0.043 A 
ATOM     10  C   UNL     1      -0.667 -11.447  -0.243  0.00  0.00    +0.042 A 
ATOM     11  C   UNL     1      -2.046 -11.445  -0.312  0.00  0.00    +0.064 A 
ATOM     12  C   UNL     1      -2.746 -10.243  -0.260  0.00  0.00    +0.062 A 
ATOM     13  N   UNL     1      -4.109  -9.965  -0.309  0.00  0.00    -0.278 N 
ATOM     14  C   UNL     1      -4.344  -8.644  -0.219  0.00  0.00    +0.269 C 
ATOM     15  O   UNL     1      -5.436  -8.109  -0.229  0.00  0.00    -0.268 OA
ATOM     16 CL   UNL     1      -2.909 -12.944  -0.466  0.00  0.00    -0.082 Cl
ATOM     17 CL   UNL     1       1.769 -10.280  -0.036  0.00  0.00    -0.083 Cl
ATOM     18  H   UNL     1      -4.802 -10.638  -0.393  0.00  0.00    +0.155 HD
ENDBRANCH   3   5
BRANCH   1  19
ATOM     19  C   UNL     1       0.127  -4.326   0.026  0.00  0.00    +0.202 C 
BRANCH  19  22
ATOM     20  C   UNL     1       1.273  -2.190   0.273  0.00  0.00    +0.246 C 
ATOM     21  O   UNL     1       2.318  -2.755   0.017  0.00  0.00    -0.270 OA
ATOM     22  N   UNL     1       0.120  -2.887   0.303  0.00  0.00    -0.303 N 
ATOM     23  H   UNL     1      -0.714  -2.437   0.507  0.00  0.00    +0.150 HD
BRANCH  20  28
ATOM     24  C   UNL     1       0.067   1.268   1.105  0.00  0.00    +0.001 A 
ATOM     25  C   UNL     1       1.253   1.982   1.074  0.00  0.00    +0.001 A 
ATOM     26  C   UNL     1       2.445   1.343   0.784  0.00  0.00    +0.016 A 
ATOM     27  C   UNL     1       2.459  -0.013   0.523  0.00  0.00    +0.030 A 
ATOM     28  C   UNL     1       1.266  -0.739   0.552  0.00  0.00    +0.051 A 
ATOM     29  C   UNL     1       0.067  -0.087   0.846  0.00  0.00    +0.014 A 
ATOM     30 BR   UNL     1       4.089  -0.885   0.125  0.00  0.00    -0.050 Br
ENDBRANCH  20  28
ENDBRANCH  19  22
ENDBRANCH   1  19
TORSDOF 4
