REMARK  Name = ZINC35937957
REMARK  2 active torsions:
REMARK  status: ('A' for Active; 'I' for Inactive)
REMARK    1  A    between atoms: C_6  and  C_7
REMARK    2  A    between atoms: C_7  and  N_8
REMARK                            x       y       z     vdW  Elec       q    Type
REMARK                         _______ _______ _______ _____ _____    ______ ____
ROOT
ATOM      1  N   UNL     1      -1.726  -1.017  -1.374  0.00  0.00    +0.383 N 
ATOM      2  C   UNL     1      -0.752  -1.886  -2.045  0.00  0.00    -0.075 C 
ATOM      3  C   UNL     1      -1.154  -2.075  -3.509  0.00  0.00    +0.027 C 
ATOM      4  C   UNL     1      -2.543  -2.718  -3.572  0.00  0.00    +0.095 C 
ATOM      5  C   UNL     1      -3.536  -1.842  -2.805  0.00  0.00    +0.027 C 
ATOM      6  C   UNL     1      -3.045  -1.660  -1.367  0.00  0.00    -0.075 C 
ATOM      7  N   UNL     1      -2.489  -4.047  -2.952  0.00  0.00    -0.323 N 
ATOM      8  C   UNL     1      -1.924  -5.097  -3.668  0.00  0.00    +0.041 A 
ATOM      9  C   UNL     1      -1.305  -6.161  -3.035  0.00  0.00    +0.025 A 
ATOM     10  C   UNL     1      -0.766  -7.186  -3.789  0.00  0.00    +0.016 A 
ATOM     11  C   UNL     1      -0.842  -7.158  -5.173  0.00  0.00    +0.014 A 
ATOM     12  C   UNL     1      -1.452  -6.102  -5.820  0.00  0.00    +0.029 A 
ATOM     13  C   UNL     1      -1.995  -5.060  -5.072  0.00  0.00    +0.059 A 
ATOM     14  C   UNL     1      -2.635  -3.899  -5.716  0.00  0.00    +0.247 C 
ATOM     15  O   UNL     1      -2.863  -3.909  -6.910  0.00  0.00    -0.270 OA
ATOM     16  N   UNL     1      -2.966  -2.827  -4.969  0.00  0.00    -0.291 N 
ATOM     17  I   UNL     1      -0.022  -8.728  -6.292  0.00  0.00    -0.044 I 
ATOM     18  H   UNL     1      -2.841  -4.191  -2.060  0.00  0.00    +0.148 HD
ATOM     19  H   UNL     1      -3.494  -2.115  -5.364  0.00  0.00    +0.151 HD
ATOM     20  H   UNL     1      -1.784  -0.138  -1.866  0.00  0.00    -0.081 HD
ENDROOT
BRANCH   1  21
ATOM     21  C   UNL     1      -1.293  -0.774   0.009  0.00  0.00    -0.043 C 
BRANCH  21  27
ATOM     22  C   UNL     1      -0.017   1.378   0.010  0.00  0.00    +0.005 A 
ATOM     23  C   UNL     1       1.170   2.088   0.002  0.00  0.00    +0.049 A 
ATOM     24  C   UNL     1       2.382   1.415  -0.013  0.00  0.00    +0.162 A 
ATOM     25  C   UNL     1       2.401   0.025  -0.018  0.00  0.00    +0.162 A 
ATOM     26  C   UNL     1       1.207  -0.681  -0.011  0.00  0.00    +0.051 A 
ATOM     27  C   UNL     1       0.002  -0.004   0.002  0.00  0.00    -0.060 A 
ATOM     28  O   UNL     1       3.579  -0.656  -0.024  0.00  0.00    -0.485 OA
ATOM     29  C   UNL     1       4.746   0.081  -0.406  0.00  0.00    +0.270 C 
ATOM     30  C   UNL     1       4.733   1.422   0.340  0.00  0.00    +0.270 C 
ATOM     31  O   UNL     1       3.542   2.127  -0.024  0.00  0.00    -0.485 OA
ENDBRANCH  21  27
ENDBRANCH   1  21
TORSDOF 2
