REMARK  Name = ZINC45917080
REMARK  8 active torsions:
REMARK  status: ('A' for Active; 'I' for Inactive)
REMARK    1  A    between atoms: C_6  and  C_7
REMARK    2  A    between atoms: C_10  and  C_12
REMARK    3  A    between atoms: C_12  and  S_13
REMARK    4  A    between atoms: S_13  and  C_14
REMARK    5  A    between atoms: C_17  and  C_20
REMARK    6  A    between atoms: N_18  and  N_19
REMARK    7  A    between atoms: C_20  and  O_21
REMARK    8  A    between atoms: O_21  and  C_22
REMARK                            x       y       z     vdW  Elec       q    Type
REMARK                         _______ _______ _______ _____ _____    ______ ____
ROOT
ATOM      1  C   UNL     1      -4.378  -5.853  -1.516  0.00  0.00    +0.209 A 
ATOM      2  N   UNL     1      -4.664  -6.463  -0.389  0.00  0.00    -0.121 NA
ATOM      3  N   UNL     1      -5.203  -7.603  -0.635  0.00  0.00    -0.128 NA
ATOM      4  C   UNL     1      -5.292  -7.788  -1.922  0.00  0.00    +0.189 A 
ATOM      5  N   UNL     1      -4.775  -6.677  -2.529  0.00  0.00    -0.225 N 
ENDROOT
BRANCH   5   6
ATOM      6  N   UNL     1      -4.673  -6.442  -3.871  0.00  0.00    -0.295 N 
ATOM      7  H   UNL     1      -3.795  -6.783  -4.232  0.00  0.00    +0.163 HD
ATOM      8  H   UNL     1      -5.451  -6.848  -4.369  0.00  0.00    +0.163 HD
ENDBRANCH   5   6
BRANCH   1   9
ATOM      9  S   UNL     1      -3.629  -4.267  -1.687  0.00  0.00    -0.075 S 
BRANCH   9  10
ATOM     10  C   UNL     1      -3.359  -3.721   0.022  0.00  0.00    +0.175 C 
BRANCH  10  14
ATOM     11  C   UNL     1      -1.266  -0.763   0.011  0.00  0.00    +0.248 A 
ATOM     12  N   UNL     1      -2.477  -0.257   0.019  0.00  0.00    -0.107 NA
ATOM     13  N   UNL     1      -3.337  -1.214   0.024  0.00  0.00    -0.111 NA
ATOM     14  C   UNL     1      -2.715  -2.359   0.018  0.00  0.00    +0.228 A 
ATOM     15  O   UNL     1      -1.395  -2.105   0.005  0.00  0.00    -0.419 OA
BRANCH  11  21
ATOM     16  C   UNL     1      -0.017   1.391   0.010  0.00  0.00    +0.014 A 
ATOM     17  C   UNL     1       1.170   2.095   0.002  0.00  0.00    +0.021 A 
ATOM     18  C   UNL     1       2.378   1.419  -0.013  0.00  0.00    +0.041 A 
ATOM     19  C   UNL     1       2.403   0.034  -0.022  0.00  0.00    +0.021 A 
ATOM     20  C   UNL     1       1.223  -0.680  -0.014  0.00  0.00    +0.014 A 
ATOM     21  C   UNL     1       0.002  -0.004   0.002  0.00  0.00    +0.039 A 
ATOM     22 CL   UNL     1       3.868   2.310  -0.024  0.00  0.00    -0.084 Cl
ENDBRANCH  11  21
ENDBRANCH  10  14
ENDBRANCH   9  10
ENDBRANCH   1   9
BRANCH   4  23
ATOM     23  C   UNL     1      -5.864  -8.998  -2.613  0.00  0.00    +0.306 C 
BRANCH  23  24
ATOM     24  O   UNL     1      -7.263  -8.806  -2.831  0.00  0.00    -0.484 OA
BRANCH  24  25
ATOM     25  C   UNL     1      -7.936  -9.812  -3.449  0.00  0.00    +0.121 A 
ATOM     26  C   UNL     1      -7.264 -10.963  -3.832  0.00  0.00    +0.048 A 
ATOM     27  C   UNL     1      -7.949 -11.986  -4.460  0.00  0.00    +0.042 A 
ATOM     28  C   UNL     1      -9.306 -11.861  -4.707  0.00  0.00    +0.124 A 
ATOM     29  C   UNL     1      -9.978 -10.712  -4.325  0.00  0.00    +0.042 A 
ATOM     30  C   UNL     1      -9.297  -9.691  -3.691  0.00  0.00    +0.048 A 
ATOM     31  F   UNL     1      -9.975 -12.861  -5.322  0.00  0.00    -0.205 F 
ENDBRANCH  24  25
ENDBRANCH  23  24
ENDBRANCH   4  23
TORSDOF 8
