REMARK  Name = ZINC35840580
REMARK  13 active torsions:
REMARK  status: ('A' for Active; 'I' for Inactive)
REMARK    1  A    between atoms: C_3  and  C_14
REMARK    2  A    between atoms: N_4  and  C_6
REMARK    3  A    between atoms: C_6  and  C_7
REMARK    4  A    between atoms: C_14  and  N_15
REMARK    5  A    between atoms: N_15  and  C_16
REMARK    6  A    between atoms: N_15  and  C_23
REMARK    7  A    between atoms: C_16  and  C_17
REMARK    8  A    between atoms: C_23  and  C_24
REMARK    9  A    between atoms: C_24  and  C_26
REMARK   10  A    between atoms: C_24  and  O_34
REMARK   11  A    between atoms: C_26  and  O_27
REMARK   12  A    between atoms: O_27  and  C_28
REMARK   13  A    between atoms: C_28  and  C_29
REMARK                            x       y       z     vdW  Elec       q    Type
REMARK                         _______ _______ _______ _____ _____    ______ ____
ROOT
ATOM      1  N   UNL     1       2.703   0.085   1.052  0.00  0.00    +0.385 N 
ATOM      2  H   UNL     1       2.126   0.836   1.401  0.00  0.00    -0.081 HD
ENDROOT
BRANCH   1   3
ATOM      3  C   UNL     1       2.659   0.075  -0.416  0.00  0.00    -0.024 C 
BRANCH   3   6
ATOM      4  C   UNL     1      -0.772  -0.571  -1.613  0.00  0.00    +0.019 A 
ATOM      5  C   UNL     1       0.521  -1.010  -1.268  0.00  0.00    +0.021 A 
ATOM      6  C   UNL     1       1.224   0.072  -0.876  0.00  0.00    +0.003 A 
ATOM      7  N   UNL     1       0.411   1.163  -0.966  0.00  0.00    -0.348 N 
ATOM      8  C   UNL     1      -0.811   0.763  -1.419  0.00  0.00    +0.086 A 
BRANCH   7   9
ATOM      9  C   UNL     1       0.789   2.539  -0.632  0.00  0.00    +0.156 C 
BRANCH   9  10
ATOM     10  C   UNL     1       1.395   3.202  -1.842  0.00  0.00    -0.028 A 
ATOM     11  C   UNL     1       2.768   3.330  -1.945  0.00  0.00    +0.008 A 
ATOM     12  C   UNL     1       3.324   3.938  -3.054  0.00  0.00    +0.038 A 
ATOM     13  C   UNL     1       2.507   4.417  -4.064  0.00  0.00    +0.123 A 
ATOM     14  C   UNL     1       1.132   4.288  -3.960  0.00  0.00    +0.038 A 
ATOM     15  C   UNL     1       0.578   3.675  -2.852  0.00  0.00    +0.008 A 
ATOM     16  F   UNL     1       3.050   5.011  -5.149  0.00  0.00    -0.205 F 
ENDBRANCH   9  10
ENDBRANCH   7   9
ENDBRANCH   3   6
ENDBRANCH   1   3
BRANCH   1  17
ATOM     17  C   UNL     1       2.201  -1.196   1.566  0.00  0.00    -0.075 C 
BRANCH  17  18
ATOM     18  C   UNL     1       0.695  -1.092   1.815  0.00  0.00    -0.028 C 
ATOM     19  C   UNL     1       0.436  -0.140   2.984  0.00  0.00    +0.002 C 
ATOM     20  C   UNL     1      -1.071  -0.036   3.232  0.00  0.00    +0.000 C 
ATOM     21  C   UNL     1      -1.629  -1.420   3.568  0.00  0.00    +0.000 C 
ATOM     22  C   UNL     1      -1.370  -2.372   2.399  0.00  0.00    +0.000 C 
ATOM     23  C   UNL     1       0.136  -2.476   2.150  0.00  0.00    +0.002 C 
ENDBRANCH  17  18
ENDBRANCH   1  17
BRANCH   1  24
ATOM     24  C   UNL     1       4.088   0.284   1.500  0.00  0.00    -0.044 C 
BRANCH  24  25
ATOM     25  C   UNL     1       4.092   0.729   2.963  0.00  0.00    +0.124 C 
BRANCH  25  26
ATOM     26  O   UNL     1       3.502  -0.290   3.773  0.00  0.00    -0.391 OA
ATOM     27  H   UNL     1       4.009  -1.113   3.800  0.00  0.00    +0.210 HD
ENDBRANCH  25  26
BRANCH  25  28
ATOM     28  C   UNL     1       5.533   0.972   3.418  0.00  0.00    +0.189 C 
BRANCH  28  29
ATOM     29  O   UNL     1       5.530   1.498   4.747  0.00  0.00    -0.370 OA
BRANCH  29  30
ATOM     30  C   UNL     1       6.834   1.762   5.270  0.00  0.00    +0.234 C 
BRANCH  30  31
ATOM     31  C   UNL     1       6.713   2.312   6.668  0.00  0.00    +0.130 A 
ATOM     32  C   UNL     1       6.699   1.585   7.800  0.00  0.00    +0.047 A 
ATOM     33  C   UNL     1       6.570   2.498   8.871  0.00  0.00    +0.041 A 
ATOM     34  C   UNL     1       6.513   3.729   8.330  0.00  0.00    +0.195 A 
ATOM     35  O   UNL     1       6.606   3.610   6.995  0.00  0.00    -0.465 OA
ENDBRANCH  30  31
ENDBRANCH  29  30
ENDBRANCH  28  29
ENDBRANCH  25  28
ENDBRANCH  24  25
ENDBRANCH   1  24
TORSDOF 13
