REMARK  Name = ZINC53491598
REMARK  7 active torsions:
REMARK  status: ('A' for Active; 'I' for Inactive)
REMARK    1  A    between atoms: C_1  and  C_2
REMARK    2  A    between atoms: C_2  and  C_3
REMARK    3  A    between atoms: C_2  and  C_4
REMARK    4  A    between atoms: C_7  and  C_10
REMARK    5  A    between atoms: C_10  and  C_12
REMARK    6  A    between atoms: C_10  and  N_17
REMARK    7  A    between atoms: C_23  and  C_26
REMARK                            x       y       z     vdW  Elec       q    Type
REMARK                         _______ _______ _______ _____ _____    ______ ____
ROOT
ATOM      1  C   UNL     1      -5.421  -2.004   0.041  0.00  0.00    +0.142 C 
ENDROOT
BRANCH   1   2
ATOM      2  N   UNL     1      -5.432  -3.390  -0.432  0.00  0.00    -0.288 N 
ATOM      3  C   UNL     1      -6.424  -4.222  -0.057  0.00  0.00    +0.303 C 
ATOM      4  O   UNL     1      -7.258  -3.851   0.746  0.00  0.00    -0.253 OA
ATOM      5  N   UNL     1      -6.491  -5.466  -0.572  0.00  0.00    -0.286 N 
ATOM      6  C   UNL     1      -5.428  -5.970  -1.453  0.00  0.00    +0.110 C 
ATOM      7  C   UNL     1      -6.062  -6.472  -2.754  0.00  0.00    +0.032 C 
ATOM      8  C   UNL     1      -7.146  -7.500  -2.425  0.00  0.00    +0.078 C 
ATOM      9  C   UNL     1      -8.238  -6.841  -1.579  0.00  0.00    +0.032 C 
ATOM     10  C   UNL     1      -7.626  -6.345  -0.260  0.00  0.00    +0.110 C 
ATOM     11  H   UNL     1      -4.725  -3.710  -1.015  0.00  0.00    +0.151 HD
BRANCH   8  12
ATOM     12  C   UNL     1      -7.749  -8.021  -3.704  0.00  0.00    +0.214 C 
ATOM     13  O   UNL     1      -7.351  -7.611  -4.773  0.00  0.00    -0.276 OA
ATOM     14  N   UNL     1      -8.731  -8.944  -3.660  0.00  0.00    -0.329 N 
ATOM     15  H   UNL     1      -9.049  -9.273  -2.804  0.00  0.00    +0.145 HD
ATOM     16  H   UNL     1      -9.118  -9.279  -4.483  0.00  0.00    +0.145 HD
ENDBRANCH   8  12
ENDBRANCH   1   2
BRANCH   1  20
ATOM     17  C   UNL     1      -1.414  -0.522   0.010  0.00  0.00    -0.045 A 
ATOM     18  C   UNL     1      -2.262  -0.201   1.053  0.00  0.00    +0.004 A 
ATOM     19  C   UNL     1      -3.558  -0.680   1.063  0.00  0.00    +0.006 A 
ATOM     20  C   UNL     1      -4.007  -1.481   0.030  0.00  0.00    -0.022 A 
ATOM     21  C   UNL     1      -3.160  -1.802  -1.014  0.00  0.00    +0.006 A 
ATOM     22  C   UNL     1      -1.865  -1.319  -1.026  0.00  0.00    +0.004 A 
BRANCH  17  24
ATOM     23  C   UNL     1      -0.022   1.530   0.005  0.00  0.00    +0.012 C 
ATOM     24  C   UNL     1      -0.001   0.000  -0.002  0.00  0.00    +0.013 C 
ATOM     25  C   UNL     1       0.740  -0.505   1.238  0.00  0.00    +0.012 C 
ENDBRANCH  17  24
ENDBRANCH   1  20
BRANCH   1  26
ATOM     26  C   UNL     1      -6.277  -1.157  -0.864  0.00  0.00    +0.014 A 
ATOM     27  C   UNL     1      -7.128  -0.153  -0.541  0.00  0.00    +0.013 A 
ATOM     28  C   UNL     1      -7.818   0.492  -1.550  0.00  0.00    +0.008 A 
ATOM     29  C   UNL     1      -7.623   0.102  -2.833  0.00  0.00    +0.045 A 
ATOM     30  S   UNL     1      -6.429  -1.211  -2.642  0.00  0.00    -0.099 S 
ENDBRANCH   1  26
TORSDOF 5
