REMARK  Name = ZINC39292639
REMARK  4 active torsions:
REMARK  status: ('A' for Active; 'I' for Inactive)
REMARK    1  A    between atoms: C_3  and  C_11
REMARK    2  A    between atoms: C_6  and  C_9
REMARK    3  A    between atoms: C_9  and  O_10
REMARK    4  A    between atoms: C_11  and  O_12
REMARK                            x       y       z     vdW  Elec       q    Type
REMARK                         _______ _______ _______ _____ _____    ______ ____
ROOT
ATOM      1  C   UNL     1      -0.019   1.522   0.010  0.00  0.00    +0.002 C 
ATOM      2  C   UNL     1       1.400   2.083  -0.000  0.00  0.00    +0.016 C 
ATOM      3  C   UNL     1       2.068   1.838   1.356  0.00  0.00    +0.072 C 
ATOM      4  S   UNL     1       2.188   0.045   1.632  0.00  0.00    -0.149 S 
ATOM      5  C   UNL     1       0.484  -0.527   1.359  0.00  0.00    +0.072 C 
ATOM      6  C   UNL     1       0.002  -0.004   0.002  0.00  0.00    +0.016 C 
ENDROOT
BRANCH   5   7
ATOM      7  C   UNL     1      -0.422   0.008   2.470  0.00  0.00    +0.170 C 
BRANCH   7   8
ATOM      8  O   UNL     1      -1.778  -0.345   2.190  0.00  0.00    -0.394 OA
ATOM      9  H   UNL     1      -2.409  -0.037   2.855  0.00  0.00    +0.209 HD
ENDBRANCH   7   8
ENDBRANCH   5   7
BRANCH   3  10
ATOM     10  C   UNL     1       3.468   2.456   1.357  0.00  0.00    +0.170 C 
BRANCH  10  11
ATOM     11  O   UNL     1       3.379   3.839   1.009  0.00  0.00    -0.394 OA
ATOM     12  H   UNL     1       4.231   4.295   0.990  0.00  0.00    +0.209 HD
ENDBRANCH  10  11
ENDBRANCH   3  10
TORSDOF 4
