REMARK  Name = ZINC08868853
REMARK  10 active torsions:
REMARK  status: ('A' for Active; 'I' for Inactive)
REMARK    1  A    between atoms: C_1  and  C_2
REMARK    2  A    between atoms: C_2  and  N_62
REMARK    3  A    between atoms: C_8  and  N_15
REMARK    4  A    between atoms: C_9  and  C_10
REMARK    5  A    between atoms: C_10  and  O_12
REMARK    6  A    between atoms: O_12  and  C_13
REMARK    7  A    between atoms: C_13  and  C_14
REMARK    8  A    between atoms: C_16  and  C_18
REMARK    9  A    between atoms: N_23  and  S_24
REMARK   10  A    between atoms: S_24  and  C_27
REMARK                            x       y       z     vdW  Elec       q    Type
REMARK                         _______ _______ _______ _____ _____    ______ ____
ROOT
ATOM      1  N   UNL     1       0.102   3.804  -4.348  0.00  0.00    -0.278 N 
ATOM      2  C   UNL     1       0.258   5.101  -4.678  0.00  0.00    +0.236 C 
ATOM      3  O   UNL     1      -0.552   5.645  -5.397  0.00  0.00    -0.274 OA
ATOM      4  H   UNL     1       0.750   3.369  -3.772  0.00  0.00    +0.155 HD
ENDROOT
BRANCH   1  10
ATOM      5  C   UNL     1      -4.512  -0.189  -5.503  0.00  0.00    -0.074 C 
ATOM      6  C   UNL     1      -3.039  -0.171  -5.085  0.00  0.00    +0.018 C 
ATOM      7  C   UNL     1      -2.521   1.255  -5.230  0.00  0.00    -0.025 A 
ATOM      8  C   UNL     1      -3.200   2.151  -5.982  0.00  0.00    -0.021 A 
ATOM      9  S   UNL     1      -2.260   3.644  -5.866  0.00  0.00    -0.079 S 
ATOM     10  C   UNL     1      -0.984   3.091  -4.831  0.00  0.00    +0.086 A 
ATOM     11  C   UNL     1      -1.313   1.760  -4.604  0.00  0.00    +0.091 A 
ATOM     12  C   UNL     1      -4.469   1.898  -6.735  0.00  0.00    -0.035 C 
ATOM     13  N   UNL     1      -4.650   0.429  -6.838  0.00  0.00    +0.383 N 
ATOM     14  H   UNL     1      -3.928   0.046  -7.460  0.00  0.00    -0.081 HD
BRANCH  13  16
ATOM     15  C   UNL     1      -6.016   0.576  -8.864  0.00  0.00    -0.017 C 
ATOM     16  C   UNL     1      -5.982   0.122  -7.403  0.00  0.00    -0.082 C 
ENDBRANCH  13  16
BRANCH  11  17
ATOM     17  C   UNL     1      -0.477   0.903  -3.762  0.00  0.00    +0.342 C 
ATOM     18  O   UNL     1       0.428   0.260  -4.259  0.00  0.00    -0.245 OA
BRANCH  17  19
ATOM     19  O   UNL     1      -0.711   0.825  -2.436  0.00  0.00    -0.461 OA
BRANCH  19  20
ATOM     20  C   UNL     1       0.158  -0.045  -1.663  0.00  0.00    +0.229 C 
ATOM     21  C   UNL     1      -0.257  -0.003  -0.191  0.00  0.00    +0.048 C 
ENDBRANCH  19  20
ENDBRANCH  17  19
ENDBRANCH  11  17
ENDBRANCH   1  10
BRANCH   2  22
ATOM     22  C   UNL     1       1.439   5.876  -4.153  0.00  0.00    +0.166 C 
ATOM     23  C   UNL     1       1.089   6.505  -2.788  0.00  0.00    +0.031 C 
ATOM     24  C   UNL     1       1.783   7.894  -2.860  0.00  0.00    +0.019 C 
ATOM     25  C   UNL     1       1.609   8.254  -4.356  0.00  0.00    +0.110 C 
ATOM     26  N   UNL     1       1.765   6.975  -5.073  0.00  0.00    -0.165 NA
BRANCH  26  27
ATOM     27  S   UNL     1       2.232   6.805  -6.652  0.00  0.00    +0.062 S 
ATOM     28  O   UNL     1       1.851   5.495  -7.050  0.00  0.00    -0.153 OA
ATOM     29  O   UNL     1       1.785   7.968  -7.335  0.00  0.00    -0.153 OA
BRANCH  27  30
ATOM     30  C   UNL     1       3.993   6.849  -6.683  0.00  0.00    +0.106 A 
ATOM     31  C   UNL     1       4.653   8.062  -6.752  0.00  0.00    +0.031 A 
ATOM     32  C   UNL     1       6.034   8.098  -6.771  0.00  0.00    +0.040 A 
ATOM     33  C   UNL     1       6.757   6.917  -6.732  0.00  0.00    +0.124 A 
ATOM     34  C   UNL     1       6.096   5.703  -6.668  0.00  0.00    +0.040 A 
ATOM     35  C   UNL     1       4.714   5.670  -6.644  0.00  0.00    +0.031 A 
ATOM     36  F   UNL     1       8.108   6.951  -6.755  0.00  0.00    -0.205 F 
ENDBRANCH  27  30
ENDBRANCH  26  27
ENDBRANCH   2  22
TORSDOF 8
