REMARK  Name = ZINC47985309
REMARK  10 active torsions:
REMARK  status: ('A' for Active; 'I' for Inactive)
REMARK    1  A    between atoms: C_1  and  C_2
REMARK    2  A    between atoms: C_5  and  C_23
REMARK    3  A    between atoms: C_7  and  N_8
REMARK    4  A    between atoms: N_11  and  C_12
REMARK    5  A    between atoms: C_12  and  C_13
REMARK    6  A    between atoms: C_13  and  C_15
REMARK    7  A    between atoms: C_13  and  N_20
REMARK    8  A    between atoms: N_20  and  C_21
REMARK    9  A    between atoms: N_20  and  C_22
REMARK   10  A    between atoms: N_25  and  C_26
REMARK                            x       y       z     vdW  Elec       q    Type
REMARK                         _______ _______ _______ _____ _____    ______ ____
ROOT
ATOM      1  N   UNL     1       0.325   0.103   2.465  0.00  0.00    -0.269 N 
ATOM      2  C   UNL     1       0.118  -0.595   3.599  0.00  0.00    +0.304 C 
ATOM      3  O   UNL     1       0.058  -1.809   3.563  0.00  0.00    -0.253 OA
ATOM      4  N   UNL     1      -0.021   0.052   4.773  0.00  0.00    -0.300 N 
ATOM      5  H   UNL     1       0.443   1.065   2.503  0.00  0.00    +0.156 HD
ATOM      6  H   UNL     1       0.028   1.020   4.802  0.00  0.00    +0.150 HD
ENDROOT
BRANCH   1  13
ATOM      7  C   UNL     1      -0.704   1.448   0.183  0.00  0.00    +0.045 C 
ATOM      8  C   UNL     1      -0.122   0.061   0.092  0.00  0.00    -0.029 A 
ATOM      9  C   UNL     1      -0.075  -0.587  -1.128  0.00  0.00    +0.006 A 
ATOM     10  C   UNL     1       0.456  -1.857  -1.220  0.00  0.00    +0.013 A 
ATOM     11  C   UNL     1       0.948  -2.492  -0.078  0.00  0.00    +0.038 A 
ATOM     12  C   UNL     1       0.900  -1.838   1.153  0.00  0.00    +0.036 A 
ATOM     13  C   UNL     1       0.370  -0.560   1.233  0.00  0.00    +0.038 A 
BRANCH  11  14
ATOM     14  C   UNL     1       1.516  -3.854  -0.173  0.00  0.00    +0.244 C 
ATOM     15  O   UNL     1       1.944  -4.404   0.823  0.00  0.00    -0.270 OA
ATOM     16  N   UNL     1       1.560  -4.484  -1.363  0.00  0.00    -0.308 N 
ATOM     17  H   UNL     1       1.219  -4.045  -2.158  0.00  0.00    +0.149 HD
BRANCH  16  18
ATOM     18  C   UNL     1       2.124  -5.833  -1.458  0.00  0.00    +0.073 C 
ATOM     19  C   UNL     1       3.062  -6.127  -2.630  0.00  0.00    +0.024 C 
ATOM     20  C   UNL     1       1.650  -6.718  -2.612  0.00  0.00    +0.024 C 
ENDBRANCH  16  18
ENDBRANCH  11  14
ENDBRANCH   1  13
BRANCH   4  21
ATOM     21  C   UNL     1      -0.245  -0.708   6.006  0.00  0.00    +0.095 C 
BRANCH  21  22
ATOM     22  C   UNL     1      -0.490   0.262   7.164  0.00  0.00    -0.014 C 
BRANCH  22  23
ATOM     23  C   UNL     1       0.745   1.094   7.393  0.00  0.00    -0.022 A 
ATOM     24  C   UNL     1       1.004   2.364   6.995  0.00  0.00    +0.009 A 
ATOM     25  C   UNL     1       2.221   2.933   7.323  0.00  0.00    +0.008 A 
ATOM     26  C   UNL     1       3.118   2.205   8.031  0.00  0.00    +0.045 A 
ATOM     27  S   UNL     1       2.244   0.666   8.263  0.00  0.00    -0.103 S 
ENDBRANCH  22  23
BRANCH  22  28
ATOM     28  N   UNL     1      -0.800  -0.499   8.382  0.00  0.00    +0.382 N 
ATOM     29  C   UNL     1      -1.127   0.431   9.471  0.00  0.00    -0.096 C 
ATOM     30  C   UNL     1      -1.948  -1.381   8.130  0.00  0.00    -0.096 C 
ATOM     31  H   UNL     1       0.000  -1.056   8.644  0.00  0.00    -0.082 HD
ENDBRANCH  22  28
ENDBRANCH  21  22
ENDBRANCH   4  21
TORSDOF 7
