REMARK  Name = ZINC39599615
REMARK  8 active torsions:
REMARK  status: ('A' for Active; 'I' for Inactive)
REMARK    1  A    between atoms: C_3  and  O_31
REMARK    2  A    between atoms: C_6  and  C_7
REMARK    3  A    between atoms: C_7  and  N_8
REMARK    4  A    between atoms: C_9  and  C_11
REMARK    5  A    between atoms: C_22  and  C_24
REMARK    6  A    between atoms: C_24  and  C_25
REMARK    7  A    between atoms: C_25  and  C_26
REMARK    8  A    between atoms: O_31  and  C_32
REMARK                            x       y       z     vdW  Elec       q    Type
REMARK                         _______ _______ _______ _____ _____    ______ ____
ROOT
ATOM      1  C   UNL     1      -3.314  -1.941  -3.024  0.00  0.00    +0.100 C 
ATOM      2  C   UNL     1      -3.720  -0.613  -3.701  0.00  0.00    +0.121 C 
ATOM      3  N   UNL     1      -4.885  -0.965  -4.547  0.00  0.00    -0.300 N 
ATOM      4  C   UNL     1      -5.660  -1.926  -3.726  0.00  0.00    +0.115 C 
ATOM      5  C   UNL     1      -4.590  -2.799  -3.041  0.00  0.00    -0.004 C 
ATOM      6  C   UNL     1      -5.018  -3.138  -1.617  0.00  0.00    -0.010 C 
ATOM      7  C   UNL     1      -6.255  -4.040  -1.661  0.00  0.00    -0.082 C 
ATOM      8  N   UNL     1      -5.941  -5.267  -2.404  0.00  0.00    +0.379 N 
ATOM      9  C   UNL     1      -5.620  -4.940  -3.798  0.00  0.00    -0.082 C 
ATOM     10  C   UNL     1      -4.357  -4.075  -3.844  0.00  0.00    -0.010 C 
ATOM     11  C   UNL     1      -5.175  -0.514  -5.784  0.00  0.00    +0.216 C 
ATOM     12  O   UNL     1      -6.176  -0.899  -6.351  0.00  0.00    -0.276 OA
ATOM     13  H   UNL     1      -5.150  -5.724  -1.976  0.00  0.00    -0.086 HD
ATOM     14  H   UNL     1      -6.737  -5.886  -2.379  0.00  0.00    -0.086 HD
ENDROOT
BRANCH   1  16
ATOM     15  N   UNL     1      -1.970  -2.514  -1.028  0.00  0.00    -0.311 N 
ATOM     16  C   UNL     1      -2.868  -1.692  -1.606  0.00  0.00    +0.218 C 
ATOM     17  O   UNL     1      -3.318  -0.752  -0.986  0.00  0.00    -0.275 OA
ATOM     18  H   UNL     1      -1.611  -3.266  -1.524  0.00  0.00    +0.149 HD
BRANCH  15  19
ATOM     19  C   UNL     1      -1.537  -2.272   0.350  0.00  0.00    +0.139 C 
BRANCH  19  25
ATOM     20  C   UNL     1       0.812  -3.115   0.538  0.00  0.00    +0.009 A 
ATOM     21  C   UNL     1       1.730  -4.079   0.909  0.00  0.00    +0.046 A 
ATOM     22  C   UNL     1       1.296  -5.258   1.499  0.00  0.00    +0.130 A 
ATOM     23  C   UNL     1      -0.058  -5.465   1.715  0.00  0.00    +0.046 A 
ATOM     24  C   UNL     1      -0.972  -4.498   1.343  0.00  0.00    +0.009 A 
ATOM     25  C   UNL     1      -0.538  -3.325   0.755  0.00  0.00    -0.030 A 
BRANCH  22  26
ATOM     26  O   UNL     1       2.197  -6.207   1.864  0.00  0.00    -0.406 OA
BRANCH  26  27
ATOM     27  C   UNL     1       1.680  -7.396   2.466  0.00  0.00    +0.575 C 
ATOM     28  F   UNL     1       0.807  -8.028   1.573  0.00  0.00    -0.133 F 
ATOM     29  F   UNL     1       2.736  -8.259   2.776  0.00  0.00    -0.133 F 
ATOM     30  F   UNL     1       0.989  -7.063   3.636  0.00  0.00    -0.133 F 
ENDBRANCH  26  27
ENDBRANCH  22  26
ENDBRANCH  19  25
ENDBRANCH  15  19
ENDBRANCH   1  16
BRANCH  11  31
ATOM     31  C   UNL     1      -4.256   0.469  -6.461  0.00  0.00    +0.096 C 
BRANCH  31  32
ATOM     32  C   UNL     1      -4.811   0.817  -7.844  0.00  0.00    +0.013 C 
BRANCH  32  33
ATOM     33  C   UNL     1      -3.877   1.815  -8.533  0.00  0.00    -0.011 C 
ATOM     34  C   UNL     1      -3.921   3.171  -7.799  0.00  0.00    +0.003 C 
ATOM     35  C   UNL     1      -3.822   4.220  -8.934  0.00  0.00    +0.000 C 
ATOM     36  C   UNL     1      -4.673   3.584 -10.062  0.00  0.00    +0.000 C 
ATOM     37  C   UNL     1      -4.355   2.077  -9.971  0.00  0.00    +0.003 C 
ENDBRANCH  32  33
ENDBRANCH  31  32
ENDBRANCH  11  31
TORSDOF 8
