REMARK  Name = ZINC00648114
REMARK  13 active torsions:
REMARK  status: ('A' for Active; 'I' for Inactive)
REMARK    1  A    between atoms: C_1  and  C_2
REMARK    2  A    between atoms: C_9  and  N_17
REMARK    3  A    between atoms: C_10  and  C_11
REMARK    4  A    between atoms: C_11  and  O_13
REMARK    5  A    between atoms: O_13  and  C_14
REMARK    6  A    between atoms: C_14  and  C_15
REMARK    7  A    between atoms: C_14  and  C_16
REMARK    8  A    between atoms: C_18  and  C_20
REMARK    9  A    between atoms: C_20  and  C_21
REMARK   10  A    between atoms: C_24  and  O_29
REMARK   11  A    between atoms: C_25  and  O_27
REMARK   12  A    between atoms: O_27  and  C_28
REMARK   13  A    between atoms: O_29  and  C_30
REMARK                            x       y       z     vdW  Elec       q    Type
REMARK                         _______ _______ _______ _____ _____    ______ ____
ROOT
ATOM      1  C   UNL     1      -4.747   4.756   0.169  0.00  0.00    +0.008 C 
ATOM      2  C   UNL     1      -3.555   3.834   0.436  0.00  0.00    -0.009 C 
ATOM      3  C   UNL     1      -3.687   2.563  -0.407  0.00  0.00    +0.008 C 
ATOM      4  C   UNL     1      -2.643   1.536   0.034  0.00  0.00    +0.037 C 
ATOM      5  C   UNL     1      -1.270   2.197   0.020  0.00  0.00    -0.021 A 
ATOM      6  C   UNL     1      -1.147   3.542   0.033  0.00  0.00    -0.004 A 
ATOM      7  S   UNL     1       0.599   3.836   0.017  0.00  0.00    -0.077 S 
ATOM      8  C   UNL     1       1.159   2.197   0.003  0.00  0.00    +0.086 A 
ATOM      9  C   UNL     1      -0.018   1.460   0.010  0.00  0.00    +0.091 A 
ATOM     10  C   UNL     1      -2.253   4.551   0.050  0.00  0.00    +0.046 C 
ENDROOT
BRANCH   8  11
ATOM     11  N   UNL     1       2.466   1.733  -0.012  0.00  0.00    -0.279 N 
ATOM     12  C   UNL     1       3.491   2.607  -0.017  0.00  0.00    +0.222 C 
ATOM     13  O   UNL     1       3.271   3.800  -0.009  0.00  0.00    -0.275 OA
ATOM     14  H   UNL     1       2.642   0.779  -0.018  0.00  0.00    +0.155 HD
BRANCH  12  15
ATOM     15  C   UNL     1       4.911   2.103  -0.033  0.00  0.00    +0.131 C 
BRANCH  15  16
ATOM     16  C   UNL     1       5.860   3.274  -0.036  0.00  0.00    -0.035 A 
ATOM     17  C   UNL     1       6.287   3.812  -1.235  0.00  0.00    +0.008 A 
ATOM     18  C   UNL     1       7.153   4.890  -1.243  0.00  0.00    +0.049 A 
ATOM     19  C   UNL     1       7.604   5.426  -0.047  0.00  0.00    +0.161 A 
ATOM     20  C   UNL     1       7.178   4.880   1.160  0.00  0.00    +0.162 A 
ATOM     21  C   UNL     1       6.305   3.804   1.161  0.00  0.00    +0.053 A 
BRANCH  20  22
ATOM     22  O   UNL     1       7.617   5.403   2.336  0.00  0.00    -0.491 OA
ATOM     23  C   UNL     1       7.137   4.793   3.536  0.00  0.00    +0.277 C 
ENDBRANCH  20  22
BRANCH  19  24
ATOM     24  O   UNL     1       8.460   6.482  -0.053  0.00  0.00    -0.491 OA
ATOM     25  C   UNL     1       8.855   6.990  -1.329  0.00  0.00    +0.277 C 
ENDBRANCH  19  24
ENDBRANCH  15  16
ENDBRANCH  12  15
ENDBRANCH   8  11
BRANCH   9  26
ATOM     26  C   UNL     1       0.002  -0.004   0.002  0.00  0.00    +0.342 C 
ATOM     27  O   UNL     1       0.020  -0.618   1.052  0.00  0.00    -0.245 OA
BRANCH  26  28
ATOM     28  O   UNL     1       0.001  -0.672  -1.170  0.00  0.00    -0.458 OA
BRANCH  28  29
ATOM     29  C   UNL     1       0.021  -2.122  -1.102  0.00  0.00    +0.171 C 
ATOM     30  C   UNL     1      -0.704  -2.700  -2.319  0.00  0.00    +0.052 C 
ATOM     31  C   UNL     1       1.470  -2.612  -1.091  0.00  0.00    +0.052 C 
ENDBRANCH  28  29
ENDBRANCH  26  28
ENDBRANCH   9  26
TORSDOF 8
