REMARK  Name = ZINC12473196
REMARK  10 active torsions:
REMARK  status: ('A' for Active; 'I' for Inactive)
REMARK    1  A    between atoms: C_1  and  C_2
REMARK    2  A    between atoms: C_5  and  N_8
REMARK    3  A    between atoms: N_8  and  C_9
REMARK    4  A    between atoms: C_9  and  C_11
REMARK    5  A    between atoms: C_9  and  C_18
REMARK    6  A    between atoms: N_20  and  C_21
REMARK    7  A    between atoms: C_21  and  C_22
REMARK    8  A    between atoms: C_28  and  C_30
REMARK    9  A    between atoms: C_31  and  N_38
REMARK   10  A    between atoms: C_32  and  C_35
REMARK                            x       y       z     vdW  Elec       q    Type
REMARK                         _______ _______ _______ _____ _____    ______ ____
ROOT
ATOM      1  N   UNL     1      -0.483   1.420  -5.024  0.00  0.00    -0.251 N 
ATOM      2  C   UNL     1       0.505   2.083  -5.656  0.00  0.00    +0.262 C 
ATOM      3  O   UNL     1       1.225   2.841  -5.033  0.00  0.00    -0.269 OA
ENDROOT
BRANCH   1   8
ATOM      4  C   UNL     1      -4.125  -1.756  -7.997  0.00  0.00    +0.044 C 
ATOM      5  C   UNL     1      -3.157  -0.912  -7.207  0.00  0.00    -0.050 A 
ATOM      6  C   UNL     1      -3.533   0.346  -6.774  0.00  0.00    +0.005 A 
ATOM      7  C   UNL     1      -2.649   1.122  -6.050  0.00  0.00    +0.024 A 
ATOM      8  C   UNL     1      -1.381   0.637  -5.757  0.00  0.00    +0.038 A 
ATOM      9  C   UNL     1      -1.004  -0.625  -6.199  0.00  0.00    +0.024 A 
ATOM     10  C   UNL     1      -1.895  -1.397  -6.918  0.00  0.00    +0.005 A 
ENDBRANCH   1   8
BRANCH   2  11
ATOM     11  C   UNL     1       0.712   1.892  -7.093  0.00  0.00    +0.116 A 
ATOM     12  C   UNL     1       1.716   2.402  -7.918  0.00  0.00    +0.076 A 
ATOM     13  C   UNL     1       1.577   1.994  -9.244  0.00  0.00    +0.155 A 
ATOM     14  N   UNL     1       0.572   1.214  -9.575  0.00  0.00    -0.203 NA
ATOM     15  S   UNL     1      -0.245   0.941  -8.255  0.00  0.00    +0.019 S 
BRANCH  13  16
ATOM     16  C   UNL     1       2.546   2.433 -10.265  0.00  0.00    +0.262 C 
ATOM     17  O   UNL     1       3.473   3.155  -9.952  0.00  0.00    -0.269 OA
ATOM     18  N   UNL     1       2.404   2.035 -11.544  0.00  0.00    -0.324 N 
ATOM     19  H   UNL     1       1.664   1.459 -11.794  0.00  0.00    +0.145 HD
ATOM     20  H   UNL     1       3.042   2.323 -12.216  0.00  0.00    +0.145 HD
ENDBRANCH  13  16
BRANCH  12  21
ATOM     21  N   UNL     1       2.741   3.224  -7.467  0.00  0.00    -0.355 N 
ATOM     22  H   UNL     1       2.787   3.473  -6.531  0.00  0.00    +0.142 HD
ATOM     23  H   UNL     1       3.412   3.547  -8.089  0.00  0.00    +0.142 HD
ENDBRANCH  12  21
ENDBRANCH   2  11
BRANCH   1  24
ATOM     24  C   UNL     1      -0.617   1.518  -3.568  0.00  0.00    +0.197 C 
BRANCH  24  25
ATOM     25  C   UNL     1      -1.889   0.836  -3.133  0.00  0.00    -0.018 A 
ATOM     26  C   UNL     1      -2.105  -0.491  -3.455  0.00  0.00    +0.009 A 
ATOM     27  C   UNL     1      -3.269  -1.119  -3.052  0.00  0.00    +0.038 A 
ATOM     28  C   UNL     1      -4.222  -0.415  -2.336  0.00  0.00    +0.123 A 
ATOM     29  C   UNL     1      -4.006   0.915  -2.019  0.00  0.00    +0.038 A 
ATOM     30  C   UNL     1      -2.840   1.540  -2.418  0.00  0.00    +0.009 A 
ATOM     31  F   UNL     1      -5.362  -1.027  -1.946  0.00  0.00    -0.205 F 
ENDBRANCH  24  25
BRANCH  24  32
ATOM     32  C   UNL     1       0.562   0.850  -2.909  0.00  0.00    +0.239 C 
ATOM     33  O   UNL     1       1.429   0.342  -3.588  0.00  0.00    -0.273 OA
ATOM     34  N   UNL     1       0.653   0.818  -1.565  0.00  0.00    -0.311 N 
ATOM     35  H   UNL     1      -0.040   1.225  -1.022  0.00  0.00    +0.149 HD
BRANCH  34  36
ATOM     36  C   UNL     1       1.800   0.169  -0.924  0.00  0.00    +0.135 C 
BRANCH  36  37
ATOM     37  C   UNL     1       1.660   0.272   0.596  0.00  0.00    +0.135 C 
ATOM     38  C   UNL     1       2.862  -0.408   1.280  0.00  0.00    +0.035 C 
ATOM     39  C   UNL     1       3.499   0.715   2.134  0.00  0.00    +0.031 C 
ATOM     40  C   UNL     1       2.325   1.718   2.278  0.00  0.00    +0.160 C 
ATOM     41  O   UNL     1       1.667   1.653   0.995  0.00  0.00    -0.375 OA
ENDBRANCH  36  37
ENDBRANCH  34  36
ENDBRANCH  24  32
ENDBRANCH   1  24
TORSDOF 9
