REMARK  Name = ZINC06462043
REMARK  16 active torsions:
REMARK  status: ('A' for Active; 'I' for Inactive)
REMARK    1  A    between atoms: C_1  and  C_2
REMARK    2  A    between atoms: C_2  and  C_3
REMARK    3  A    between atoms: C_3  and  C_4
REMARK    4  A    between atoms: C_3  and  C_5
REMARK    5  A    between atoms: C_3  and  N_6
REMARK    6  A    between atoms: C_7  and  C_9
REMARK    7  A    between atoms: C_9  and  C_11
REMARK    8  A    between atoms: C_9  and  N_18
REMARK    9  A    between atoms: C_14  and  O_17
REMARK   10  A    between atoms: N_18  and  C_19
REMARK   11  A    between atoms: C_19  and  C_20
REMARK   12  A    between atoms: C_25  and  O_26
REMARK   13  A    between atoms: O_26  and  C_27
REMARK   14  A    between atoms: C_28  and  C_30
REMARK   15  A    between atoms: C_31  and  N_38
REMARK   16  A    between atoms: C_32  and  C_35
REMARK                            x       y       z     vdW  Elec       q    Type
REMARK                         _______ _______ _______ _____ _____    ______ ____
ROOT
ATOM      1  N   UNL     1      -2.888   1.802   0.096  0.00  0.00    -0.277 N 
ATOM      2  C   UNL     1      -3.907   1.969   0.962  0.00  0.00    +0.258 C 
ATOM      3  O   UNL     1      -3.784   2.725   1.908  0.00  0.00    -0.269 OA
ENDROOT
BRANCH   2   4
ATOM      4  C   UNL     1      -5.162   1.242   0.765  0.00  0.00    +0.115 A 
ATOM      5  C   UNL     1      -6.357   1.328   1.482  0.00  0.00    +0.076 A 
ATOM      6  C   UNL     1      -7.339   0.468   0.990  0.00  0.00    +0.155 A 
ATOM      7  N   UNL     1      -7.064  -0.298  -0.043  0.00  0.00    -0.203 NA
ATOM      8  S   UNL     1      -5.576   0.016  -0.458  0.00  0.00    +0.019 S 
BRANCH   6   9
ATOM      9  C   UNL     1      -8.670   0.418   1.621  0.00  0.00    +0.262 C 
ATOM     10  O   UNL     1      -8.918   1.129   2.576  0.00  0.00    -0.269 OA
ATOM     11  N   UNL     1      -9.614  -0.415   1.139  0.00  0.00    -0.324 N 
ATOM     12  H   UNL     1      -9.416  -0.983   0.378  0.00  0.00    +0.145 HD
ATOM     13  H   UNL     1     -10.490  -0.448   1.554  0.00  0.00    +0.145 HD
ENDBRANCH   6   9
BRANCH   5  14
ATOM     14  N   UNL     1      -6.547   2.175   2.566  0.00  0.00    -0.355 N 
ATOM     15  H   UNL     1      -5.825   2.751   2.863  0.00  0.00    +0.142 HD
ATOM     16  H   UNL     1      -7.401   2.191   3.025  0.00  0.00    +0.142 HD
ENDBRANCH   5  14
ENDBRANCH   2   4
BRANCH   1  17
ATOM     17  C   UNL     1      -1.638   2.543   0.283  0.00  0.00    +0.193 C 
BRANCH  17  18
ATOM     18  C   UNL     1      -1.490   3.563  -0.817  0.00  0.00    -0.018 A 
ATOM     19  C   UNL     1      -1.356   3.148  -2.129  0.00  0.00    +0.009 A 
ATOM     20  C   UNL     1      -1.226   4.081  -3.140  0.00  0.00    +0.046 A 
ATOM     21  C   UNL     1      -1.218   5.434  -2.836  0.00  0.00    +0.117 A 
ATOM     22  C   UNL     1      -1.347   5.848  -1.518  0.00  0.00    +0.046 A 
ATOM     23  C   UNL     1      -1.484   4.911  -0.512  0.00  0.00    +0.009 A 
BRANCH  21  24
ATOM     24  O   UNL     1      -1.084   6.354  -3.828  0.00  0.00    -0.507 OA
ATOM     25  H   UNL     1      -0.167   6.593  -4.021  0.00  0.00    +0.292 HD
ENDBRANCH  21  24
ENDBRANCH  17  18
BRANCH  17  27
ATOM     26  N   UNL     1       0.781   2.058   0.113  0.00  0.00    -0.308 N 
ATOM     27  C   UNL     1      -0.475   1.587   0.241  0.00  0.00    +0.239 C 
ATOM     28  O   UNL     1      -0.669   0.392   0.317  0.00  0.00    -0.273 OA
ATOM     29  H   UNL     1       0.934   3.011   0.018  0.00  0.00    +0.149 HD
BRANCH  26  30
ATOM     30  C   UNL     1       1.916   1.131   0.117  0.00  0.00    +0.029 C 
ATOM     31  C   UNL     1       1.928   0.346   1.430  0.00  0.00    +0.031 C 
ATOM     32  C   UNL     1       1.784   0.159  -1.057  0.00  0.00    +0.031 C 
BRANCH  30  34
ATOM     33  C   UNL     1       4.404   0.952  -0.013  0.00  0.00    +0.006 C 
ATOM     34  C   UNL     1       3.219   1.920  -0.018  0.00  0.00    +0.022 C 
ENDBRANCH  30  34
ENDBRANCH  26  30
ENDBRANCH  17  27
ENDBRANCH   1  17
BRANCH   1  35
ATOM     35  C   UNL     1      -3.030   0.877  -1.032  0.00  0.00    +0.148 C 
BRANCH  35  36
ATOM     36  C   UNL     1      -2.403  -0.447  -0.678  0.00  0.00    +0.012 A 
ATOM     37  C   UNL     1      -1.329  -0.920  -1.406  0.00  0.00    +0.009 A 
ATOM     38  C   UNL     1      -0.751  -2.133  -1.079  0.00  0.00    +0.001 A 
ATOM     39  C   UNL     1      -1.253  -2.880  -0.029  0.00  0.00    +0.004 A 
ATOM     40  C   UNL     1      -2.330  -2.413   0.699  0.00  0.00    +0.046 A 
ATOM     41  C   UNL     1      -2.908  -1.194   0.376  0.00  0.00    +0.125 A 
BRANCH  41  42
ATOM     42  O   UNL     1      -3.969  -0.733   1.090  0.00  0.00    -0.495 OA
ATOM     43  C   UNL     1      -4.363  -1.497   2.232  0.00  0.00    +0.277 C 
ENDBRANCH  41  42
ENDBRANCH  35  36
ENDBRANCH   1  35
TORSDOF 12
