REMARK  Name = ZINC03880192
REMARK  4 active torsions:
REMARK  status: ('A' for Active; 'I' for Inactive)
REMARK    1  A    between atoms: C_3  and  O_24
REMARK    2  A    between atoms: C_4  and  C_21
REMARK    3  A    between atoms: C_6  and  C_7
REMARK    4  A    between atoms: N_12  and  C_13
REMARK                            x       y       z     vdW  Elec       q    Type
REMARK                         _______ _______ _______ _____ _____    ______ ____
ROOT
ATOM      1  C   UNL     1      -1.200   1.776   0.167  0.00  0.00    +0.041 A 
ATOM      2  C   UNL     1      -0.027   1.117   0.418  0.00  0.00    +0.129 A 
ATOM      3  N   UNL     1       1.093   1.805   0.370  0.00  0.00    -0.232 NA
ATOM      4  C   UNL     1       1.095   3.096   0.093  0.00  0.00    +0.163 A 
ATOM      5  S   UNL     1      -0.594   3.430  -0.130  0.00  0.00    -0.052 S 
ATOM      6  N   UNL     1       2.172   3.963   0.003  0.00  0.00    -0.291 N 
ATOM      7  H   UNL     1       2.020   4.913  -0.123  0.00  0.00    +0.154 HD
ENDROOT
BRANCH   6   8
ATOM      8  C   UNL     1       3.478   3.470   0.094  0.00  0.00    +0.071 A 
ATOM      9  C   UNL     1       3.706   2.100   0.085  0.00  0.00    +0.064 A 
ATOM     10  C   UNL     1       4.998   1.615   0.175  0.00  0.00    +0.125 A 
ATOM     11  C   UNL     1       6.064   2.495   0.274  0.00  0.00    +0.041 A 
ATOM     12  C   UNL     1       5.839   3.859   0.284  0.00  0.00    +0.043 A 
ATOM     13  C   UNL     1       4.550   4.350   0.188  0.00  0.00    +0.145 A 
ATOM     14  F   UNL     1       4.333   5.683   0.192  0.00  0.00    -0.204 F 
ATOM     15  F   UNL     1       5.221   0.283   0.167  0.00  0.00    -0.205 F 
ENDBRANCH   6   8
BRANCH   1  21
ATOM     16  C   UNL     1      -2.834  -0.089   0.409  0.00  0.00    +0.012 A 
ATOM     17  C   UNL     1      -4.125  -0.574   0.397  0.00  0.00    +0.047 A 
ATOM     18  C   UNL     1      -5.186   0.274   0.115  0.00  0.00    +0.129 A 
ATOM     19  C   UNL     1      -4.949   1.630  -0.154  0.00  0.00    +0.078 A 
ATOM     20  C   UNL     1      -3.644   2.121  -0.136  0.00  0.00    +0.025 A 
ATOM     21  C   UNL     1      -2.586   1.261   0.147  0.00  0.00    -0.009 A 
BRANCH  19  22
ATOM     22  C   UNL     1      -6.076   2.533  -0.454  0.00  0.00    +0.245 C 
ATOM     23  O   UNL     1      -7.213   2.103  -0.468  0.00  0.00    -0.270 OA
ATOM     24  N   UNL     1      -5.845   3.836  -0.712  0.00  0.00    -0.325 N 
ATOM     25  H   UNL     1      -4.938   4.179  -0.701  0.00  0.00    +0.145 HD
ATOM     26  H   UNL     1      -6.586   4.430  -0.910  0.00  0.00    +0.145 HD
ENDBRANCH  19  22
BRANCH  18  27
ATOM     27  O   UNL     1      -6.454  -0.209   0.099  0.00  0.00    -0.506 OA
ATOM     28  H   UNL     1      -6.741  -0.534  -0.765  0.00  0.00    +0.292 HD
ENDBRANCH  18  27
ENDBRANCH   1  21
TORSDOF 4
