REMARK  Name = ZINC12773430
REMARK  9 active torsions:
REMARK  status: ('A' for Active; 'I' for Inactive)
REMARK    1  A    between atoms: C_1  and  O_2
REMARK    2  A    between atoms: O_2  and  C_3
REMARK    3  A    between atoms: C_8  and  C_9
REMARK    4  A    between atoms: C_9  and  C_11
REMARK    5  A    between atoms: C_9  and  N_60
REMARK    6  A    between atoms: C_11  and  N_12
REMARK    7  A    between atoms: C_13  and  C_15
REMARK    8  A    between atoms: C_15  and  N_16
REMARK    9  A    between atoms: C_23  and  C_26
REMARK                            x       y       z     vdW  Elec       q    Type
REMARK                         _______ _______ _______ _____ _____    ______ ____
ROOT
ATOM      1  N   UNL     1       1.206  -4.084   1.518  0.00  0.00    -0.315 N 
ATOM      2  C   UNL     1       1.144  -4.694   2.719  0.00  0.00    +0.233 C 
ATOM      3  O   UNL     1       0.909  -4.045   3.716  0.00  0.00    -0.274 OA
ATOM      4  H   UNL     1       1.394  -4.603   0.720  0.00  0.00    +0.149 HD
ENDROOT
BRANCH   1   5
ATOM      5  C   UNL     1       0.991  -2.639   1.418  0.00  0.00    +0.093 C 
BRANCH   5   6
ATOM      6  C   UNL     1       1.239  -2.184  -0.022  0.00  0.00    -0.017 C 
BRANCH   6  12
ATOM      7  C   UNL     1      -0.106  -0.089  -0.316  0.00  0.00    +0.122 A 
ATOM      8  C   UNL     1      -0.205   1.293  -0.388  0.00  0.00    +0.046 A 
ATOM      9  C   UNL     1       0.926   2.073  -0.245  0.00  0.00    +0.004 A 
ATOM     10  C   UNL     1       2.155   1.478  -0.030  0.00  0.00    +0.000 A 
ATOM     11  C   UNL     1       2.256   0.101   0.041  0.00  0.00    +0.005 A 
ATOM     12  C   UNL     1       1.128  -0.684  -0.101  0.00  0.00    -0.018 A 
BRANCH   7  14
ATOM     13  C   UNL     1      -2.455  -0.178  -0.675  0.00  0.00    +0.277 C 
ATOM     14  O   UNL     1      -1.218  -0.859  -0.456  0.00  0.00    -0.495 OA
ENDBRANCH   7  14
ENDBRANCH   6  12
BRANCH   6  19
ATOM     15  C   UNL     1       3.020  -1.849  -1.647  0.00  0.00    -0.078 C 
ATOM     16  C   UNL     1       4.562  -2.003  -1.622  0.00  0.00    -0.020 C 
ATOM     17  C   UNL     1       4.893  -1.922  -0.114  0.00  0.00    -0.020 C 
ATOM     18  C   UNL     1       3.583  -2.295   0.606  0.00  0.00    -0.078 C 
ATOM     19  N   UNL     1       2.611  -2.595  -0.446  0.00  0.00    +0.385 N 
ATOM     20  H   UNL     1       2.615  -3.602  -0.645  0.00  0.00    -0.081 HD
ENDBRANCH   6  19
ENDBRANCH   5   6
ENDBRANCH   1   5
BRANCH   2  21
ATOM     21  C   UNL     1       1.365  -6.181   2.821  0.00  0.00    +0.221 C 
BRANCH  21  22
ATOM     22  N   UNL     1       1.246  -6.597   4.221  0.00  0.00    -0.290 N 
ATOM     23  C   UNL     1       0.033  -6.969   4.703  0.00  0.00    +0.203 A 
ATOM     24  N   UNL     1      -0.113  -7.346   5.945  0.00  0.00    -0.230 NA
ATOM     25  C   UNL     1       0.924  -7.378   6.778  0.00  0.00    +0.116 A 
ATOM     26  C   UNL     1       2.216  -7.011   6.369  0.00  0.00    +0.080 A 
ATOM     27  C   UNL     1       2.342  -6.608   5.002  0.00  0.00    +0.263 A 
ATOM     28  O   UNL     1       3.425  -6.275   4.552  0.00  0.00    -0.267 OA
ATOM     29  C   UNL     1       3.241  -7.101   7.403  0.00  0.00    +0.010 A 
ATOM     30  C   UNL     1       2.881  -7.520   8.642  0.00  0.00    +0.057 A 
ATOM     31  S   UNL     1       1.131  -7.817   8.485  0.00  0.00    -0.076 S 
BRANCH  29  32
ATOM     32  C   UNL     1       4.644  -6.744   7.106  0.00  0.00    +0.021 A 
ATOM     33  C   UNL     1       5.485  -5.907   7.791  0.00  0.00    +0.016 A 
ATOM     34  C   UNL     1       6.769  -5.729   7.321  0.00  0.00    +0.008 A 
ATOM     35  C   UNL     1       7.156  -6.376   6.193  0.00  0.00    +0.046 A 
ATOM     36  S   UNL     1       5.682  -7.284   5.757  0.00  0.00    -0.097 S 
ENDBRANCH  29  32
ENDBRANCH  21  22
ENDBRANCH   2  21
TORSDOF 8
