REMARK  Name = ZINC59377052
REMARK  10 active torsions:
REMARK  status: ('A' for Active; 'I' for Inactive)
REMARK    1  A    between atoms: C_1  and  C_2
REMARK    2  A    between atoms: C_2  and  O_3
REMARK    3  A    between atoms: O_3  and  C_4
REMARK    4  A    between atoms: C_7  and  N_10
REMARK    5  A    between atoms: N_10  and  C_11
REMARK    6  A    between atoms: N_10  and  S_29
REMARK    7  A    between atoms: C_11  and  C_12
REMARK    8  A    between atoms: N_14  and  N_15
REMARK    9  A    between atoms: C_16  and  C_17
REMARK   10  A    between atoms: S_29  and  C_32
REMARK                            x       y       z     vdW  Elec       q    Type
REMARK                         _______ _______ _______ _____ _____    ______ ____
ROOT
ATOM      1  N   UNL     1       1.135  -5.956   1.754  0.00  0.00    -0.194 N 
ENDROOT
BRANCH   1   5
ATOM      2  C   UNL     1       0.048  -1.947   1.412  0.00  0.00    +0.121 A 
ATOM      3  C   UNL     1      -0.819  -2.939   0.980  0.00  0.00    +0.047 A 
ATOM      4  C   UNL     1      -0.460  -4.268   1.093  0.00  0.00    +0.028 A 
ATOM      5  C   UNL     1       0.770  -4.610   1.639  0.00  0.00    +0.052 A 
ATOM      6  C   UNL     1       1.638  -3.615   2.071  0.00  0.00    +0.028 A 
ATOM      7  C   UNL     1       1.279  -2.287   1.952  0.00  0.00    +0.047 A 
BRANCH   2   8
ATOM      8  O   UNL     1      -0.307  -0.638   1.301  0.00  0.00    -0.492 OA
BRANCH   8  10
ATOM      9  C   UNL     1      -1.810   1.153   0.692  0.00  0.00    +0.048 C 
ATOM     10  C   UNL     1      -1.590  -0.360   0.735  0.00  0.00    +0.225 C 
ENDBRANCH   8  10
ENDBRANCH   2   8
ENDBRANCH   1   5
BRANCH   1  11
ATOM     11  S   UNL     1       1.449  -6.604   3.245  0.00  0.00    +0.075 S 
ATOM     12  O   UNL     1       2.273  -7.741   3.028  0.00  0.00    -0.150 OA
ATOM     13  O   UNL     1       1.843  -5.526   4.082  0.00  0.00    -0.150 OA
BRANCH  11  14
ATOM     14  C   UNL     1      -0.079  -7.205   3.884  0.00  0.00    +0.109 A 
ATOM     15  C   UNL     1      -0.888  -6.374   4.636  0.00  0.00    +0.029 A 
ATOM     16  C   UNL     1      -2.087  -6.845   5.137  0.00  0.00    +0.002 A 
ATOM     17  C   UNL     1      -2.477  -8.147   4.886  0.00  0.00    +0.000 A 
ATOM     18  C   UNL     1      -1.669  -8.978   4.133  0.00  0.00    +0.002 A 
ATOM     19  C   UNL     1      -0.472  -8.505   3.628  0.00  0.00    +0.029 A 
ENDBRANCH  11  14
ENDBRANCH   1  11
BRANCH   1  20
ATOM     20  C   UNL     1       1.240  -6.792   0.555  0.00  0.00    +0.228 C 
BRANCH  20  21
ATOM     21  C   UNL     1       2.606  -6.623  -0.058  0.00  0.00    +0.251 C 
ATOM     22  O   UNL     1       3.414  -5.878   0.457  0.00  0.00    -0.272 OA
ATOM     23  N   UNL     1       2.932  -7.300  -1.177  0.00  0.00    -0.206 N 
ATOM     24  H   UNL     1       2.286  -7.895  -1.588  0.00  0.00    +0.177 HD
BRANCH  23  25
ATOM     25  N   UNL     1       4.202  -7.143  -1.746  0.00  0.00    -0.188 NA
ATOM     26  C   UNL     1       4.516  -7.795  -2.825  0.00  0.00    +0.139 C 
BRANCH  26  27
ATOM     27  C   UNL     1       5.850  -7.630  -3.422  0.00  0.00    +0.002 A 
ATOM     28  C   UNL     1       6.209  -8.314  -4.582  0.00  0.00    +0.010 A 
ATOM     29  C   UNL     1       7.466  -8.171  -5.160  0.00  0.00    +0.005 A 
ATOM     30  C   UNL     1       8.408  -7.350  -4.614  0.00  0.00    -0.039 A 
ATOM     31  C   UNL     1       8.093  -6.646  -3.456  0.00  0.00    -0.011 A 
ATOM     32  C   UNL     1       6.841  -6.740  -2.824  0.00  0.00    -0.009 A 
ATOM     33  C   UNL     1       6.627  -5.984  -1.666  0.00  0.00    +0.009 A 
ATOM     34  C   UNL     1       7.638  -5.186  -1.206  0.00  0.00    +0.001 A 
ATOM     35  C   UNL     1       8.873  -5.102  -1.851  0.00  0.00    +0.004 A 
ATOM     36  C   UNL     1       9.115  -5.835  -2.973  0.00  0.00    -0.039 A 
ATOM     37  C   UNL     1      10.291  -5.987  -3.907  0.00  0.00    +0.040 C 
ATOM     38  C   UNL     1       9.826  -6.986  -4.989  0.00  0.00    +0.040 C 
ENDBRANCH  26  27
ENDBRANCH  23  25
ENDBRANCH  20  21
ENDBRANCH   1  20
TORSDOF 9
