REMARK  Name = ZINC20914334
REMARK  11 active torsions:
REMARK  status: ('A' for Active; 'I' for Inactive)
REMARK    1  A    between atoms: C_1  and  C_2
REMARK    2  A    between atoms: C_2  and  N_3
REMARK    3  A    between atoms: N_3  and  C_4
REMARK    4  A    between atoms: N_3  and  S_6
REMARK    5  A    between atoms: C_4  and  C_5
REMARK    6  A    between atoms: S_6  and  C_9
REMARK    7  A    between atoms: C_12  and  C_30
REMARK    8  A    between atoms: C_13  and  N_15
REMARK    9  A    between atoms: C_16  and  C_18
REMARK   10  A    between atoms: C_18  and  S_19
REMARK   11  A    between atoms: S_19  and  C_20
REMARK                            x       y       z     vdW  Elec       q    Type
REMARK                         _______ _______ _______ _____ _____    ______ ____
ROOT
ATOM      1  N   UNL     1       4.577  -4.793  -0.087  0.00  0.00    -0.285 N 
ATOM      2  C   UNL     1       4.610  -3.581   0.502  0.00  0.00    +0.227 C 
ATOM      3  O   UNL     1       5.632  -3.187   1.022  0.00  0.00    -0.275 OA
ATOM      4  H   UNL     1       3.628  -5.189  -0.478  0.00  0.00    +0.155 HD
ENDROOT
BRANCH   1   9
ATOM      5  C   UNL     1       8.142  -5.665  -0.314  0.00  0.00    +0.107 A 
ATOM      6  C   UNL     1       8.068  -7.042  -0.422  0.00  0.00    +0.029 A 
ATOM      7  C   UNL     1       6.838  -7.673  -0.419  0.00  0.00    +0.007 A 
ATOM      8  C   UNL     1       5.679  -6.931  -0.302  0.00  0.00    -0.029 A 
ATOM      9  C   UNL     1       5.750  -5.548  -0.199  0.00  0.00    +0.038 A 
ATOM     10  C   UNL     1       6.986  -4.917  -0.203  0.00  0.00    +0.052 A 
ATOM     11  C   UNL     1       4.339  -7.621  -0.292  0.00  0.00    +0.045 C 
BRANCH   5  12
ATOM     12  S   UNL     1       9.711  -4.864  -0.319  0.00  0.00    +0.061 S 
ATOM     13  O   UNL     1      10.612  -5.740  -0.982  0.00  0.00    -0.153 OA
ATOM     14  O   UNL     1       9.486  -3.531  -0.754  0.00  0.00    -0.153 OA
BRANCH  12  15
ATOM     15  N   UNL     1      10.217  -4.769   1.256  0.00  0.00    -0.177 NA
BRANCH  15  17
ATOM     16  C   UNL     1      12.501  -5.511   1.720  0.00  0.00    +0.022 C 
ATOM     17  C   UNL     1      11.014  -5.853   1.835  0.00  0.00    +0.106 C 
ENDBRANCH  15  17
BRANCH  15  18
ATOM     18  C   UNL     1       9.867  -3.602   2.068  0.00  0.00    +0.106 C 
ATOM     19  C   UNL     1       8.602  -3.903   2.875  0.00  0.00    +0.022 C 
ENDBRANCH  15  18
ENDBRANCH  12  15
ENDBRANCH   5  12
ENDBRANCH   1   9
BRANCH   2  20
ATOM     20  C   UNL     1       3.377  -2.715   0.513  0.00  0.00    +0.170 C 
BRANCH  20  21
ATOM     21  S   UNL     1       3.738  -1.159   1.372  0.00  0.00    -0.116 S 
BRANCH  21  22
ATOM     22  C   UNL     1       2.219  -0.270   1.301  0.00  0.00    +0.012 A 
ATOM     23  C   UNL     1       1.114  -0.831   0.673  0.00  0.00    +0.018 A 
ATOM     24  C   UNL     1      -0.077  -0.133   0.616  0.00  0.00    +0.050 A 
ATOM     25  C   UNL     1      -0.173   1.129   1.183  0.00  0.00    +0.162 A 
ATOM     26  C   UNL     1       0.930   1.692   1.814  0.00  0.00    +0.163 A 
ATOM     27  C   UNL     1       2.125   0.993   1.871  0.00  0.00    +0.064 A 
ATOM     28  O   UNL     1       0.851   2.926   2.384  0.00  0.00    -0.485 OA
ATOM     29  C   UNL     1      -0.247   3.752   1.984  0.00  0.00    +0.270 C 
ATOM     30  C   UNL     1      -1.524   2.902   2.015  0.00  0.00    +0.270 C 
ATOM     31  O   UNL     1      -1.354   1.806   1.109  0.00  0.00    -0.485 OA
ENDBRANCH  21  22
ENDBRANCH  20  21
ENDBRANCH   2  20
TORSDOF 8
