REMARK  Name = ZINC03375295
REMARK  8 active torsions:
REMARK  status: ('A' for Active; 'I' for Inactive)
REMARK    1  A    between atoms: C_1  and  C_2
REMARK    2  A    between atoms: C_2  and  C_3
REMARK    3  A    between atoms: C_3  and  N_4
REMARK    4  A    between atoms: C_17  and  S_18
REMARK    5  A    between atoms: S_18  and  C_19
REMARK    6  A    between atoms: C_19  and  C_21
REMARK    7  A    between atoms: C_19  and  C_27
REMARK    8  A    between atoms: C_27  and  C_29
REMARK                            x       y       z     vdW  Elec       q    Type
REMARK                         _______ _______ _______ _____ _____    ______ ____
ROOT
ATOM      1  C   UNL     1       1.280   1.981   0.001  0.00  0.00    +0.155 C 
ENDROOT
BRANCH   1   2
ATOM      2  C   UNL     1       1.635   2.352  -1.416  0.00  0.00    -0.027 A 
ATOM      3  C   UNL     1       1.835   1.362  -2.361  0.00  0.00    +0.005 A 
ATOM      4  C   UNL     1       2.156   1.703  -3.661  0.00  0.00    +0.000 A 
ATOM      5  C   UNL     1       2.286   3.033  -4.016  0.00  0.00    +0.000 A 
ATOM      6  C   UNL     1       2.091   4.022  -3.070  0.00  0.00    +0.000 A 
ATOM      7  C   UNL     1       1.766   3.682  -1.771  0.00  0.00    +0.005 A 
ENDBRANCH   1   2
BRANCH   1   8
ATOM      8  C   UNL     1      -0.014   1.210   0.009  0.00  0.00    +0.183 C 
ATOM      9  O   UNL     1       0.002  -0.004   0.002  0.00  0.00    -0.290 OA
BRANCH   8  10
ATOM     10  C   UNL     1      -1.251   1.902   0.018  0.00  0.00    +0.044 A 
ATOM     11  C   UNL     1      -1.436   3.268   0.026  0.00  0.00    +0.095 A 
ATOM     12  N   UNL     1      -2.753   3.546   0.034  0.00  0.00    -0.360 N 
ATOM     13  H   UNL     1      -3.128   4.441   0.041  0.00  0.00    +0.165 HD
ATOM     14  C   UNL     1      -3.498   2.384   0.032  0.00  0.00    +0.047 A 
ATOM     15  C   UNL     1      -2.601   1.304   0.015  0.00  0.00    +0.010 A 
ATOM     16  C   UNL     1      -3.080  -0.002   0.018  0.00  0.00    +0.011 A 
ATOM     17  C   UNL     1      -4.439  -0.231   0.023  0.00  0.00    +0.001 A 
ATOM     18  C   UNL     1      -5.327   0.835   0.033  0.00  0.00    +0.002 A 
ATOM     19  C   UNL     1      -4.866   2.133   0.037  0.00  0.00    +0.026 A 
ENDBRANCH   8  10
ENDBRANCH   1   8
BRANCH   1  20
ATOM     20  S   UNL     1       2.600   0.955   0.705  0.00  0.00    -0.069 S 
BRANCH  20  34
ATOM     21  N   UNL     1       7.368   2.797   1.489  0.00  0.00    -0.277 N 
ATOM     22  C   UNL     1       7.926   1.683   2.004  0.00  0.00    +0.263 A 
ATOM     23  O   UNL     1       9.094   1.675   2.343  0.00  0.00    -0.267 OA
ATOM     24  C   UNL     1       7.095   0.473   2.150  0.00  0.00    +0.064 A 
ATOM     25  C   UNL     1       7.620  -0.706   2.676  0.00  0.00    +0.015 A 
ATOM     26  C   UNL     1       6.812  -1.817   2.798  0.00  0.00    +0.001 A 
ATOM     27  C   UNL     1       5.485  -1.764   2.400  0.00  0.00    +0.002 A 
ATOM     28  C   UNL     1       4.954  -0.602   1.876  0.00  0.00    +0.027 A 
ATOM     29  C   UNL     1       5.752   0.524   1.746  0.00  0.00    +0.064 A 
ATOM     30  N   UNL     1       5.241   1.710   1.223  0.00  0.00    -0.256 N 
ATOM     31  C   UNL     1       6.037   2.816   1.100  0.00  0.00    +0.240 A 
ATOM     32  N   UNL     1       5.308   3.780   0.585  0.00  0.00    -0.109 NA
ATOM     33  N   UNL     1       4.018   3.281   0.367  0.00  0.00    -0.120 NA
ATOM     34  C   UNL     1       3.993   2.032   0.763  0.00  0.00    +0.199 A 
BRANCH  21  35
ATOM     35  C   UNL     1       8.180   4.006   1.337  0.00  0.00    +0.128 C 
BRANCH  35  37
ATOM     36  C   UNL     1       8.931   6.112   2.453  0.00  0.00    +0.005 C 
ATOM     37  C   UNL     1       8.082   4.849   2.611  0.00  0.00    +0.018 C 
ENDBRANCH  35  37
ENDBRANCH  21  35
ENDBRANCH  20  34
ENDBRANCH   1  20
TORSDOF 7
