REMARK  Name = ZINC66164048
REMARK  8 active torsions:
REMARK  status: ('A' for Active; 'I' for Inactive)
REMARK    1  A    between atoms: C_1  and  C_2
REMARK    2  A    between atoms: C_4  and  O_29
REMARK    3  A    between atoms: C_7  and  N_8
REMARK    4  A    between atoms: N_11  and  C_12
REMARK    5  A    between atoms: C_12  and  C_14
REMARK    6  A    between atoms: C_12  and  C_23
REMARK    7  A    between atoms: C_14  and  N_15
REMARK    8  A    between atoms: O_29  and  C_30
REMARK                            x       y       z     vdW  Elec       q    Type
REMARK                         _______ _______ _______ _____ _____    ______ ____
ROOT
ATOM      1  C   UNL     1      -0.245  -0.756   6.008  0.00  0.00    +0.122 C 
ENDROOT
BRANCH   1   5
ATOM      2  N   UNL     1       0.025  -0.011   2.418  0.00  0.00    -0.269 N 
ATOM      3  C   UNL     1      -0.056  -0.689   3.580  0.00  0.00    +0.304 C 
ATOM      4  O   UNL     1      -0.040  -1.905   3.577  0.00  0.00    -0.252 OA
ATOM      5  N   UNL     1      -0.156  -0.019   4.745  0.00  0.00    -0.291 N 
ATOM      6  H   UNL     1       0.078   0.958   2.424  0.00  0.00    +0.156 HD
ATOM      7  H   UNL     1      -0.169   0.951   4.748  0.00  0.00    +0.151 HD
BRANCH   2  14
ATOM      8  C   UNL     1      -1.267   1.182   0.182  0.00  0.00    +0.046 C 
ATOM      9  C   UNL     1      -0.586  -0.158   0.085  0.00  0.00    -0.026 A 
ATOM     10  C   UNL     1      -0.572  -0.841  -1.116  0.00  0.00    +0.050 A 
ATOM     11  C   UNL     1       0.055  -2.074  -1.206  0.00  0.00    +0.120 A 
ATOM     12  C   UNL     1       0.669  -2.624  -0.090  0.00  0.00    +0.047 A 
ATOM     13  C   UNL     1       0.655  -1.944   1.111  0.00  0.00    +0.027 A 
ATOM     14  C   UNL     1       0.034  -0.705   1.201  0.00  0.00    +0.038 A 
BRANCH  11  15
ATOM     15  O   UNL     1       0.068  -2.745  -2.388  0.00  0.00    -0.495 OA
ATOM     16  C   UNL     1       0.732  -4.011  -2.409  0.00  0.00    +0.277 C 
ENDBRANCH  11  15
ENDBRANCH   2  14
ENDBRANCH   1   5
BRANCH   1  17
ATOM     17  C   UNL     1      -1.680  -1.135   6.269  0.00  0.00    -0.026 A 
ATOM     18  C   UNL     1      -2.694  -0.241   5.980  0.00  0.00    +0.005 A 
ATOM     19  C   UNL     1      -4.010  -0.588   6.220  0.00  0.00    +0.000 A 
ATOM     20  C   UNL     1      -4.313  -1.829   6.748  0.00  0.00    +0.000 A 
ATOM     21  C   UNL     1      -3.299  -2.723   7.037  0.00  0.00    +0.000 A 
ATOM     22  C   UNL     1      -1.982  -2.378   6.793  0.00  0.00    +0.005 A 
ENDBRANCH   1  17
BRANCH   1  23
ATOM     23  C   UNL     1       0.266   0.125   7.150  0.00  0.00    +0.134 C 
BRANCH  23  24
ATOM     24  N   UNL     1       1.620   0.590   6.839  0.00  0.00    -0.299 N 
ATOM     25  C   UNL     1       2.783  -0.210   7.256  0.00  0.00    +0.108 C 
ATOM     26  C   UNL     1       3.404  -0.855   6.015  0.00  0.00    +0.019 C 
ATOM     27  C   UNL     1       4.400   0.084   5.359  0.00  0.00    +0.002 C 
ATOM     28  C   UNL     1       3.767   1.324   4.755  0.00  0.00    +0.009 C 
ATOM     29  C   UNL     1       3.186   2.224   5.848  0.00  0.00    +0.096 C 
ATOM     30  C   UNL     1       1.791   1.734   6.175  0.00  0.00    +0.216 C 
ATOM     31  O   UNL     1       0.826   2.387   5.837  0.00  0.00    -0.276 OA
ENDBRANCH  23  24
ENDBRANCH   1  23
TORSDOF 6
