REMARK  Name = ZINC47344733
REMARK  10 active torsions:
REMARK  status: ('A' for Active; 'I' for Inactive)
REMARK    1  A    between atoms: C_1  and  C_2
REMARK    2  A    between atoms: C_2  and  C_3
REMARK    3  A    between atoms: C_3  and  C_5
REMARK    4  A    between atoms: C_3  and  N_6
REMARK    5  A    between atoms: C_7  and  C_9
REMARK    6  A    between atoms: C_9  and  C_10
REMARK    7  A    between atoms: C_10  and  N_11
REMARK    8  A    between atoms: N_14  and  C_15
REMARK    9  A    between atoms: C_20  and  C_21
REMARK   10  A    between atoms: C_21  and  C_22
REMARK                            x       y       z     vdW  Elec       q    Type
REMARK                         _______ _______ _______ _____ _____    ______ ____
ROOT
ATOM      1  N   UNL     1      -6.256   0.738   3.692  0.00  0.00    -0.299 N 
ATOM      2  C   UNL     1      -7.597   0.856   3.751  0.00  0.00    +0.304 C 
ATOM      3  O   UNL     1      -8.270   0.649   2.759  0.00  0.00    -0.253 OA
ATOM      4  N   UNL     1      -8.193   1.203   4.909  0.00  0.00    -0.269 N 
ATOM      5  H   UNL     1      -5.719   0.903   4.482  0.00  0.00    +0.150 HD
ATOM      6  H   UNL     1      -7.663   1.304   5.715  0.00  0.00    +0.156 HD
ENDROOT
BRANCH   4   7
ATOM      7  C   UNL     1      -9.575   1.418   4.948  0.00  0.00    +0.038 A 
ATOM      8  C   UNL     1     -10.420   0.657   4.151  0.00  0.00    +0.023 A 
ATOM      9  C   UNL     1     -11.784   0.871   4.192  0.00  0.00    +0.002 A 
ATOM     10  C   UNL     1     -12.308   1.842   5.025  0.00  0.00    +0.000 A 
ATOM     11  C   UNL     1     -11.469   2.602   5.820  0.00  0.00    +0.006 A 
ATOM     12  C   UNL     1     -10.105   2.388   5.788  0.00  0.00    -0.022 A 
BRANCH  12  13
ATOM     13  C   UNL     1      -9.192   3.213   6.658  0.00  0.00    +0.072 C 
BRANCH  13  14
ATOM     14  C   UNL     1      -8.670   4.386   5.870  0.00  0.00    -0.043 A 
ATOM     15  C   UNL     1      -7.499   4.266   5.145  0.00  0.00    +0.004 A 
ATOM     16  C   UNL     1      -7.021   5.343   4.422  0.00  0.00    +0.000 A 
ATOM     17  C   UNL     1      -7.713   6.539   4.423  0.00  0.00    +0.000 A 
ATOM     18  C   UNL     1      -8.884   6.659   5.147  0.00  0.00    +0.000 A 
ATOM     19  C   UNL     1      -9.365   5.581   5.867  0.00  0.00    +0.004 A 
ENDBRANCH  13  14
ENDBRANCH  12  13
ENDBRANCH   4   7
BRANCH   1  20
ATOM     20  C   UNL     1      -5.608   0.360   2.433  0.00  0.00    +0.115 C 
BRANCH  20  21
ATOM     21  C   UNL     1      -4.093   0.297   2.637  0.00  0.00    +0.114 C 
BRANCH  21  23
ATOM     22  N   UNL     1      -2.086  -0.209   1.283  0.00  0.00    -0.313 N 
ATOM     23  C   UNL     1      -3.428  -0.091   1.342  0.00  0.00    +0.215 C 
ATOM     24  O   UNL     1      -4.099  -0.297   0.353  0.00  0.00    -0.276 OA
ATOM     25  H   UNL     1      -1.550  -0.044   2.074  0.00  0.00    +0.149 HD
BRANCH  22  26
ATOM     26  C   UNL     1      -1.439  -0.587   0.024  0.00  0.00    +0.070 C 
ATOM     27  C   UNL     1      -1.432  -2.111  -0.108  0.00  0.00    +0.028 C 
BRANCH  26  29
ATOM     28  C   UNL     1      -0.009   1.462   0.022  0.00  0.00    +0.005 C 
ATOM     29  C   UNL     1       0.000  -0.068   0.015  0.00  0.00    +0.018 C 
ENDBRANCH  26  29
ENDBRANCH  22  26
ENDBRANCH  21  23
ENDBRANCH  20  21
ENDBRANCH   1  20
TORSDOF 8
