REMARK  Name = ZINC04683910
REMARK  5 active torsions:
REMARK  status: ('A' for Active; 'I' for Inactive)
REMARK    1  A    between atoms: C_5  and  C_7
REMARK    2  A    between atoms: C_7  and  N_8
REMARK    3  A    between atoms: N_8  and  C_9
REMARK    4  A    between atoms: C_12  and  N_18
REMARK    5  A    between atoms: C_14  and  N_15
REMARK                            x       y       z     vdW  Elec       q    Type
REMARK                         _______ _______ _______ _____ _____    ______ ____
ROOT
ATOM      1  C   UNL     1       1.310  -4.075   1.663  0.00  0.00    +0.058 A 
ATOM      2  C   UNL     1       1.031  -4.974   0.641  0.00  0.00    +0.027 A 
ATOM      3  C   UNL     1       1.339  -6.311   0.796  0.00  0.00    +0.026 A 
ATOM      4  C   UNL     1       1.926  -6.757   1.972  0.00  0.00    +0.046 A 
ATOM      5  C   UNL     1       2.205  -5.859   2.993  0.00  0.00    +0.058 A 
ATOM      6  C   UNL     1       1.903  -4.521   2.837  0.00  0.00    +0.149 A 
ENDROOT
BRANCH   4   7
ATOM      7  N   UNL     1       2.238  -8.117   2.129  0.00  0.00    -0.210 N 
ATOM      8  C   UNL     1       2.808  -8.626   3.252  0.00  0.00    +0.230 C 
ATOM      9  O   UNL     1       2.933  -8.068   4.321  0.00  0.00    -0.274 OA
ATOM     10  C   UNL     1       3.251 -10.014   2.905  0.00  0.00    +0.092 C 
ATOM     11  C   UNL     1       3.177 -11.080   3.978  0.00  0.00    +0.040 C 
ATOM     12  C   UNL     1       3.336 -12.416   3.283  0.00  0.00    -0.030 C 
ATOM     13  C   UNL     1       3.165 -12.605   2.010  0.00  0.00    -0.030 C 
ATOM     14  C   UNL     1       2.757 -11.522   1.032  0.00  0.00    +0.040 C 
ATOM     15  C   UNL     1       2.179 -10.384   1.833  0.00  0.00    +0.092 C 
ATOM     16  C   UNL     1       1.994  -9.052   1.174  0.00  0.00    +0.230 C 
ATOM     17  O   UNL     1       1.690  -8.849   0.018  0.00  0.00    -0.274 OA
ENDBRANCH   4   7
BRANCH   6  18
ATOM     18  N   UNL     1       2.205  -3.562   3.924  0.00  0.00    +0.058 N 
ATOM     19  O   UNL     1       2.598  -2.450   3.657  0.00  0.00    -0.126 OA
ATOM     20  O   UNL     1       2.061  -3.891   5.078  0.00  0.00    -0.126 OA
ENDBRANCH   6  18
BRANCH   1  21
ATOM     21  N   UNL     1       0.998  -2.721   1.507  0.00  0.00    -0.338 N 
ATOM     22  H   UNL     1       1.113  -2.108   2.250  0.00  0.00    +0.146 HD
BRANCH  21  23
ATOM     23  C   UNL     1       0.497  -2.228   0.222  0.00  0.00    +0.138 C 
BRANCH  23  28
ATOM     24  C   UNL     1      -1.282   1.080   0.599  0.00  0.00    +0.000 A 
ATOM     25  C   UNL     1      -0.232   1.973   0.493  0.00  0.00    +0.001 A 
ATOM     26  C   UNL     1       1.055   1.507   0.300  0.00  0.00    +0.020 A 
ATOM     27  C   UNL     1       1.292   0.147   0.212  0.00  0.00    +0.046 A 
ATOM     28  C   UNL     1       0.240  -0.746   0.318  0.00  0.00    -0.012 A 
ATOM     29  C   UNL     1      -1.046  -0.279   0.511  0.00  0.00    +0.006 A 
ATOM     30 CL   UNL     1       2.907  -0.439  -0.032  0.00  0.00    -0.083 Cl
ENDBRANCH  23  28
ENDBRANCH  21  23
ENDBRANCH   1  21
TORSDOF 5
