REMARK  Name = ZINC35868162
REMARK  8 active torsions:
REMARK  status: ('A' for Active; 'I' for Inactive)
REMARK    1  A    between atoms: C_1  and  C_2
REMARK    2  A    between atoms: C_2  and  C_3
REMARK    3  A    between atoms: C_3  and  C_5
REMARK    4  A    between atoms: C_3  and  N_6
REMARK    5  A    between atoms: N_9  and  C_10
REMARK    6  A    between atoms: C_11  and  C_24
REMARK    7  A    between atoms: N_13  and  C_16
REMARK    8  A    between atoms: C_14  and  N_15
REMARK                            x       y       z     vdW  Elec       q    Type
REMARK                         _______ _______ _______ _____ _____    ______ ____
ROOT
ATOM      1  C   UNL     1       0.744   0.112   5.939  0.00  0.00    +0.103 A 
ATOM      2  C   UNL     1       0.164  -0.121   7.204  0.00  0.00    +0.116 A 
ATOM      3  N   UNL     1       0.989   0.335   8.125  0.00  0.00    -0.163 NA
ATOM      4  N   UNL     1       2.114   0.870   7.486  0.00  0.00    -0.214 N 
ATOM      5  C   UNL     1       1.948   0.718   6.141  0.00  0.00    +0.142 A 
ENDROOT
BRANCH   4   6
ATOM      6  C   UNL     1       3.220   1.454   8.118  0.00  0.00    +0.105 A 
ATOM      7  C   UNL     1       4.345   1.792   7.379  0.00  0.00    +0.069 A 
ATOM      8  C   UNL     1       5.435   2.368   8.006  0.00  0.00    +0.126 A 
ATOM      9  C   UNL     1       5.405   2.608   9.370  0.00  0.00    +0.041 A 
ATOM     10  C   UNL     1       4.286   2.272  10.108  0.00  0.00    +0.043 A 
ATOM     11  C   UNL     1       3.191   1.700   9.486  0.00  0.00    +0.149 A 
ATOM     12  F   UNL     1       2.095   1.378  10.208  0.00  0.00    -0.203 F 
ATOM     13  F   UNL     1       6.531   2.697   7.287  0.00  0.00    -0.205 F 
ENDBRANCH   4   6
BRANCH   2  14
ATOM     14  C   UNL     1      -1.148  -0.766   7.453  0.00  0.00    +0.004 A 
ATOM     15  C   UNL     1      -2.205  -0.567   6.566  0.00  0.00    +0.011 A 
ATOM     16  C   UNL     1      -3.423  -1.170   6.803  0.00  0.00    +0.020 A 
ATOM     17  C   UNL     1      -3.597  -1.971   7.918  0.00  0.00    +0.041 A 
ATOM     18  C   UNL     1      -2.550  -2.172   8.802  0.00  0.00    +0.020 A 
ATOM     19  C   UNL     1      -1.326  -1.578   8.572  0.00  0.00    +0.011 A 
ATOM     20 CL   UNL     1      -5.133  -2.726   8.210  0.00  0.00    -0.084 Cl
ENDBRANCH   2  14
BRANCH   1  24
ATOM     21  N   UNL     1       0.030   0.118   2.387  0.00  0.00    -0.297 N 
ATOM     22  C   UNL     1       0.478   0.504   3.598  0.00  0.00    +0.304 C 
ATOM     23  O   UNL     1       1.148   1.513   3.704  0.00  0.00    -0.252 OA
ATOM     24  N   UNL     1       0.182  -0.227   4.691  0.00  0.00    -0.265 N 
ATOM     25  H   UNL     1      -0.505  -0.687   2.302  0.00  0.00    +0.151 HD
ATOM     26  H   UNL     1      -0.417  -0.987   4.619  0.00  0.00    +0.157 HD
BRANCH  21  27
ATOM     27  C   UNL     1       0.351   0.913   1.199  0.00  0.00    +0.071 C 
ATOM     28  C   UNL     1       1.722   0.497   0.662  0.00  0.00    +0.028 C 
BRANCH  27  30
ATOM     29  C   UNL     1      -2.060   1.205   0.613  0.00  0.00    +0.005 C 
ATOM     30  C   UNL     1      -0.711   0.675   0.124  0.00  0.00    +0.019 C 
ENDBRANCH  27  30
ENDBRANCH  21  27
ENDBRANCH   1  24
BRANCH   5  31
ATOM     31  N   UNL     1       2.847   1.115   5.150  0.00  0.00    -0.342 N 
ATOM     32  H   UNL     1       3.300   1.970   5.220  0.00  0.00    +0.144 HD
ATOM     33  H   UNL     1       3.019   0.536   4.391  0.00  0.00    +0.144 HD
ENDBRANCH   5  31
TORSDOF 6
