REMARK  Name = ZINC63506882
REMARK  12 active torsions:
REMARK  status: ('A' for Active; 'I' for Inactive)
REMARK    1  A    between atoms: C_1  and  C_2
REMARK    2  A    between atoms: C_4  and  C_17
REMARK    3  A    between atoms: C_7  and  O_12
REMARK    4  A    between atoms: O_12  and  C_13
REMARK    5  A    between atoms: C_17  and  C_18
REMARK    6  A    between atoms: C_18  and  N_19
REMARK    7  A    between atoms: C_24  and  C_25
REMARK    8  A    between atoms: C_24  and  O_26
REMARK    9  A    between atoms: C_28  and  C_34
REMARK   10  A    between atoms: C_28  and  C_35
REMARK   11  A    between atoms: C_30  and  C_32
REMARK   12  A    between atoms: C_30  and  C_33
REMARK                            x       y       z     vdW  Elec       q    Type
REMARK                         _______ _______ _______ _____ _____    ______ ____
ROOT
ATOM      1  N   UNL     1       0.998  -0.730  -4.975  0.00  0.00    -0.235 N 
ATOM      2  C   UNL     1       0.192  -1.499  -5.734  0.00  0.00    +0.406 C 
ATOM      3  O   UNL     1      -0.331  -2.522  -5.344  0.00  0.00    -0.226 OA
ATOM      4  O   UNL     1       0.031  -1.001  -6.976  0.00  0.00    -0.439 OA
ATOM      5  C   UNL     1       0.369   0.396  -6.926  0.00  0.00    +0.158 C 
ATOM      6  C   UNL     1       1.447   0.398  -5.824  0.00  0.00    +0.175 C 
ATOM      7  C   UNL     1       1.482   1.699  -5.027  0.00  0.00    +0.068 C 
ATOM      8  C   UNL     1       0.957   0.867  -8.245  0.00  0.00    +0.040 C 
ATOM      9  C   UNL     1      -0.091   0.879  -9.353  0.00  0.00    -0.070 C 
ATOM     10  N   UNL     1      -1.347   1.496  -8.970  0.00  0.00    +0.386 N 
ATOM     11  C   UNL     1      -1.890   1.217  -7.653  0.00  0.00    -0.070 C 
ATOM     12  C   UNL     1      -0.832   1.241  -6.550  0.00  0.00    +0.040 C 
ATOM     13  C   UNL     1      -2.658  -0.106  -7.628  0.00  0.00    -0.010 C 
ATOM     14  C   UNL     1      -2.911   2.335  -7.326  0.00  0.00    -0.010 C 
ATOM     15  C   UNL     1      -0.311  -0.542  -9.885  0.00  0.00    -0.010 C 
ATOM     16  C   UNL     1       0.494   1.707 -10.524  0.00  0.00    -0.010 C 
ATOM     17  H   UNL     1      -1.250   2.511  -9.069  0.00  0.00    -0.084 HD
ATOM     18  H   UNL     1      -2.054   1.237  -9.667  0.00  0.00    -0.084 HD
ENDROOT
BRANCH   6  19
ATOM     19  O   UNL     1       2.736   0.114  -6.378  0.00  0.00    -0.368 OA
ATOM     20  H   UNL     1       3.431  -0.008  -5.717  0.00  0.00    +0.212 HD
ENDBRANCH   6  19
BRANCH   1  21
ATOM     21  C   UNL     1       1.363  -0.963  -3.578  0.00  0.00    +0.118 C 
BRANCH  21  22
ATOM     22  C   UNL     1       0.352  -0.269  -2.664  0.00  0.00    +0.052 C 
BRANCH  22  25
ATOM     23  C   UNL     1      -0.019   1.526   0.010  0.00  0.00    +0.035 C 
ATOM     24  C   UNL     1       0.002  -0.004   0.002  0.00  0.00    +0.103 C 
ATOM     25  C   UNL     1       0.729  -0.509  -1.224  0.00  0.00    -0.037 C 
ATOM     26  C   UNL     1       1.785  -1.220  -0.768  0.00  0.00    +0.003 A 
ATOM     27  C   UNL     1       2.858  -1.954  -1.447  0.00  0.00    +0.056 A 
ATOM     28  C   UNL     1       3.803  -2.586  -0.711  0.00  0.00    +0.131 A 
ATOM     29  C   UNL     1       3.796  -2.567   0.695  0.00  0.00    +0.048 A 
ATOM     30  C   UNL     1       2.851  -1.919   1.409  0.00  0.00    +0.029 A 
ATOM     31  C   UNL     1       1.779  -1.200   0.713  0.00  0.00    +0.043 A 
ATOM     32  N   UNL     1       0.758  -0.506   1.155  0.00  0.00    -0.378 N 
ATOM     33  H   UNL     1       0.540  -0.349   2.087  0.00  0.00    +0.160 HD
BRANCH  28  34
ATOM     34  O   UNL     1       4.792  -3.263  -1.353  0.00  0.00    -0.406 OA
BRANCH  34  35
ATOM     35  C   UNL     1       5.767  -3.915  -0.537  0.00  0.00    +0.575 C 
ATOM     36  F   UNL     1       5.136  -4.859   0.280  0.00  0.00    -0.133 F 
ATOM     37  F   UNL     1       6.704  -4.558  -1.354  0.00  0.00    -0.133 F 
ATOM     38  F   UNL     1       6.417  -2.968   0.261  0.00  0.00    -0.133 F 
ENDBRANCH  34  35
ENDBRANCH  28  34
ENDBRANCH  22  25
ENDBRANCH  21  22
ENDBRANCH   1  21
TORSDOF 6
