REMARK  Name = ZINC38546645
REMARK  10 active torsions:
REMARK  status: ('A' for Active; 'I' for Inactive)
REMARK    1  A    between atoms: C_1  and  N_2
REMARK    2  A    between atoms: N_5  and  C_8
REMARK    3  A    between atoms: C_8  and  C_10
REMARK    4  A    between atoms: C_8  and  C_20
REMARK    5  A    between atoms: C_13  and  O_18
REMARK    6  A    between atoms: C_15  and  O_16
REMARK    7  A    between atoms: O_16  and  C_17
REMARK    8  A    between atoms: O_18  and  C_19
REMARK    9  A    between atoms: C_24  and  N_25
REMARK   10  A    between atoms: C_26  and  C_28
REMARK                            x       y       z     vdW  Elec       q    Type
REMARK                         _______ _______ _______ _____ _____    ______ ____
ROOT
ATOM      1  C   UNL     1       1.419  -3.978   0.041  0.00  0.00    +0.123 C 
ENDROOT
BRANCH   1   2
ATOM      2  C   UNL     1       2.303  -4.195   1.242  0.00  0.00    +0.006 A 
ATOM      3  C   UNL     1       3.325  -5.144   1.196  0.00  0.00    -0.030 A 
ATOM      4  C   UNL     1       4.080  -5.282   2.319  0.00  0.00    -0.005 A 
ATOM      5  S   UNL     1       3.387  -4.101   3.445  0.00  0.00    -0.078 S 
ATOM      6  C   UNL     1       2.111  -3.461   2.370  0.00  0.00    +0.078 A 
ATOM      7  C   UNL     1       5.224  -6.217   2.538  0.00  0.00    +0.043 C 
ATOM      8  C   UNL     1       5.203  -7.276   1.425  0.00  0.00    +0.005 C 
ATOM      9  C   UNL     1       5.026  -6.569   0.078  0.00  0.00    +0.005 C 
ATOM     10  C   UNL     1       3.610  -6.003  -0.033  0.00  0.00    +0.036 C 
BRANCH   6  11
ATOM     11  N   UNL     1       1.163  -2.468   2.624  0.00  0.00    -0.273 N 
ATOM     12  C   UNL     1       1.056  -1.938   3.858  0.00  0.00    +0.284 C 
ATOM     13  O   UNL     1       1.786  -2.325   4.752  0.00  0.00    -0.266 OA
ATOM     14  H   UNL     1       0.582  -2.159   1.911  0.00  0.00    +0.156 HD
BRANCH  12  15
ATOM     15  C   UNL     1       0.061  -0.894   4.124  0.00  0.00    +0.189 A 
ATOM     16  C   UNL     1      -0.149  -0.272   5.321  0.00  0.00    +0.054 A 
ATOM     17  C   UNL     1      -1.189   0.650   5.120  0.00  0.00    +0.042 A 
ATOM     18  C   UNL     1      -1.564   0.550   3.826  0.00  0.00    +0.196 A 
ATOM     19  O   UNL     1      -0.805  -0.378   3.228  0.00  0.00    -0.458 OA
ENDBRANCH  12  15
ENDBRANCH   6  11
ENDBRANCH   1   2
BRANCH   1  24
ATOM     20  C   UNL     1       1.532   1.285  -1.966  0.00  0.00    -0.096 C 
ATOM     21  N   UNL     1       1.687  -0.160  -1.753  0.00  0.00    +0.379 N 
ATOM     22  C   UNL     1       2.436  -0.394  -0.511  0.00  0.00    -0.064 C 
ATOM     23  C   UNL     1       2.613  -1.899  -0.297  0.00  0.00    +0.067 C 
ATOM     24  N   UNL     1       1.292  -2.538  -0.221  0.00  0.00    -0.295 NA
ATOM     25  C   UNL     1       0.520  -2.292  -1.447  0.00  0.00    +0.067 C 
ATOM     26  C   UNL     1       0.361  -0.784  -1.651  0.00  0.00    -0.064 C 
ATOM     27  H   UNL     1       2.189  -0.563  -2.529  0.00  0.00    -0.082 HD
ENDBRANCH   1  24
BRANCH   1  28
ATOM     28  C   UNL     1       0.056  -4.562   0.309  0.00  0.00    +0.016 A 
ATOM     29  C   UNL     1      -0.952  -3.761   0.810  0.00  0.00    +0.013 A 
ATOM     30  C   UNL     1      -2.203  -4.293   1.057  0.00  0.00    +0.046 A 
ATOM     31  C   UNL     1      -2.450  -5.635   0.803  0.00  0.00    +0.124 A 
ATOM     32  C   UNL     1      -1.441  -6.441   0.300  0.00  0.00    +0.091 A 
ATOM     33  C   UNL     1      -0.188  -5.903   0.048  0.00  0.00    +0.129 A 
BRANCH  33  34
ATOM     34  O   UNL     1       0.802  -6.689  -0.451  0.00  0.00    -0.495 OA
ATOM     35  C   UNL     1       0.480  -8.060  -0.696  0.00  0.00    +0.277 C 
ENDBRANCH  33  34
BRANCH  31  36
ATOM     36  O   UNL     1      -3.680  -6.158   1.046  0.00  0.00    -0.495 OA
ATOM     37  C   UNL     1      -4.672  -5.269   1.564  0.00  0.00    +0.277 C 
ENDBRANCH  31  36
ENDBRANCH   1  28
TORSDOF 7
