REMARK  Name = ZINC06441965
REMARK  9 active torsions:
REMARK  status: ('A' for Active; 'I' for Inactive)
REMARK    1  A    between atoms: C_1  and  C_2
REMARK    2  A    between atoms: C_7  and  C_15
REMARK    3  A    between atoms: C_13  and  C_14
REMARK    4  A    between atoms: C_15  and  C_17
REMARK    5  A    between atoms: C_15  and  N_76
REMARK    6  A    between atoms: N_21  and  C_22
REMARK    7  A    between atoms: N_30  and  C_33
REMARK    8  A    between atoms: C_36  and  O_39
REMARK    9  A    between atoms: O_39  and  C_40
REMARK                            x       y       z     vdW  Elec       q    Type
REMARK                         _______ _______ _______ _____ _____    ______ ____
ROOT
ATOM      1  C   UNL     1       1.750   3.127   0.002  0.00  0.00    +0.039 C 
ENDROOT
BRANCH   1   8
ATOM      2  C   UNL     1       3.781   5.628   7.298  0.00  0.00    +0.044 C 
ATOM      3  C   UNL     1       3.221   5.309   5.936  0.00  0.00    -0.046 A 
ATOM      4  C   UNL     1       2.095   5.980   5.481  0.00  0.00    +0.004 A 
ATOM      5  C   UNL     1       1.572   5.706   4.249  0.00  0.00    +0.010 A 
ATOM      6  C   UNL     1       2.177   4.740   3.438  0.00  0.00    -0.001 A 
ATOM      7  C   UNL     1       1.647   4.426   2.111  0.00  0.00    +0.017 A 
ATOM      8  C   UNL     1       2.273   3.477   1.371  0.00  0.00    +0.011 A 
ATOM      9  C   UNL     1       3.415   2.821   1.877  0.00  0.00    +0.251 A 
ATOM     10  O   UNL     1       3.965   1.974   1.194  0.00  0.00    -0.268 OA
ATOM     11  N   UNL     1       3.912   3.106   3.093  0.00  0.00    -0.322 N 
ATOM     12  H   UNL     1       4.699   2.636   3.410  0.00  0.00    +0.169 HD
ATOM     13  C   UNL     1       3.319   4.057   3.896  0.00  0.00    +0.052 A 
ATOM     14  C   UNL     1       3.833   4.352   5.155  0.00  0.00    -0.024 A 
ATOM     15  C   UNL     1       5.055   3.630   5.661  0.00  0.00    +0.046 C 
ENDBRANCH   1   8
BRANCH   1  21
ATOM     16  C   UNL     1       3.385   4.639  -0.950  0.00  0.00    -0.058 C 
ATOM     17  C   UNL     1       4.552   4.734  -1.935  0.00  0.00    +0.086 C 
ATOM     18  N   UNL     1       4.078   4.400  -3.286  0.00  0.00    -0.333 N 
ATOM     19  C   UNL     1       3.518   3.042  -3.323  0.00  0.00    +0.086 C 
ATOM     20  C   UNL     1       2.351   2.946  -2.337  0.00  0.00    -0.058 C 
ATOM     21  N   UNL     1       2.846   3.263  -0.981  0.00  0.00    +0.391 N 
ATOM     22  H   UNL     1       3.596   2.605  -0.738  0.00  0.00    -0.080 HD
BRANCH  18  23
ATOM     23  C   UNL     1       5.102   4.546  -4.228  0.00  0.00    +0.030 A 
ATOM     24  C   UNL     1       5.462   3.475  -5.035  0.00  0.00    +0.027 A 
ATOM     25  C   UNL     1       6.470   3.622  -5.968  0.00  0.00    +0.047 A 
ATOM     26  C   UNL     1       7.130   4.836  -6.091  0.00  0.00    +0.120 A 
ATOM     27  C   UNL     1       6.774   5.905  -5.282  0.00  0.00    +0.047 A 
ATOM     28  C   UNL     1       5.763   5.761  -4.352  0.00  0.00    +0.027 A 
BRANCH  26  29
ATOM     29  O   UNL     1       8.126   4.978  -7.006  0.00  0.00    -0.495 OA
ATOM     30  C   UNL     1       8.439   3.836  -7.806  0.00  0.00    +0.277 C 
ENDBRANCH  26  29
ENDBRANCH  18  23
ENDBRANCH   1  21
BRANCH   1  31
ATOM     31  C   UNL     1       1.265   1.700  -0.001  0.00  0.00    +0.143 A 
ATOM     32  N   UNL     1       2.009   0.621  -0.014  0.00  0.00    -0.115 NA
ATOM     33  N   UNL     1       1.226  -0.403  -0.012  0.00  0.00    -0.023 NA
ATOM     34  N   UNL     1       0.002  -0.004   0.002  0.00  0.00    -0.044 NA
ATOM     35  N   UNL     1      -0.015   1.286   0.009  0.00  0.00    -0.227 N 
BRANCH  35  36
ATOM     36  C   UNL     1      -1.206   2.140   0.020  0.00  0.00    +0.111 C 
ATOM     37  C   UNL     1      -2.034   1.845   1.272  0.00  0.00    +0.027 C 
ATOM     38  C   UNL     1      -3.277   2.737   1.283  0.00  0.00    +0.002 C 
ATOM     39  C   UNL     1      -4.118   2.455   0.036  0.00  0.00    +0.000 C 
ATOM     40  C   UNL     1      -3.290   2.750  -1.216  0.00  0.00    +0.002 C 
ATOM     41  C   UNL     1      -2.047   1.858  -1.227  0.00  0.00    +0.027 C 
ENDBRANCH  35  36
ENDBRANCH   1  31
TORSDOF 6
