REMARK  Name = ZINC43078547
REMARK  6 active torsions:
REMARK  status: ('A' for Active; 'I' for Inactive)
REMARK    1  A    between atoms: C_4  and  C_7
REMARK    2  A    between atoms: C_7  and  C_9
REMARK    3  A    between atoms: C_7  and  C_21
REMARK    4  A    between atoms: C_9  and  N_10
REMARK    5  A    between atoms: C_16  and  C_19
REMARK    6  A    between atoms: C_19  and  O_20
REMARK                            x       y       z     vdW  Elec       q    Type
REMARK                         _______ _______ _______ _____ _____    ______ ____
ROOT
ATOM      1  C   UNL     1       3.715  -0.707  -0.038  0.00  0.00    +0.068 C 
ENDROOT
BRANCH   1   2
ATOM      2  C   UNL     1       3.795  -1.566  -1.273  0.00  0.00    -0.013 A 
ATOM      3  C   UNL     1       2.954  -2.556  -1.614  0.00  0.00    +0.088 A 
ATOM      4  N   UNL     1       3.343  -3.110  -2.803  0.00  0.00    -0.360 N 
ATOM      5  H   UNL     1       2.891  -3.842  -3.251  0.00  0.00    +0.165 HD
ATOM      6  C   UNL     1       4.473  -2.475  -3.268  0.00  0.00    +0.047 A 
ATOM      7  C   UNL     1       4.801  -1.475  -2.334  0.00  0.00    +0.003 A 
ATOM      8  C   UNL     1       5.912  -0.658  -2.550  0.00  0.00    +0.010 A 
ATOM      9  C   UNL     1       6.673  -0.830  -3.672  0.00  0.00    +0.001 A 
ATOM     10  C   UNL     1       6.351  -1.812  -4.599  0.00  0.00    +0.002 A 
ATOM     11  C   UNL     1       5.264  -2.636  -4.400  0.00  0.00    +0.026 A 
ENDBRANCH   1   2
BRANCH   1  15
ATOM     12  C   UNL     1      -0.014   1.376   0.006  0.00  0.00    +0.000 A 
ATOM     13  C   UNL     1       1.173   2.084  -0.001  0.00  0.00    +0.000 A 
ATOM     14  C   UNL     1       2.380   1.410  -0.015  0.00  0.00    +0.004 A 
ATOM     15  C   UNL     1       2.399   0.028  -0.022  0.00  0.00    -0.038 A 
ATOM     16  C   UNL     1       1.212  -0.680  -0.014  0.00  0.00    +0.004 A 
ATOM     17  C   UNL     1       0.005  -0.006  -0.002  0.00  0.00    +0.000 A 
ENDBRANCH   1  15
BRANCH   1  18
ATOM     18  C   UNL     1       3.820  -1.592   1.206  0.00  0.00    +0.118 C 
BRANCH  18  19
ATOM     19  N   UNL     1       3.862  -0.748   2.403  0.00  0.00    -0.298 N 
ATOM     20  C   UNL     1       3.954  -1.314   3.623  0.00  0.00    +0.302 C 
ATOM     21  O   UNL     1       3.910  -2.523   3.737  0.00  0.00    -0.253 OA
ATOM     22  N   UNL     1       4.096  -0.538   4.716  0.00  0.00    -0.286 N 
ATOM     23  C   UNL     1       4.035   0.926   4.609  0.00  0.00    +0.109 C 
ATOM     24  C   UNL     1       5.294   1.521   5.247  0.00  0.00    +0.025 C 
ATOM     25  C   UNL     1       5.429   1.001   6.680  0.00  0.00    +0.017 C 
ATOM     26  C   UNL     1       5.571  -0.523   6.660  0.00  0.00    +0.025 C 
ATOM     27  C   UNL     1       4.309  -1.141   6.039  0.00  0.00    +0.109 C 
ATOM     28  H   UNL     1       3.823   0.217   2.318  0.00  0.00    +0.150 HD
BRANCH  25  29
ATOM     29  C   UNL     1       6.667   1.620   7.332  0.00  0.00    +0.159 C 
BRANCH  29  30
ATOM     30  O   UNL     1       6.729   1.227   8.704  0.00  0.00    -0.395 OA
ATOM     31  H   UNL     1       7.491   1.584   9.181  0.00  0.00    +0.209 HD
ENDBRANCH  29  30
ENDBRANCH  25  29
ENDBRANCH  18  19
ENDBRANCH   1  18
TORSDOF 6
