REMARK  Name = ZINC65477555
REMARK  6 active torsions:
REMARK  status: ('A' for Active; 'I' for Inactive)
REMARK    1  A    between atoms: C_1  and  C_2
REMARK    2  A    between atoms: N_5  and  C_8
REMARK    3  A    between atoms: C_8  and  C_9
REMARK    4  A    between atoms: C_8  and  C_10
REMARK    5  A    between atoms: C_10  and  N_11
REMARK    6  A    between atoms: C_17  and  N_20
REMARK                            x       y       z     vdW  Elec       q    Type
REMARK                         _______ _______ _______ _____ _____    ______ ____
ROOT
ATOM      1  N   UNL     1       1.956  -3.921   2.403  0.00  0.00    -0.301 N 
ATOM      2  C   UNL     1       2.600  -4.105   3.572  0.00  0.00    +0.302 C 
ATOM      3  O   UNL     1       3.660  -4.700   3.595  0.00  0.00    -0.253 OA
ATOM      4  N   UNL     1       2.071  -3.629   4.716  0.00  0.00    -0.286 N 
ATOM      5  C   UNL     1       2.814  -3.718   5.980  0.00  0.00    +0.111 C 
ATOM      6  C   UNL     1       1.930  -4.406   7.025  0.00  0.00    +0.044 C 
ATOM      7  C   UNL     1       0.598  -3.659   7.131  0.00  0.00    +0.095 C 
ATOM      8  C   UNL     1      -0.123  -3.705   5.782  0.00  0.00    +0.044 C 
ATOM      9  C   UNL     1       0.740  -3.005   4.722  0.00  0.00    +0.111 C 
ATOM     10  H   UNL     1       1.077  -3.510   2.393  0.00  0.00    +0.150 HD
ENDROOT
BRANCH   7  11
ATOM     11  N   UNL     1      -0.237  -4.294   8.154  0.00  0.00    -0.289 N 
ATOM     12  C   UNL     1      -0.729  -3.678   9.302  0.00  0.00    +0.070 A 
ATOM     13  C   UNL     1      -0.614  -2.397   9.818  0.00  0.00    +0.028 A 
ATOM     14  C   UNL     1      -1.233  -2.078  11.011  0.00  0.00    +0.002 A 
ATOM     15  C   UNL     1      -1.968  -3.032  11.693  0.00  0.00    +0.002 A 
ATOM     16  C   UNL     1      -2.088  -4.311  11.187  0.00  0.00    +0.028 A 
ATOM     17  C   UNL     1      -1.471  -4.641   9.990  0.00  0.00    +0.067 A 
ATOM     18  N   UNL     1      -1.406  -5.812   9.238  0.00  0.00    -0.306 N 
ATOM     19  H   UNL     1      -1.827  -6.656   9.464  0.00  0.00    +0.170 HD
ATOM     20  C   UNL     1      -0.664  -5.571   8.140  0.00  0.00    +0.328 A 
ATOM     21  O   UNL     1      -0.415  -6.384   7.271  0.00  0.00    -0.247 OA
ENDBRANCH   7  11
BRANCH   1  22
ATOM     22  C   UNL     1       2.582  -4.342   1.147  0.00  0.00    +0.090 C 
BRANCH  22  23
ATOM     23  C   UNL     1       1.706  -3.907  -0.030  0.00  0.00    -0.054 C 
ATOM     24  C   UNL     1       2.414  -4.244  -1.344  0.00  0.00    -0.012 C 
BRANCH  23  29
ATOM     25  C   UNL     1       1.267   1.724  -0.821  0.00  0.00    +0.007 C 
ATOM     26  C   UNL     1       1.562   0.235  -1.019  0.00  0.00    -0.018 C 
ATOM     27  C   UNL     1       2.523  -0.245   0.072  0.00  0.00    -0.016 C 
ATOM     28  C   UNL     1       2.751  -1.751  -0.084  0.00  0.00    -0.078 C 
ATOM     29  N   UNL     1       1.472  -2.459   0.043  0.00  0.00    +0.382 N 
ATOM     30  C   UNL     1       0.570  -2.055  -1.043  0.00  0.00    -0.078 C 
ATOM     31  C   UNL     1       0.258  -0.562  -0.923  0.00  0.00    -0.016 C 
ATOM     32  H   UNL     1       1.050  -2.232   0.931  0.00  0.00    -0.081 HD
ENDBRANCH  23  29
ENDBRANCH  22  23
ENDBRANCH   1  22
TORSDOF 4
