REMARK  Name = ZINC14159835
REMARK  10 active torsions:
REMARK  status: ('A' for Active; 'I' for Inactive)
REMARK    1  A    between atoms: C_1  and  C_2
REMARK    2  A    between atoms: C_5  and  C_37
REMARK    3  A    between atoms: C_6  and  N_8
REMARK    4  A    between atoms: N_8  and  C_9
REMARK    5  A    between atoms: C_9  and  N_11
REMARK    6  A    between atoms: C_16  and  C_21
REMARK    7  A    between atoms: C_18  and  C_20
REMARK    8  A    between atoms: N_25  and  C_28
REMARK    9  A    between atoms: C_28  and  C_29
REMARK   10  A    between atoms: C_30  and  C_31
REMARK                            x       y       z     vdW  Elec       q    Type
REMARK                         _______ _______ _______ _____ _____    ______ ____
ROOT
ATOM      1  N   UNL     1       3.581   5.767  -0.043  0.00  0.00    -0.163 NA
ATOM      2  C   UNL     1       3.644   7.087  -0.060  0.00  0.00    +0.180 C 
ATOM      3  N   UNL     1       4.861   7.714  -0.055  0.00  0.00    -0.258 N 
ATOM      4  C   UNL     1       6.028   6.966  -0.143  0.00  0.00    +0.222 A 
ATOM      5  N   UNL     1       5.945   5.647  -0.227  0.00  0.00    -0.219 NA
ATOM      6  C   UNL     1       7.037   4.905  -0.318  0.00  0.00    +0.044 A 
ATOM      7  C   UNL     1       8.277   5.524  -0.313  0.00  0.00    +0.046 A 
ATOM      8  C   UNL     1       8.327   6.907  -0.219  0.00  0.00    +0.044 A 
ATOM      9  N   UNL     1       7.197   7.589  -0.137  0.00  0.00    -0.219 NA
ATOM     10  C   UNL     1       9.652   7.623  -0.211  0.00  0.00    +0.066 C 
ATOM     11  C   UNL     1       6.933   3.405  -0.419  0.00  0.00    +0.066 C 
ATOM     12  N   UNL     1       2.496   7.825  -0.083  0.00  0.00    -0.302 N 
ATOM     13  C   UNL     1       1.312   7.402   0.679  0.00  0.00    +0.123 C 
ATOM     14  C   UNL     1       0.833   8.593   1.526  0.00  0.00    +0.103 C 
ATOM     15  N   UNL     1       0.627   9.756   0.653  0.00  0.00    -0.296 NA
ATOM     16  C   UNL     1       1.886  10.183   0.028  0.00  0.00    +0.103 C 
ATOM     17  C   UNL     1       2.409   9.061  -0.876  0.00  0.00    +0.123 C 
ATOM     18  H   UNL     1       4.915   8.810   0.020  0.00  0.00    +0.157 HD
ENDROOT
BRANCH   1  19
ATOM     19  C   UNL     1       2.400   5.150  -0.194  0.00  0.00    +0.161 C 
ATOM     20  S   UNL     1       1.530   5.313  -1.659  0.00  0.00    -0.016 S 
BRANCH  19  21
ATOM     21  N   UNL     1       1.897   4.402   0.809  0.00  0.00    -0.295 N 
ATOM     22  H   UNL     1       2.438   4.328   1.764  0.00  0.00    +0.154 HD
BRANCH  21  28
ATOM     23  C   UNL     1      -1.076   1.724  -2.046  0.00  0.00    +0.044 C 
ATOM     24  C   UNL     1      -0.779   2.413  -0.739  0.00  0.00    -0.049 A 
ATOM     25  C   UNL     1      -1.700   2.368   0.291  0.00  0.00    +0.004 A 
ATOM     26  C   UNL     1      -1.433   3.004   1.490  0.00  0.00    +0.005 A 
ATOM     27  C   UNL     1      -0.240   3.678   1.665  0.00  0.00    -0.029 A 
ATOM     28  C   UNL     1       0.689   3.721   0.635  0.00  0.00    +0.036 A 
ATOM     29  C   UNL     1       0.416   3.085  -0.570  0.00  0.00    +0.027 A 
ATOM     30  C   UNL     1       0.052   4.365   2.974  0.00  0.00    +0.045 C 
ENDBRANCH  21  28
ENDBRANCH  19  21
ENDBRANCH   1  19
BRANCH  15  31
ATOM     31  C   UNL     1       0.004  10.864   1.391  0.00  0.00    +0.111 C 
BRANCH  31  32
ATOM     32  C   UNL     1      -1.142  10.336   2.215  0.00  0.00    -0.011 C 
ATOM     33  C   UNL     1      -1.179  10.563   3.521  0.00  0.00    +0.005 C 
BRANCH  33  34
ATOM     34  C   UNL     1      -2.303  10.045   4.329  0.00  0.00    -0.025 A 
ATOM     35  C   UNL     1      -3.330   9.323   3.720  0.00  0.00    +0.008 A 
ATOM     36  C   UNL     1      -4.373   8.838   4.481  0.00  0.00    +0.001 A 
ATOM     37  C   UNL     1      -4.409   9.077   5.843  0.00  0.00    +0.000 A 
ATOM     38  C   UNL     1      -3.397   9.796   6.452  0.00  0.00    +0.001 A 
ATOM     39  C   UNL     1      -2.345  10.282   5.703  0.00  0.00    +0.008 A 
ENDBRANCH  33  34
ENDBRANCH  31  32
ENDBRANCH  15  31
TORSDOF 6
