REMARK  Name = ZINC11156252
REMARK  13 active torsions:
REMARK  status: ('A' for Active; 'I' for Inactive)
REMARK    1  A    between atoms: C_1  and  C_2
REMARK    2  A    between atoms: C_2  and  N_3
REMARK    3  A    between atoms: N_14  and  N_15
REMARK    4  A    between atoms: C_16  and  C_18
REMARK    5  A    between atoms: C_18  and  C_20
REMARK    6  A    between atoms: C_18  and  N_23
REMARK    7  A    between atoms: C_20  and  C_21
REMARK    8  A    between atoms: C_20  and  C_22
REMARK    9  A    between atoms: C_24  and  C_26
REMARK   10  A    between atoms: C_29  and  C_32
REMARK   11  A    between atoms: C_32  and  C_33
REMARK   12  A    between atoms: C_32  and  C_34
REMARK   13  A    between atoms: C_32  and  C_35
REMARK                            x       y       z     vdW  Elec       q    Type
REMARK                         _______ _______ _______ _____ _____    ______ ____
ROOT
ATOM      1  N   UNL     1      -3.675  -2.013  -0.717  0.00  0.00    -0.233 N 
ATOM      2  C   UNL     1      -4.688  -2.588  -0.038  0.00  0.00    +0.250 C 
ATOM      3  O   UNL     1      -4.554  -3.703   0.420  0.00  0.00    -0.272 OA
ATOM      4  H   UNL     1      -3.804  -1.150  -1.141  0.00  0.00    +0.173 HD
ENDROOT
BRANCH   1  16
ATOM      5  N   UNL     1      -0.213  -2.734  -1.571  0.00  0.00    -0.280 N 
ATOM      6  C   UNL     1       0.832  -2.195  -2.240  0.00  0.00    +0.263 A 
ATOM      7  O   UNL     1       1.902  -2.771  -2.310  0.00  0.00    -0.267 OA
ATOM      8  C   UNL     1       0.628  -0.887  -2.879  0.00  0.00    +0.065 A 
ATOM      9  C   UNL     1       1.642  -0.249  -3.591  0.00  0.00    +0.015 A 
ATOM     10  C   UNL     1       1.398   0.968  -4.166  0.00  0.00    +0.001 A 
ATOM     11  C   UNL     1       0.153   1.572  -4.048  0.00  0.00    +0.002 A 
ATOM     12  C   UNL     1      -0.858   0.968  -3.355  0.00  0.00    +0.028 A 
ATOM     13  C   UNL     1      -0.640  -0.276  -2.756  0.00  0.00    +0.080 A 
ATOM     14  N   UNL     1      -1.613  -0.910  -2.061  0.00  0.00    -0.214 NA
ATOM     15  C   UNL     1      -1.406  -2.075  -1.500  0.00  0.00    +0.216 A 
ATOM     16  N   UNL     1      -2.437  -2.660  -0.809  0.00  0.00    -0.234 N 
ATOM     17  H   UNL     1      -2.308  -3.523  -0.385  0.00  0.00    +0.173 HD
BRANCH   5  19
ATOM     18  C   UNL     1       0.424  -3.830   0.521  0.00  0.00    +0.027 C 
ATOM     19  C   UNL     1      -0.062  -4.035  -0.915  0.00  0.00    +0.125 C 
ENDBRANCH   5  19
ENDBRANCH   1  16
BRANCH   2  20
ATOM     20  C   UNL     1      -5.985  -1.846   0.152  0.00  0.00    +0.163 C 
BRANCH  20  21
ATOM     21  N   UNL     1      -7.082  -2.807   0.287  0.00  0.00    -0.300 N 
ATOM     22  C   UNL     1      -8.340  -2.444  -0.033  0.00  0.00    +0.245 C 
ATOM     23  O   UNL     1      -8.565  -1.319  -0.434  0.00  0.00    -0.270 OA
ATOM     24  H   UNL     1      -6.904  -3.705   0.607  0.00  0.00    +0.150 HD
BRANCH  22  25
ATOM     25  C   UNL     1      -9.447  -3.414   0.104  0.00  0.00    +0.037 A 
ATOM     26  C   UNL     1      -9.192  -4.709   0.558  0.00  0.00    +0.013 A 
ATOM     27  C   UNL     1     -10.231  -5.609   0.688  0.00  0.00    +0.005 A 
ATOM     28  C   UNL     1     -11.521  -5.232   0.358  0.00  0.00    -0.042 A 
ATOM     29  C   UNL     1     -11.780  -3.952  -0.097  0.00  0.00    +0.005 A 
ATOM     30  C   UNL     1     -10.751  -3.041  -0.227  0.00  0.00    +0.013 A 
BRANCH  28  31
ATOM     31  C   UNL     1     -12.649  -6.222   0.497  0.00  0.00    -0.013 C 
ATOM     32  C   UNL     1     -13.308  -6.438  -0.867  0.00  0.00    +0.015 C 
ATOM     33  C   UNL     1     -12.100  -7.552   1.016  0.00  0.00    +0.015 C 
ATOM     34  C   UNL     1     -13.685  -5.678   1.483  0.00  0.00    +0.015 C 
ENDBRANCH  28  31
ENDBRANCH  22  25
ENDBRANCH  20  21
BRANCH  20  35
ATOM     35  C   UNL     1      -5.902  -0.986   1.415  0.00  0.00    +0.012 C 
ATOM     36  C   UNL     1      -4.789   0.051   1.253  0.00  0.00    +0.009 C 
ATOM     37  C   UNL     1      -7.237  -0.272   1.635  0.00  0.00    +0.009 C 
ENDBRANCH  20  35
ENDBRANCH   2  20
TORSDOF 7
