REMARK  Name = ZINC38703128
REMARK  3 active torsions:
REMARK  status: ('A' for Active; 'I' for Inactive)
REMARK    1  A    between atoms: C_1  and  C_2
REMARK    2  A    between atoms: C_12  and  C_13
REMARK    3  A    between atoms: C_17  and  C_19
REMARK                            x       y       z     vdW  Elec       q    Type
REMARK                         _______ _______ _______ _____ _____    ______ ____
ROOT
ATOM      1  C   UNL     1      -0.018   1.503   0.010  0.00  0.00    +0.044 C 
ATOM      2  C   UNL     1       0.002  -0.004   0.002  0.00  0.00    -0.044 A 
ATOM      3  C   UNL     1       0.005  -0.683  -1.209  0.00  0.00    +0.004 A 
ATOM      4  C   UNL     1       0.021  -2.050  -1.232  0.00  0.00    +0.015 A 
ATOM      5  C   UNL     1       0.033  -2.761  -0.032  0.00  0.00    +0.065 A 
ATOM      6  C   UNL     1       0.036  -4.246  -0.038  0.00  0.00    +0.199 A 
ATOM      7  O   UNL     1       0.200  -4.908  -1.047  0.00  0.00    -0.287 OA
ATOM      8  C   UNL     1      -0.176  -4.839   1.286  0.00  0.00    +0.072 A 
ATOM      9  C   UNL     1      -0.158  -4.068   2.414  0.00  0.00    +0.199 A 
ATOM     10  O   UNL     1       0.060  -2.739   2.383  0.00  0.00    -0.449 OA
ATOM     11  C   UNL     1       0.036  -2.085   1.199  0.00  0.00    +0.143 A 
ATOM     12  C   UNL     1       0.023  -0.690   1.195  0.00  0.00    -0.005 A 
ATOM     13  C   UNL     1       0.025   0.066   2.499  0.00  0.00    +0.048 C 
ATOM     14  C   UNL     1      -0.408  -4.941   3.575  0.00  0.00    +0.281 C 
ATOM     15  O   UNL     1      -0.459  -4.566   4.729  0.00  0.00    -0.267 OA
ATOM     16  N   UNL     1      -0.571  -6.217   3.168  0.00  0.00    -0.298 N 
ATOM     17  C   UNL     1      -0.436  -6.249   1.703  0.00  0.00    +0.141 C 
ATOM     18  H   UNL     1      -0.745  -6.980   3.742  0.00  0.00    +0.150 HD
ENDROOT
BRANCH  17  19
ATOM     19  C   UNL     1       0.721  -7.130   1.306  0.00  0.00    -0.021 A 
ATOM     20  C   UNL     1       1.863  -7.162   2.084  0.00  0.00    +0.007 A 
ATOM     21  C   UNL     1       2.925  -7.969   1.721  0.00  0.00    +0.022 A 
ATOM     22  C   UNL     1       2.845  -8.745   0.579  0.00  0.00    +0.059 A 
ATOM     23  C   UNL     1       1.701  -8.714  -0.200  0.00  0.00    +0.060 A 
ATOM     24  C   UNL     1       0.637  -7.909   0.168  0.00  0.00    +0.027 A 
ATOM     25 CL   UNL     1       1.599  -9.687  -1.633  0.00  0.00    -0.082 Cl
ATOM     26 CL   UNL     1       4.178  -9.759   0.123  0.00  0.00    -0.082 Cl
ENDBRANCH  17  19
TORSDOF 1
