REMARK  Name = ZINC31848327
REMARK  5 active torsions:
REMARK  status: ('A' for Active; 'I' for Inactive)
REMARK    1  A    between atoms: C_1  and  C_2
REMARK    2  A    between atoms: C_10  and  C_12
REMARK    3  A    between atoms: C_19  and  C_22
REMARK    4  A    between atoms: C_20  and  N_21
REMARK    5  A    between atoms: C_22  and  C_24
REMARK                            x       y       z     vdW  Elec       q    Type
REMARK                         _______ _______ _______ _____ _____    ______ ____
ROOT
ATOM      1  C   UNL     1      -2.799   3.536   0.029  0.00  0.00    +0.064 A 
ATOM      2  C   UNL     1      -3.450   2.285   0.090  0.00  0.00    +0.059 A 
ATOM      3  C   UNL     1      -4.808   1.942   0.133  0.00  0.00    +0.027 A 
ATOM      4  C   UNL     1      -5.165   0.626   0.189  0.00  0.00    +0.003 A 
ATOM      5  C   UNL     1      -4.168  -0.358   0.203  0.00  0.00    +0.018 A 
ATOM      6  C   UNL     1      -2.863  -0.006   0.161  0.00  0.00    +0.092 A 
ATOM      7  N   UNL     1      -2.496   1.306   0.104  0.00  0.00    -0.311 N 
ATOM      8  C   UNL     1      -1.245   1.902   0.054  0.00  0.00    +0.116 A 
ATOM      9  C   UNL     1      -1.417   3.286   0.012  0.00  0.00    +0.065 A 
ENDROOT
BRANCH   1  19
ATOM     10  C   UNL     1      -4.830  10.660  -0.348  0.00  0.00    +0.044 C 
ATOM     11  C   UNL     1      -4.880   9.160  -0.208  0.00  0.00    -0.048 A 
ATOM     12  C   UNL     1      -6.097   8.528   0.006  0.00  0.00    +0.005 A 
ATOM     13  C   UNL     1      -6.160   7.160   0.137  0.00  0.00    +0.030 A 
ATOM     14  C   UNL     1      -4.989   6.399   0.055  0.00  0.00    +0.089 A 
ATOM     15  C   UNL     1      -3.759   7.045  -0.162  0.00  0.00    +0.067 A 
ATOM     16  C   UNL     1      -3.716   8.425  -0.291  0.00  0.00    +0.031 A 
ATOM     17  N   UNL     1      -2.799   6.048  -0.196  0.00  0.00    -0.338 N 
ATOM     18  H   UNL     1      -1.742   6.308  -0.355  0.00  0.00    +0.167 HD
ATOM     19  C   UNL     1      -3.447   4.855  -0.006  0.00  0.00    +0.143 A 
ATOM     20  N   UNL     1      -4.737   5.069   0.136  0.00  0.00    -0.228 NA
ENDBRANCH   1  19
BRANCH   9  21
ATOM     21  N   UNL     1      -0.409   4.239  -0.039  0.00  0.00    -0.356 N 
ATOM     22  H   UNL     1       0.645   3.925  -0.047  0.00  0.00    +0.142 HD
ATOM     23  H   UNL     1      -0.664   5.309  -0.071  0.00  0.00    +0.142 HD
ENDBRANCH   9  21
BRANCH   8  24
ATOM     24  C   UNL     1      -0.010   1.225   0.052  0.00  0.00    +0.212 C 
ATOM     25  O   UNL     1       0.544   0.972  -1.004  0.00  0.00    -0.285 OA
BRANCH  24  26
ATOM     26  C   UNL     1       0.618   0.828   1.331  0.00  0.00    +0.024 A 
ATOM     27  C   UNL     1       0.046   1.218   2.543  0.00  0.00    +0.013 A 
ATOM     28  C   UNL     1       0.633   0.839   3.733  0.00  0.00    +0.016 A 
ATOM     29  C   UNL     1       1.793   0.083   3.726  0.00  0.00    +0.018 A 
ATOM     30  C   UNL     1       2.368  -0.302   2.527  0.00  0.00    +0.016 A 
ATOM     31  C   UNL     1       1.787   0.066   1.331  0.00  0.00    +0.013 A 
ATOM     32 BR   UNL     1       2.595  -0.426   5.361  0.00  0.00    -0.050 Br
ENDBRANCH  24  26
ENDBRANCH   8  24
TORSDOF 4
