REMARK  Name = ZINC01515310
REMARK  4 active torsions:
REMARK  status: ('A' for Active; 'I' for Inactive)
REMARK    1  A    between atoms: C_1  and  C_2
REMARK    2  A    between atoms: C_5  and  C_8
REMARK    3  A    between atoms: C_8  and  C_22
REMARK    4  A    between atoms: N_12  and  C_16
REMARK                            x       y       z     vdW  Elec       q    Type
REMARK                         _______ _______ _______ _____ _____    ______ ____
ROOT
ATOM      1  C   UNL     1      -2.413   1.137  -0.299  0.00  0.00    +0.209 C 
ATOM      2  N   UNL     1      -3.289   1.704  -1.326  0.00  0.00    -0.273 N 
ATOM      3  C   UNL     1      -4.408   1.144  -1.764  0.00  0.00    +0.313 C 
ATOM      4  O   UNL     1      -5.060   1.810  -2.545  0.00  0.00    -0.252 OA
ATOM      5  N   UNL     1      -4.915  -0.052  -1.462  0.00  0.00    -0.219 N 
ATOM      6  C   UNL     1      -4.251  -0.927  -0.585  0.00  0.00    +0.072 C 
ATOM      7  C   UNL     1      -4.896  -1.882   0.080  0.00  0.00    +0.042 C 
ATOM      8  S   UNL     1      -2.501  -0.680  -0.420  0.00  0.00    -0.071 S 
ATOM      9  H   UNL     1      -3.032   2.555  -1.715  0.00  0.00    +0.152 HD
ENDROOT
BRANCH   1  14
ATOM     10  C   UNL     1       3.022   2.885  -1.194  0.00  0.00    +0.044 C 
ATOM     11  C   UNL     1       1.604   2.430  -0.959  0.00  0.00    -0.050 A 
ATOM     12  C   UNL     1       1.361   1.238  -0.303  0.00  0.00    +0.004 A 
ATOM     13  C   UNL     1       0.061   0.821  -0.086  0.00  0.00    +0.007 A 
ATOM     14  C   UNL     1      -0.996   1.594  -0.530  0.00  0.00    -0.005 A 
ATOM     15  C   UNL     1      -0.752   2.788  -1.183  0.00  0.00    +0.007 A 
ATOM     16  C   UNL     1       0.548   3.205  -1.399  0.00  0.00    +0.004 A 
ENDBRANCH   1  14
BRANCH   5  17
ATOM     17  C   UNL     1      -6.133  -0.445  -2.031  0.00  0.00    +0.043 A 
ATOM     18  C   UNL     1      -6.145  -1.210  -3.190  0.00  0.00    +0.024 A 
ATOM     19  C   UNL     1      -7.347  -1.599  -3.746  0.00  0.00    +0.002 A 
ATOM     20  C   UNL     1      -8.539  -1.220  -3.156  0.00  0.00    +0.000 A 
ATOM     21  C   UNL     1      -8.530  -0.454  -2.005  0.00  0.00    +0.002 A 
ATOM     22  C   UNL     1      -7.331  -0.066  -1.441  0.00  0.00    +0.024 A 
ENDBRANCH   5  17
BRANCH   1  23
ATOM     23  C   UNL     1      -2.881   1.585   1.087  0.00  0.00    +0.425 C 
ATOM     24  F   UNL     1      -2.825   2.981   1.168  0.00  0.00    -0.167 F 
ATOM     25  F   UNL     1      -4.197   1.158   1.295  0.00  0.00    -0.167 F 
ATOM     26  F   UNL     1      -2.049   1.028   2.063  0.00  0.00    -0.167 F 
ENDBRANCH   1  23
TORSDOF 3
