REMARK  Name = ZINC00713914
REMARK  7 active torsions:
REMARK  status: ('A' for Active; 'I' for Inactive)
REMARK    1  A    between atoms: C_1  and  C_2
REMARK    2  A    between atoms: C_2  and  O_3
REMARK    3  A    between atoms: O_3  and  C_4
REMARK    4  A    between atoms: C_4  and  C_6
REMARK    5  A    between atoms: C_7  and  N_32
REMARK    6  A    between atoms: N_8  and  C_25
REMARK    7  A    between atoms: C_11  and  C_13
REMARK                            x       y       z     vdW  Elec       q    Type
REMARK                         _______ _______ _______ _____ _____    ______ ____
ROOT
ATOM      1  C   UNL     1      -3.589   1.942   0.299  0.00  0.00    +0.084 C 
ATOM      2  C   UNL     1      -2.417   1.368  -0.089  0.00  0.00    +0.103 C 
ATOM      3  N   UNL     1      -1.238   2.063   0.030  0.00  0.00    -0.261 N 
ATOM      4  C   UNL     1      -1.242   3.429   0.153  0.00  0.00    +0.024 C 
ATOM      5  C   UNL     1      -2.357   4.083   0.537  0.00  0.00    +0.025 C 
ATOM      6  C   UNL     1      -3.621   3.330   0.868  0.00  0.00    +0.094 C 
ATOM      7  C   UNL     1      -2.374   5.485   0.645  0.00  0.00    +0.162 C 
ATOM      8  O   UNL     1      -3.392   6.042   1.006  0.00  0.00    -0.292 OA
ATOM      9  C   UNL     1      -1.157   6.308   0.321  0.00  0.00    +0.080 C 
ATOM     10  C   UNL     1      -0.314   5.564  -0.719  0.00  0.00    +0.014 C 
ATOM     11  C   UNL     1       0.029   4.179  -0.165  0.00  0.00    +0.052 C 
ENDROOT
BRANCH   6  12
ATOM     12  C   UNL     1      -3.769   3.247   2.366  0.00  0.00    -0.035 A 
ATOM     13  C   UNL     1      -2.815   2.588   3.119  0.00  0.00    +0.007 A 
ATOM     14  C   UNL     1      -2.947   2.516   4.492  0.00  0.00    +0.038 A 
ATOM     15  C   UNL     1      -4.041   3.094   5.113  0.00  0.00    +0.123 A 
ATOM     16  C   UNL     1      -4.998   3.749   4.358  0.00  0.00    +0.038 A 
ATOM     17  C   UNL     1      -4.861   3.825   2.985  0.00  0.00    +0.007 A 
ATOM     18  F   UNL     1      -4.174   3.020   6.456  0.00  0.00    -0.205 F 
ENDBRANCH   6  12
BRANCH   3  19
ATOM     19  C   UNL     1      -0.021   1.370   0.032  0.00  0.00    +0.040 A 
ATOM     20  C   UNL     1       0.750   1.319   1.186  0.00  0.00    +0.025 A 
ATOM     21  C   UNL     1       1.952   0.640   1.183  0.00  0.00    +0.022 A 
ATOM     22  C   UNL     1       2.389   0.010   0.032  0.00  0.00    +0.041 A 
ATOM     23  C   UNL     1       1.624   0.059  -1.120  0.00  0.00    +0.022 A 
ATOM     24  C   UNL     1       0.421   0.737  -1.123  0.00  0.00    +0.025 A 
ATOM     25 CL   UNL     1       3.901  -0.843   0.031  0.00  0.00    -0.084 Cl
ENDBRANCH   3  19
BRANCH   2  26
ATOM     26  N   UNL     1      -2.414   0.096  -0.599  0.00  0.00    -0.346 N 
ATOM     27  H   UNL     1      -1.664  -0.494  -0.425  0.00  0.00    +0.143 HD
ATOM     28  H   UNL     1      -3.161  -0.214  -1.134  0.00  0.00    +0.143 HD
ENDBRANCH   2  26
BRANCH   1  29
ATOM     29  C   UNL     1      -4.786   1.224   0.166  0.00  0.00    +0.339 C 
ATOM     30  O   UNL     1      -4.763   0.064  -0.205  0.00  0.00    -0.245 OA
BRANCH  29  31
ATOM     31  O   UNL     1      -5.966   1.819   0.447  0.00  0.00    -0.462 OA
BRANCH  31  33
ATOM     32  C   UNL     1      -8.373   1.867   0.651  0.00  0.00    +0.048 C 
ATOM     33  C   UNL     1      -7.146   1.029   0.289  0.00  0.00    +0.229 C 
ENDBRANCH  31  33
ENDBRANCH  29  31
ENDBRANCH   1  29
TORSDOF 6
