REMARK  Name = ZINC43262813
REMARK  10 active torsions:
REMARK  status: ('A' for Active; 'I' for Inactive)
REMARK    1  A    between atoms: C_1  and  C_2
REMARK    2  A    between atoms: C_2  and  C_3
REMARK    3  A    between atoms: C_3  and  C_5
REMARK    4  A    between atoms: C_3  and  N_23
REMARK    5  A    between atoms: C_5  and  C_7
REMARK    6  A    between atoms: C_5  and  N_13
REMARK    7  A    between atoms: N_13  and  C_14
REMARK    8  A    between atoms: N_13  and  C_17
REMARK    9  A    between atoms: C_14  and  C_15
REMARK   10  A    between atoms: C_15  and  O_16
REMARK                            x       y       z     vdW  Elec       q    Type
REMARK                         _______ _______ _______ _____ _____    ______ ____
ROOT
ATOM      1  C   UNL     1       1.048  -2.406  -1.081  0.00  0.00    -0.013 C 
ENDROOT
BRANCH   1   2
ATOM      2  C   UNL     1      -0.390  -2.856  -1.107  0.00  0.00    -0.021 A 
ATOM      3  C   UNL     1      -0.946  -3.897  -1.774  0.00  0.00    +0.011 A 
ATOM      4  C   UNL     1      -2.304  -4.125  -1.649  0.00  0.00    +0.023 A 
ATOM      5  C   UNL     1      -3.039  -3.300  -0.863  0.00  0.00    +0.055 A 
ATOM      6  S   UNL     1      -1.801  -2.162  -0.262  0.00  0.00    -0.088 S 
ATOM      7 BR   UNL     1      -4.893  -3.347  -0.492  0.00  0.00    -0.043 Br
ENDBRANCH   1   2
BRANCH   1   8
ATOM      8  N   UNL     1       1.433  -2.078   0.298  0.00  0.00    +0.389 N 
ATOM      9  H   UNL     1       0.745  -1.461   0.702  0.00  0.00    -0.080 HD
BRANCH   8  10
ATOM     10  C   UNL     1       1.510  -3.312   1.091  0.00  0.00    -0.068 C 
ATOM     11  C   UNL     1       0.109  -3.908   1.245  0.00  0.00    -0.015 C 
ATOM     12  C   UNL     1       0.189  -5.193   2.071  0.00  0.00    -0.002 C 
ATOM     13  C   UNL     1       0.763  -4.876   3.453  0.00  0.00    -0.000 C 
ATOM     14  C   UNL     1       2.164  -4.281   3.300  0.00  0.00    -0.002 C 
ATOM     15  C   UNL     1       2.084  -2.995   2.473  0.00  0.00    -0.015 C 
ENDBRANCH   8  10
BRANCH   8  16
ATOM     16  C   UNL     1       2.744  -1.415   0.296  0.00  0.00    -0.049 C 
BRANCH  16  17
ATOM     17  C   UNL     1       2.550   0.100   0.206  0.00  0.00    +0.137 C 
BRANCH  17  18
ATOM     18  O   UNL     1       1.835   0.557   1.356  0.00  0.00    -0.397 OA
ATOM     19  H   UNL     1       1.675   1.510   1.367  0.00  0.00    +0.209 HD
ENDBRANCH  17  18
ENDBRANCH  16  17
ENDBRANCH   8  16
ENDBRANCH   1   8
BRANCH   1  20
ATOM     20  C   UNL     1       1.210  -1.167  -1.964  0.00  0.00    +0.042 C 
BRANCH  20  21
ATOM     21  N   UNL     1       0.937  -1.523  -3.363  0.00  0.00    -0.328 NA
ATOM     22  H   UNL     1       1.613  -2.188  -3.705  0.00  0.00    +0.118 HD
ATOM     23  H   UNL     1      -0.003  -1.875  -3.469  0.00  0.00    +0.118 HD
ENDBRANCH  20  21
BRANCH  20  25
ATOM     24  C   UNL     1       0.479   1.198  -2.305  0.00  0.00    +0.005 C 
ATOM     25  C   UNL     1       0.227  -0.086  -1.511  0.00  0.00    +0.014 C 
ENDBRANCH  20  25
ENDBRANCH   1  20
TORSDOF 9
