REMARK  Name = ZINC06768769
REMARK  6 active torsions:
REMARK  status: ('A' for Active; 'I' for Inactive)
REMARK    1  A    between atoms: C_1  and  C_2
REMARK    2  A    between atoms: C_7  and  N_12
REMARK    3  A    between atoms: C_9  and  C_11
REMARK    4  A    between atoms: N_12  and  C_13
REMARK    5  A    between atoms: C_15  and  C_24
REMARK    6  A    between atoms: C_21  and  C_22
REMARK                            x       y       z     vdW  Elec       q    Type
REMARK                         _______ _______ _______ _____ _____    ______ ____
ROOT
ATOM      1  C   UNL     1      -0.673  -3.901   1.817  0.00  0.00    +0.227 C 
ATOM      2  C   UNL     1      -1.913  -4.630   1.339  0.00  0.00    +0.096 C 
ATOM      3  N   UNL     1      -2.620  -4.897   2.408  0.00  0.00    -0.227 NA
ATOM      4  C   UNL     1      -2.040  -4.455   3.537  0.00  0.00    +0.171 A 
ATOM      5  N   UNL     1      -0.850  -3.838   3.275  0.00  0.00    -0.222 N 
ATOM      6  N   UNL     1      -0.291  -3.402   4.477  0.00  0.00    -0.175 NA
ATOM      7  C   UNL     1      -1.082  -3.726   5.462  0.00  0.00    +0.155 A 
ATOM      8  C   UNL     1      -2.214  -4.396   4.930  0.00  0.00    +0.115 A 
ENDROOT
BRANCH   2   9
ATOM      9  C   UNL     1      -2.242  -4.957   0.003  0.00  0.00    +0.037 A 
ATOM     10  C   UNL     1      -3.364  -5.617  -0.488  0.00  0.00    +0.017 A 
ATOM     11  C   UNL     1      -3.403  -5.791  -1.850  0.00  0.00    +0.008 A 
ATOM     12  C   UNL     1      -2.378  -5.322  -2.605  0.00  0.00    +0.046 A 
ATOM     13  S   UNL     1      -1.330  -4.624  -1.492  0.00  0.00    -0.095 S 
ENDBRANCH   2   9
BRANCH   1  14
ATOM     14  N   UNL     1      -0.615  -2.549   1.244  0.00  0.00    -0.287 NA
ATOM     15  H   UNL     1      -1.229  -1.920   1.739  0.00  0.00    +0.125 HD
BRANCH  14  21
ATOM     16  C   UNL     1      -0.019   1.526   0.010  0.00  0.00    +0.008 C 
ATOM     17  C   UNL     1       0.002  -0.004   0.002  0.00  0.00    -0.010 C 
ATOM     18  C   UNL     1       0.718  -0.497  -1.257  0.00  0.00    +0.003 C 
ATOM     19  C   UNL     1       0.739  -2.027  -1.265  0.00  0.00    +0.002 C 
ATOM     20  C   UNL     1       1.479  -2.534  -0.026  0.00  0.00    +0.019 C 
ATOM     21  C   UNL     1       0.763  -2.041   1.233  0.00  0.00    +0.059 C 
ATOM     22  C   UNL     1       0.742  -0.511   1.242  0.00  0.00    +0.006 C 
ATOM     23  C   UNL     1       0.026  -0.018   2.500  0.00  0.00    +0.009 C 
ENDBRANCH  14  21
ENDBRANCH   1  14
BRANCH   8  24
ATOM     24  C   UNL     1      -3.323  -4.919   5.671  0.00  0.00    +0.104 C 
ATOM     25  N   UNL     1      -4.202  -5.333   6.260  0.00  0.00    -0.191 NA
ENDBRANCH   8  24
TORSDOF 4
