REMARK  Name = ZINC39280079
REMARK  8 active torsions:
REMARK  status: ('A' for Active; 'I' for Inactive)
REMARK    1  A    between atoms: C_1  and  C_2
REMARK    2  A    between atoms: C_6  and  S_15
REMARK    3  A    between atoms: N_8  and  C_9
REMARK    4  A    between atoms: S_15  and  C_16
REMARK    5  A    between atoms: C_16  and  C_17
REMARK    6  A    between atoms: N_19  and  N_20
REMARK    7  A    between atoms: C_21  and  C_22
REMARK    8  A    between atoms: C_27  and  C_28
REMARK                            x       y       z     vdW  Elec       q    Type
REMARK                         _______ _______ _______ _____ _____    ______ ____
ROOT
ATOM      1  C   UNL     1      -0.036   2.855   4.223  0.00  0.00    +0.242 C 
ATOM      2  O   UNL     1       0.108   2.424   5.348  0.00  0.00    -0.273 OA
ATOM      3  N   UNL     1      -0.036   4.185   4.007  0.00  0.00    -0.207 N 
ATOM      4  H   UNL     1      -0.151   4.530   3.107  0.00  0.00    +0.177 HD
ENDROOT
BRANCH   3   5
ATOM      5  N   UNL     1       0.130   5.070   5.080  0.00  0.00    -0.192 NA
ATOM      6  C   UNL     1       0.130   6.333   4.874  0.00  0.00    +0.118 C 
BRANCH   6   7
ATOM      7  C   UNL     1       0.309   7.285   6.029  0.00  0.00    +0.125 C 
ATOM      8  C   UNL     1      -0.851   8.257   6.104  0.00  0.00    +0.123 C 
ATOM      9  N   UNL     1      -0.343   9.435   5.943  0.00  0.00    -0.161 NA
ATOM     10  N   UNL     1       1.036   9.401   5.764  0.00  0.00    -0.153 NA
ATOM     11  C   UNL     1       1.510   8.182   5.801  0.00  0.00    +0.084 C 
BRANCH  11  12
ATOM     12  C   UNL     1       2.913   7.766   5.651  0.00  0.00    +0.000 A 
ATOM     13  C   UNL     1       3.254   6.411   5.710  0.00  0.00    +0.011 A 
ATOM     14  C   UNL     1       4.571   6.027   5.569  0.00  0.00    +0.022 A 
ATOM     15  C   UNL     1       5.556   6.981   5.370  0.00  0.00    +0.059 A 
ATOM     16  C   UNL     1       5.226   8.326   5.311  0.00  0.00    +0.060 A 
ATOM     17  C   UNL     1       3.911   8.723   5.445  0.00  0.00    +0.031 A 
ATOM     18 CL   UNL     1       6.468   9.513   5.062  0.00  0.00    -0.082 Cl
ATOM     19 CL   UNL     1       7.211   6.489   5.194  0.00  0.00    -0.082 Cl
ENDBRANCH  11  12
ENDBRANCH   6   7
ENDBRANCH   3   5
BRANCH   1  20
ATOM     20  C   UNL     1      -0.215   1.903   3.069  0.00  0.00    +0.169 C 
BRANCH  20  21
ATOM     21  S   UNL     1      -0.169   0.196   3.680  0.00  0.00    -0.112 S 
BRANCH  21  26
ATOM     22  C   UNL     1      -0.019   1.526   0.010  0.00  0.00    +0.046 C 
ATOM     23  C   UNL     1       0.002  -0.004   0.002  0.00  0.00    +0.155 C 
ATOM     24  N   UNL     1      -1.380  -0.543   0.090  0.00  0.00    -0.235 NA
ATOM     25  N   UNL     1      -1.675  -0.462   1.530  0.00  0.00    -0.226 NA
ATOM     26  C   UNL     1      -0.395  -0.811   2.188  0.00  0.00    +0.217 C 
ATOM     27  N   UNL     1       0.674  -0.518   1.212  0.00  0.00    -0.288 N 
ATOM     28  H   UNL     1      -1.417  -1.498  -0.233  0.00  0.00    +0.143 HD
ATOM     29  H   UNL     1      -1.972   0.467   1.786  0.00  0.00    +0.143 HD
BRANCH  27  30
ATOM     30  C   UNL     1       2.048  -0.693   1.396  0.00  0.00    +0.033 A 
ATOM     31  C   UNL     1       2.933  -0.365   0.377  0.00  0.00    +0.023 A 
ATOM     32  C   UNL     1       4.291  -0.538   0.562  0.00  0.00    +0.002 A 
ATOM     33  C   UNL     1       4.769  -1.039   1.759  0.00  0.00    +0.000 A 
ATOM     34  C   UNL     1       3.890  -1.367   2.775  0.00  0.00    +0.002 A 
ATOM     35  C   UNL     1       2.532  -1.190   2.599  0.00  0.00    +0.023 A 
ENDBRANCH  27  30
ENDBRANCH  21  26
ENDBRANCH  20  21
ENDBRANCH   1  20
TORSDOF 7
