REMARK  Name = ZINC01341859
REMARK  9 active torsions:
REMARK  status: ('A' for Active; 'I' for Inactive)
REMARK    1  A    between atoms: C_1  and  C_2
REMARK    2  A    between atoms: C_5  and  C_8
REMARK    3  A    between atoms: C_8  and  C_10
REMARK    4  A    between atoms: C_8  and  N_20
REMARK    5  A    between atoms: N_12  and  C_13
REMARK    6  A    between atoms: C_13  and  C_14
REMARK    7  A    between atoms: N_20  and  C_21
REMARK    8  A    between atoms: C_30  and  C_32
REMARK    9  A    between atoms: C_32  and  N_33
REMARK                            x       y       z     vdW  Elec       q    Type
REMARK                         _______ _______ _______ _____ _____    ______ ____
ROOT
ATOM      1  N   UNL     1       1.366  -2.329  -0.222  0.00  0.00    -0.254 N 
ATOM      2  C   UNL     1       2.256  -2.650   0.738  0.00  0.00    +0.242 C 
ATOM      3  O   UNL     1       1.911  -3.330   1.681  0.00  0.00    -0.273 OA
ENDROOT
BRANCH   1   4
ATOM      4  C   UNL     1       1.788  -1.632  -1.363  0.00  0.00    +0.041 A 
ATOM      5  C   UNL     1       1.817  -2.272  -2.595  0.00  0.00    +0.027 A 
ATOM      6  C   UNL     1       2.232  -1.586  -3.720  0.00  0.00    +0.051 A 
ATOM      7  C   UNL     1       2.621  -0.260  -3.623  0.00  0.00    +0.166 A 
ATOM      8  C   UNL     1       2.593   0.384  -2.388  0.00  0.00    +0.168 A 
ATOM      9  C   UNL     1       2.176  -0.304  -1.261  0.00  0.00    +0.073 A 
ATOM     10  O   UNL     1       3.018   1.670  -2.557  0.00  0.00    -0.453 OA
ATOM     11  C   UNL     1       3.693   1.688  -3.828  0.00  0.00    +0.466 C 
ATOM     12  O   UNL     1       3.064   0.624  -4.566  0.00  0.00    -0.453 OA
ENDBRANCH   1   4
BRANCH   1  13
ATOM     13  C   UNL     1      -0.041  -2.707  -0.073  0.00  0.00    +0.197 C 
BRANCH  13  18
ATOM     14  C   UNL     1      -2.921  -1.352  -4.897  0.00  0.00    +0.044 C 
ATOM     15  C   UNL     1      -2.170  -1.706  -3.639  0.00  0.00    -0.050 A 
ATOM     16  C   UNL     1      -2.157  -3.011  -3.185  0.00  0.00    +0.004 A 
ATOM     17  C   UNL     1      -1.468  -3.335  -2.031  0.00  0.00    +0.006 A 
ATOM     18  C   UNL     1      -0.792  -2.354  -1.331  0.00  0.00    -0.018 A 
ATOM     19  C   UNL     1      -0.809  -1.047  -1.782  0.00  0.00    +0.006 A 
ATOM     20  C   UNL     1      -1.494  -0.724  -2.938  0.00  0.00    +0.004 A 
ENDBRANCH  13  18
BRANCH  13  21
ATOM     21  C   UNL     1      -0.640  -1.966   1.094  0.00  0.00    +0.239 C 
ATOM     22  O   UNL     1       0.042  -1.198   1.739  0.00  0.00    -0.273 OA
ATOM     23  N   UNL     1      -1.933  -2.158   1.422  0.00  0.00    -0.311 N 
ATOM     24  H   UNL     1      -2.478  -2.773   0.907  0.00  0.00    +0.149 HD
BRANCH  23  25
ATOM     25  C   UNL     1      -2.515  -1.438   2.557  0.00  0.00    +0.135 C 
BRANCH  25  26
ATOM     26  C   UNL     1      -3.985  -1.833   2.712  0.00  0.00    +0.135 C 
ATOM     27  C   UNL     1      -4.643  -1.021   3.850  0.00  0.00    +0.035 C 
ATOM     28  C   UNL     1      -5.602  -2.028   4.524  0.00  0.00    +0.031 C 
ATOM     29  C   UNL     1      -5.410  -3.329   3.714  0.00  0.00    +0.160 C 
ATOM     30  O   UNL     1      -4.093  -3.212   3.130  0.00  0.00    -0.375 OA
ENDBRANCH  25  26
ENDBRANCH  23  25
ENDBRANCH  13  21
ENDBRANCH   1  13
BRANCH   2  31
ATOM     31  C   UNL     1       3.679  -2.163   0.640  0.00  0.00    +0.242 C 
BRANCH  31  32
ATOM     32  N   UNL     1       4.469  -2.745   1.728  0.00  0.00    -0.235 N 
ATOM     33  C   UNL     1       4.668  -2.209   2.978  0.00  0.00    +0.090 A 
ATOM     34  C   UNL     1       4.230  -1.052   3.615  0.00  0.00    +0.029 A 
ATOM     35  C   UNL     1       4.608  -0.801   4.904  0.00  0.00    +0.002 A 
ATOM     36  C   UNL     1       5.420  -1.695   5.589  0.00  0.00    +0.002 A 
ATOM     37  C   UNL     1       5.858  -2.840   4.990  0.00  0.00    +0.032 A 
ATOM     38  C   UNL     1       5.485  -3.121   3.668  0.00  0.00    +0.113 A 
ATOM     39  N   UNL     1       5.753  -4.144   2.832  0.00  0.00    -0.129 NA
ATOM     40  N   UNL     1       5.178  -3.955   1.697  0.00  0.00    -0.064 NA
ENDBRANCH  31  32
ENDBRANCH   2  31
TORSDOF 8
