REMARK  Name = ZINC60805706
REMARK  13 active torsions:
REMARK  status: ('A' for Active; 'I' for Inactive)
REMARK    1  A    between atoms: C_1  and  C_2
REMARK    2  A    between atoms: C_2  and  C_3
REMARK    3  A    between atoms: C_3  and  C_4
REMARK    4  A    between atoms: C_4  and  N_5
REMARK    5  A    between atoms: N_5  and  C_6
REMARK    6  A    between atoms: C_6  and  C_7
REMARK    7  A    between atoms: C_8  and  C_10
REMARK    8  A    between atoms: C_10  and  O_11
REMARK    9  A    between atoms: O_11  and  C_12
REMARK   10  A    between atoms: C_14  and  C_21
REMARK   11  A    between atoms: C_17  and  N_18
REMARK   12  A    between atoms: C_21  and  O_23
REMARK   13  A    between atoms: O_23  and  C_24
REMARK                            x       y       z     vdW  Elec       q    Type
REMARK                         _______ _______ _______ _____ _____    ______ ____
ROOT
ATOM      1  C   UNL     1       0.955  -3.816  -7.089  0.00  0.00    +0.152 A 
ATOM      2  C   UNL     1       2.305  -4.083  -7.241  0.00  0.00    +0.063 A 
ATOM      3  C   UNL     1       2.789  -4.531  -8.471  0.00  0.00    +0.063 A 
ATOM      4  C   UNL     1       1.908  -4.706  -9.540  0.00  0.00    +0.017 A 
ATOM      5  C   UNL     1       0.565  -4.437  -9.378  0.00  0.00    +0.037 A 
ATOM      6  C   UNL     1       0.086  -3.998  -8.156  0.00  0.00    +0.168 A 
ENDROOT
BRANCH   6   7
ATOM      7  N   UNL     1      -1.358  -3.717  -7.988  0.00  0.00    +0.060 N 
ATOM      8  O   UNL     1      -2.116  -3.876  -8.916  0.00  0.00    -0.126 OA
ATOM      9  O   UNL     1      -1.778  -3.329  -6.923  0.00  0.00    -0.126 OA
ENDBRANCH   6   7
BRANCH   3  10
ATOM     10  C   UNL     1       4.228  -4.818  -8.642  0.00  0.00    +0.339 C 
ATOM     11  O   UNL     1       4.993  -4.664  -7.710  0.00  0.00    -0.245 OA
BRANCH  10  12
ATOM     12  O   UNL     1       4.693  -5.250  -9.830  0.00  0.00    -0.464 OA
ATOM     13  C   UNL     1       6.095  -5.508  -9.924  0.00  0.00    +0.280 C 
ENDBRANCH  10  12
ENDBRANCH   3  10
BRANCH   1  14
ATOM     14  O   UNL     1       0.479  -3.380  -5.893  0.00  0.00    -0.480 OA
BRANCH  14  15
ATOM     15  C   UNL     1       1.429  -3.214  -4.839  0.00  0.00    +0.324 C 
BRANCH  15  17
ATOM     16  N   UNL     1       1.425  -2.500  -2.470  0.00  0.00    -0.299 N 
ATOM     17  C   UNL     1       0.724  -2.728  -3.599  0.00  0.00    +0.253 C 
ATOM     18  O   UNL     1      -0.474  -2.542  -3.616  0.00  0.00    -0.272 OA
BRANCH  16  19
ATOM     19  C   UNL     1       2.872  -2.724  -2.449  0.00  0.00    +0.104 C 
ATOM     20  C   UNL     1       3.158  -4.168  -2.031  0.00  0.00    +0.024 C 
ENDBRANCH  16  19
BRANCH  16  21
ATOM     21  C   UNL     1       0.739  -2.027  -1.265  0.00  0.00    +0.108 C 
BRANCH  21  22
ATOM     22  C   UNL     1       0.718  -0.497  -1.257  0.00  0.00    +0.019 C 
BRANCH  22  24
ATOM     23  C   UNL     1      -0.019   1.526   0.010  0.00  0.00    +0.004 C 
ATOM     24  C   UNL     1       0.002  -0.004   0.002  0.00  0.00    -0.002 C 
ENDBRANCH  22  24
ENDBRANCH  21  22
ENDBRANCH  16  21
ENDBRANCH  15  17
ENDBRANCH  14  15
ENDBRANCH   1  14
TORSDOF 10
