REMARK  Name = ZINC41512480
REMARK  9 active torsions:
REMARK  status: ('A' for Active; 'I' for Inactive)
REMARK    1  A    between atoms: C_1  and  C_2
REMARK    2  A    between atoms: N_7  and  C_9
REMARK    3  A    between atoms: C_9  and  C_10
REMARK    4  A    between atoms: C_11  and  O_31
REMARK    5  A    between atoms: C_18  and  C_19
REMARK    6  A    between atoms: C_22  and  C_25
REMARK    7  A    between atoms: C_25  and  C_26
REMARK    8  A    between atoms: C_25  and  C_27
REMARK    9  A    between atoms: C_25  and  C_28
REMARK                            x       y       z     vdW  Elec       q    Type
REMARK                         _______ _______ _______ _____ _____    ______ ____
ROOT
ATOM      1  C   UNL     1       1.279  -3.985   2.454  0.00  0.00    +0.020 A 
ATOM      2  C   UNL     1       0.317  -4.559   3.269  0.00  0.00    +0.122 A 
ATOM      3  C   UNL     1       0.414  -5.896   3.646  0.00  0.00    +0.046 A 
ATOM      4  C   UNL     1       1.463  -6.656   3.213  0.00  0.00    +0.019 A 
ATOM      5  C   UNL     1       2.439  -6.091   2.392  0.00  0.00    +0.068 A 
ATOM      6  C   UNL     1       2.349  -4.745   2.001  0.00  0.00    +0.144 A 
ATOM      7  O   UNL     1       3.397  -4.429   1.208  0.00  0.00    -0.451 OA
ATOM      8  C   UNL     1       4.219  -5.487   1.015  0.00  0.00    +0.176 C 
ATOM      9  C   UNL     1       5.354  -5.495   0.272  0.00  0.00    +0.058 C 
ATOM     10  C   UNL     1       3.665  -6.623   1.769  0.00  0.00    +0.231 C 
ATOM     11  O   UNL     1       4.113  -7.754   1.851  0.00  0.00    -0.283 OA
ENDROOT
BRANCH   9  12
ATOM     12  C   UNL     1       6.054  -6.761   0.013  0.00  0.00    -0.021 A 
ATOM     13  C   UNL     1       5.326  -7.924  -0.262  0.00  0.00    +0.008 A 
ATOM     14  C   UNL     1       5.990  -9.108  -0.504  0.00  0.00    +0.005 A 
ATOM     15  C   UNL     1       7.373  -9.148  -0.474  0.00  0.00    -0.042 A 
ATOM     16  C   UNL     1       8.101  -8.002  -0.201  0.00  0.00    +0.005 A 
ATOM     17  C   UNL     1       7.452  -6.809   0.036  0.00  0.00    +0.008 A 
BRANCH  15  18
ATOM     18  C   UNL     1       8.091 -10.446  -0.738  0.00  0.00    -0.013 C 
ATOM     19  C   UNL     1       7.735 -10.950  -2.138  0.00  0.00    +0.015 C 
ATOM     20  C   UNL     1       9.602 -10.222  -0.646  0.00  0.00    +0.015 C 
ATOM     21  C   UNL     1       7.666 -11.485   0.301  0.00  0.00    +0.015 C 
ENDBRANCH  15  18
ENDBRANCH   9  12
BRANCH   2  22
ATOM     22  O   UNL     1      -0.730  -3.812   3.704  0.00  0.00    -0.506 OA
ATOM     23  H   UNL     1      -1.497  -3.830   3.116  0.00  0.00    +0.292 HD
ENDBRANCH   2  22
BRANCH   1  24
ATOM     24  C   UNL     1       1.161  -2.536   2.055  0.00  0.00    -0.036 C 
BRANCH  24  30
ATOM     25  C   UNL     1      -0.937   0.570  -1.094  0.00  0.00    +0.005 C 
ATOM     26  C   UNL     1      -0.707  -0.905  -0.762  0.00  0.00    -0.031 C 
ATOM     27  C   UNL     1       0.003  -1.589  -1.935  0.00  0.00    -0.001 C 
ATOM     28  C   UNL     1       0.298  -3.044  -1.562  0.00  0.00    -0.018 C 
ATOM     29  C   UNL     1       1.133  -3.078  -0.280  0.00  0.00    -0.078 C 
ATOM     30  N   UNL     1       0.390  -2.433   0.809  0.00  0.00    +0.383 N 
ATOM     31  C   UNL     1       0.165  -1.018   0.491  0.00  0.00    -0.075 C 
ATOM     32  H   UNL     1      -0.500  -2.895   0.928  0.00  0.00    -0.081 HD
ENDBRANCH  24  30
ENDBRANCH   1  24
TORSDOF 5
