REMARK  Name = ZINC13728775
REMARK  10 active torsions:
REMARK  status: ('A' for Active; 'I' for Inactive)
REMARK    1  A    between atoms: C_1  and  C_2
REMARK    2  A    between atoms: C_2  and  O_3
REMARK    3  A    between atoms: O_3  and  C_4
REMARK    4  A    between atoms: C_6  and  C_14
REMARK    5  A    between atoms: C_9  and  O_10
REMARK    6  A    between atoms: O_10  and  C_11
REMARK    7  A    between atoms: C_11  and  C_12
REMARK    8  A    between atoms: C_14  and  N_15
REMARK    9  A    between atoms: N_15  and  C_16
REMARK   10  A    between atoms: C_25  and  O_28
REMARK                            x       y       z     vdW  Elec       q    Type
REMARK                         _______ _______ _______ _____ _____    ______ ____
ROOT
ATOM      1  N   UNL     1       0.785  -5.241  -1.571  0.00  0.00    +0.386 N 
ATOM      2  H   UNL     1       1.066  -4.376  -2.008  0.00  0.00    -0.085 HD
ATOM      3  H   UNL     1       1.589  -5.681  -1.149  0.00  0.00    -0.085 HD
ENDROOT
BRANCH   1   4
ATOM      4  C   UNL     1       0.210  -6.138  -2.582  0.00  0.00    -0.065 C 
ATOM      5  C   UNL     1      -0.215  -7.449  -1.918  0.00  0.00    -0.009 C 
ATOM      6  C   UNL     1      -0.815  -8.383  -2.972  0.00  0.00    -0.009 C 
ATOM      7  C   UNL     1      -2.034  -7.715  -3.610  0.00  0.00    +0.007 C 
ATOM      8  C   UNL     1      -1.609  -6.404  -4.274  0.00  0.00    -0.009 C 
ATOM      9  C   UNL     1      -1.010  -5.470  -3.221  0.00  0.00    -0.009 C 
ATOM     10  C   UNL     1      -0.563  -6.694  -5.353  0.00  0.00    +0.038 C 
ATOM     11  C   UNL     1       0.656  -7.362  -4.714  0.00  0.00    +0.065 C 
ATOM     12  C   UNL     1       0.231  -8.673  -4.050  0.00  0.00    +0.038 C 
ATOM     13  C   UNL     1       1.256  -6.428  -3.660  0.00  0.00    +0.022 C 
BRANCH  11  14
ATOM     14  O   UNL     1       1.633  -7.633  -5.721  0.00  0.00    -0.389 OA
ATOM     15  H   UNL     1       1.322  -8.220  -6.423  0.00  0.00    +0.210 HD
ENDBRANCH  11  14
ENDBRANCH   1   4
BRANCH   1  16
ATOM     16  C   UNL     1      -0.219  -4.963  -0.535  0.00  0.00    -0.046 C 
BRANCH  16  19
ATOM     17  C   UNL     1       0.802  -1.825   1.306  0.00  0.00    +0.163 A 
ATOM     18  C   UNL     1       0.260  -2.673   0.352  0.00  0.00    +0.051 A 
ATOM     19  C   UNL     1       0.371  -4.043   0.502  0.00  0.00    -0.060 A 
ATOM     20  C   UNL     1       1.022  -4.571   1.602  0.00  0.00    +0.021 A 
ATOM     21  C   UNL     1       1.565  -3.730   2.557  0.00  0.00    +0.063 A 
ATOM     22  C   UNL     1       1.462  -2.356   2.409  0.00  0.00    +0.176 A 
ATOM     23 BR   UNL     1       2.453  -4.456   4.061  0.00  0.00    -0.046 Br
BRANCH  17  24
ATOM     24  O   UNL     1       0.693  -0.477   1.160  0.00  0.00    -0.489 OA
BRANCH  24  26
ATOM     25  C   UNL     1      -0.019   1.526   0.010  0.00  0.00    +0.048 C 
ATOM     26  C   UNL     1       0.002  -0.004   0.002  0.00  0.00    +0.226 C 
ENDBRANCH  24  26
ENDBRANCH  17  24
BRANCH  22  27
ATOM     27  O   UNL     1       2.000  -1.528   3.345  0.00  0.00    -0.487 OA
BRANCH  27  28
ATOM     28  C   UNL     1       1.161  -1.151   4.438  0.00  0.00    +0.226 C 
ATOM     29  C   UNL     1       1.933  -0.225   5.379  0.00  0.00    +0.048 C 
ENDBRANCH  27  28
ENDBRANCH  22  27
ENDBRANCH  16  19
ENDBRANCH   1  16
TORSDOF 8
