REMARK  Name = ZINC02965443
REMARK  11 active torsions:
REMARK  status: ('A' for Active; 'I' for Inactive)
REMARK    1  A    between atoms: C_1  and  C_2
REMARK    2  A    between atoms: C_2  and  C_3
REMARK    3  A    between atoms: C_2  and  C_4
REMARK    4  A    between atoms: C_18  and  S_19
REMARK    5  A    between atoms: S_19  and  C_20
REMARK    6  A    between atoms: C_20  and  C_21
REMARK    7  A    between atoms: N_23  and  C_24
REMARK    8  A    between atoms: C_24  and  C_25
REMARK    9  A    between atoms: C_25  and  C_26
REMARK   10  A    between atoms: C_29  and  S_32
REMARK   11  A    between atoms: S_32  and  N_35
REMARK                            x       y       z     vdW  Elec       q    Type
REMARK                         _______ _______ _______ _____ _____    ______ ____
ROOT
ATOM      1  C   UNL     1      -2.436  -6.409  -1.901  0.00  0.00    +0.172 C 
ENDROOT
BRANCH   1   2
ATOM      2  C   UNL     1      -2.050  -7.719  -1.265  0.00  0.00    +0.223 C 
ATOM      3  O   UNL     1      -1.446  -7.728  -0.213  0.00  0.00    -0.275 OA
ATOM      4  N   UNL     1      -2.375  -8.882  -1.865  0.00  0.00    -0.314 N 
ATOM      5  H   UNL     1      -2.858  -8.875  -2.706  0.00  0.00    +0.149 HD
BRANCH   4   6
ATOM      6  C   UNL     1      -1.999 -10.155  -1.246  0.00  0.00    +0.109 C 
BRANCH   6   7
ATOM      7  C   UNL     1      -2.484 -11.311  -2.124  0.00  0.00    +0.054 C 
BRANCH   7   8
ATOM      8  C   UNL     1      -2.098 -12.621  -1.488  0.00  0.00    -0.046 A 
ATOM      9  C   UNL     1      -0.879 -13.203  -1.787  0.00  0.00    +0.005 A 
ATOM     10  C   UNL     1      -0.525 -14.405  -1.203  0.00  0.00    +0.029 A 
ATOM     11  C   UNL     1      -1.388 -15.025  -0.320  0.00  0.00    +0.105 A 
ATOM     12  C   UNL     1      -2.606 -14.443  -0.020  0.00  0.00    +0.029 A 
ATOM     13  C   UNL     1      -2.959 -13.239  -0.600  0.00  0.00    +0.005 A 
BRANCH  11  14
ATOM     14  S   UNL     1      -0.937 -16.558   0.423  0.00  0.00    +0.056 S 
ATOM     15  O   UNL     1      -2.148 -17.203   0.792  0.00  0.00    -0.153 OA
ATOM     16  O   UNL     1       0.016 -17.162  -0.440  0.00  0.00    -0.153 OA
BRANCH  14  17
ATOM     17  N   UNL     1      -0.142 -16.203   1.832  0.00  0.00    -0.204 NA
ATOM     18  H   UNL     1      -0.010 -15.279   2.095  0.00  0.00    +0.144 HD
ATOM     19  H   UNL     1       0.191 -16.920   2.394  0.00  0.00    +0.144 HD
ENDBRANCH  14  17
ENDBRANCH  11  14
ENDBRANCH   7   8
ENDBRANCH   6   7
ENDBRANCH   4   6
ENDBRANCH   1   2
BRANCH   1  20
ATOM     20  S   UNL     1      -1.861  -5.039  -0.861  0.00  0.00    -0.080 S 
BRANCH  20  34
ATOM     21  C   UNL     1      -1.433  -0.534   0.013  0.00  0.00    +0.196 C 
ATOM     22  C   UNL     1      -1.441  -2.046  -0.043  0.00  0.00    +0.252 C 
ATOM     23  O   UNL     1      -0.965  -2.813   0.766  0.00  0.00    -0.272 OA
ATOM     24  N   UNL     1      -2.092  -2.362  -1.186  0.00  0.00    -0.200 N 
ATOM     25  C   UNL     1      -2.489  -1.212  -1.846  0.00  0.00    +0.139 C 
ATOM     26  N   UNL     1      -2.142  -0.126  -1.208  0.00  0.00    -0.255 NA
ATOM     27  C   UNL     1      -3.218  -1.381  -3.122  0.00  0.00    +0.041 A 
ATOM     28  C   UNL     1      -3.657  -0.285  -3.858  0.00  0.00    +0.013 A 
ATOM     29  C   UNL     1      -4.333  -0.489  -5.043  0.00  0.00    +0.001 A 
ATOM     30  C   UNL     1      -4.576  -1.776  -5.503  0.00  0.00    +0.002 A 
ATOM     31  C   UNL     1      -4.149  -2.873  -4.787  0.00  0.00    +0.028 A 
ATOM     32  C   UNL     1      -3.462  -2.690  -3.585  0.00  0.00    +0.077 A 
ATOM     33  N   UNL     1      -3.027  -3.747  -2.854  0.00  0.00    -0.225 NA
ATOM     34  C   UNL     1      -2.383  -3.597  -1.728  0.00  0.00    +0.169 C 
BRANCH  21  36
ATOM     35  C   UNL     1      -0.019   1.526   0.010  0.00  0.00    +0.010 C 
ATOM     36  C   UNL     1       0.002  -0.004   0.002  0.00  0.00    +0.016 C 
ATOM     37  C   UNL     1       0.742  -0.511   1.242  0.00  0.00    +0.010 C 
ENDBRANCH  21  36
ENDBRANCH  20  34
ENDBRANCH   1  20
TORSDOF 9
