REMARK  Name = ZINC49911481
REMARK  10 active torsions:
REMARK  status: ('A' for Active; 'I' for Inactive)
REMARK    1  A    between atoms: C_1  and  C_2
REMARK    2  A    between atoms: C_2  and  C_3
REMARK    3  A    between atoms: C_3  and  C_5
REMARK    4  A    between atoms: C_3  and  C_6
REMARK    5  A    between atoms: C_9  and  C_12
REMARK    6  A    between atoms: C_12  and  C_14
REMARK    7  A    between atoms: C_14  and  C_16
REMARK    8  A    between atoms: C_14  and  C_17
REMARK    9  A    between atoms: C_17  and  N_18
REMARK   10  A    between atoms: N_21  and  C_24
REMARK                            x       y       z     vdW  Elec       q    Type
REMARK                         _______ _______ _______ _____ _____    ______ ____
ROOT
ATOM      1  C   UNL     1      -1.366  -6.260  -0.492  0.00  0.00    +0.167 C 
ATOM      2  O   UNL     1      -0.802  -6.935   0.342  0.00  0.00    -0.292 OA
ENDROOT
BRANCH   1   6
ATOM      3  C   UNL     1      -1.416  -2.035  -0.119  0.00  0.00    -0.045 A 
ATOM      4  C   UNL     1      -0.772  -2.802   0.836  0.00  0.00    +0.004 A 
ATOM      5  C   UNL     1      -0.751  -4.176   0.722  0.00  0.00    +0.011 A 
ATOM      6  C   UNL     1      -1.384  -4.794  -0.362  0.00  0.00    +0.018 A 
ATOM      7  C   UNL     1      -2.033  -4.011  -1.322  0.00  0.00    +0.011 A 
ATOM      8  C   UNL     1      -2.049  -2.639  -1.192  0.00  0.00    +0.004 A 
BRANCH   3   9
ATOM      9  C   UNL     1      -1.433  -0.534   0.013  0.00  0.00    +0.016 C 
ATOM     10  C   UNL     1      -2.110  -0.145   1.329  0.00  0.00    +0.012 C 
BRANCH   9  12
ATOM     11  C   UNL     1      -0.019   1.526   0.010  0.00  0.00    +0.004 C 
ATOM     12  C   UNL     1       0.002  -0.004   0.002  0.00  0.00    +0.004 C 
ENDBRANCH   9  12
ENDBRANCH   3   9
ENDBRANCH   1   6
BRANCH   1  13
ATOM     13  C   UNL     1      -2.049  -6.921  -1.661  0.00  0.00    +0.071 C 
ATOM     14  C   UNL     1      -1.057  -7.063  -2.817  0.00  0.00    +0.017 C 
BRANCH  13  15
ATOM     15  C   UNL     1      -2.547  -8.306  -1.244  0.00  0.00    +0.095 C 
BRANCH  15  16
ATOM     16  N   UNL     1      -3.316  -8.902  -2.344  0.00  0.00    -0.305 NA
ATOM     17  C   UNL     1      -4.555  -8.150  -2.589  0.00  0.00    +0.066 C 
ATOM     18  C   UNL     1      -5.295  -8.766  -3.778  0.00  0.00    -0.064 C 
ATOM     19  N   UNL     1      -5.605 -10.172  -3.488  0.00  0.00    +0.379 N 
ATOM     20  C   UNL     1      -4.357 -10.915  -3.270  0.00  0.00    -0.064 C 
ATOM     21  C   UNL     1      -3.609 -10.317  -2.076  0.00  0.00    +0.066 C 
ATOM     22  C   UNL     1      -6.332 -10.757  -4.622  0.00  0.00    -0.096 C 
ATOM     23  H   UNL     1      -6.178 -10.225  -2.659  0.00  0.00    -0.082 HD
ENDBRANCH  15  16
ENDBRANCH  13  15
ENDBRANCH   1  13
TORSDOF 6
