REMARK  Name = ZINC04180755
REMARK  5 active torsions:
REMARK  status: ('A' for Active; 'I' for Inactive)
REMARK    1  A    between atoms: C_4  and  N_7
REMARK    2  A    between atoms: N_7  and  C_8
REMARK    3  A    between atoms: C_8  and  N_10
REMARK    4  A    between atoms: N_10  and  N_11
REMARK    5  A    between atoms: C_23  and  C_26
REMARK                            x       y       z     vdW  Elec       q    Type
REMARK                         _______ _______ _______ _____ _____    ______ ____
ROOT
ATOM      1  N   UNL     1       5.592   1.609   0.185  0.00  0.00    -0.184 NA
ATOM      2  C   UNL     1       4.852   2.662  -0.005  0.00  0.00    +0.083 C 
ATOM      3  C   UNL     1       5.393   4.074   0.152  0.00  0.00    +0.059 C 
ATOM      4  C   UNL     1       4.351   4.910   0.902  0.00  0.00    +0.011 C 
ATOM      5  C   UNL     1       3.071   5.037   0.071  0.00  0.00    +0.038 C 
ATOM      6  C   UNL     1       2.614   3.668  -0.354  0.00  0.00    -0.013 A 
ATOM      7  C   UNL     1       3.429   2.569  -0.389  0.00  0.00    +0.067 A 
ATOM      8  N   UNL     1       2.717   1.481  -0.812  0.00  0.00    -0.353 N 
ATOM      9  H   UNL     1       3.074   0.585  -0.916  0.00  0.00    +0.166 HD
ATOM     10  C   UNL     1       1.412   1.854  -1.068  0.00  0.00    +0.047 A 
ATOM     11  C   UNL     1       1.299   3.233  -0.793  0.00  0.00    +0.004 A 
ATOM     12  C   UNL     1       0.069   3.876  -0.971  0.00  0.00    +0.014 A 
ATOM     13  C   UNL     1      -1.013   3.166  -1.409  0.00  0.00    -0.044 A 
ATOM     14  C   UNL     1      -0.903   1.810  -1.685  0.00  0.00    +0.006 A 
ATOM     15  C   UNL     1       0.297   1.154  -1.513  0.00  0.00    +0.026 A 
ENDROOT
BRANCH  13  16
ATOM     16  C   UNL     1      -2.336   3.862  -1.599  0.00  0.00    +0.019 C 
ATOM     17  C   UNL     1      -3.387   3.215  -0.695  0.00  0.00    +0.008 C 
ATOM     18  C   UNL     1      -4.730   3.922  -0.888  0.00  0.00    +0.001 C 
ATOM     19  C   UNL     1      -5.167   3.797  -2.349  0.00  0.00    +0.000 C 
ATOM     20  C   UNL     1      -4.116   4.445  -3.253  0.00  0.00    +0.001 C 
ATOM     21  C   UNL     1      -2.772   3.738  -3.060  0.00  0.00    +0.008 C 
ENDBRANCH  13  16
BRANCH   1  22
ATOM     22  N   UNL     1       6.937   1.754   0.547  0.00  0.00    -0.218 N 
ATOM     23  H   UNL     1       7.317   2.640   0.657  0.00  0.00    +0.176 HD
BRANCH  22  24
ATOM     24  C   UNL     1       7.703   0.663   0.744  0.00  0.00    +0.154 C 
ATOM     25  S   UNL     1       9.347   0.840   1.188  0.00  0.00    -0.017 S 
BRANCH  24  26
ATOM     26  N   UNL     1       7.175  -0.568   0.592  0.00  0.00    -0.296 N 
ATOM     27  H   UNL     1       6.229  -0.669   0.401  0.00  0.00    +0.154 HD
BRANCH  26  31
ATOM     28  C   UNL     1       9.603  -3.935   0.940  0.00  0.00    +0.000 A 
ATOM     29  C   UNL     1       9.698  -2.916   1.870  0.00  0.00    +0.002 A 
ATOM     30  C   UNL     1       8.895  -1.798   1.758  0.00  0.00    +0.023 A 
ATOM     31  C   UNL     1       7.990  -1.698   0.709  0.00  0.00    +0.033 A 
ATOM     32  C   UNL     1       7.893  -2.725  -0.221  0.00  0.00    +0.023 A 
ATOM     33  C   UNL     1       8.704  -3.838  -0.106  0.00  0.00    +0.002 A 
ENDBRANCH  26  31
ENDBRANCH  24  26
ENDBRANCH  22  24
ENDBRANCH   1  22
TORSDOF 5
