REMARK  Name = ZINC39658292
REMARK  7 active torsions:
REMARK  status: ('A' for Active; 'I' for Inactive)
REMARK    1  A    between atoms: C_4  and  C_7
REMARK    2  A    between atoms: C_7  and  S_8
REMARK    3  A    between atoms: S_8  and  C_9
REMARK    4  A    between atoms: C_9  and  C_10
REMARK    5  A    between atoms: C_10  and  N_11
REMARK    6  A    between atoms: C_12  and  C_14
REMARK    7  A    between atoms: C_25  and  C_27
REMARK                            x       y       z     vdW  Elec       q    Type
REMARK                         _______ _______ _______ _____ _____    ______ ____
ROOT
ATOM      1  C   UNL     1      10.204  -4.356   3.295  0.00  0.00    +0.100 C 
ATOM      2  C   UNL     1      10.980  -3.235   2.568  0.00  0.00    +0.121 C 
ATOM      3  N   UNL     1      11.718  -2.532   3.644  0.00  0.00    -0.296 N 
ATOM      4  C   UNL     1      12.174  -3.616   4.547  0.00  0.00    +0.115 C 
ATOM      5  C   UNL     1      10.993  -4.606   4.592  0.00  0.00    -0.004 C 
ATOM      6  C   UNL     1      11.508  -6.041   4.628  0.00  0.00    -0.010 C 
ATOM      7  C   UNL     1      12.239  -6.283   5.952  0.00  0.00    -0.082 C 
ATOM      8  N   UNL     1      11.320  -6.042   7.072  0.00  0.00    +0.379 N 
ATOM      9  C   UNL     1      10.902  -4.635   7.083  0.00  0.00    -0.082 C 
ATOM     10  C   UNL     1      10.115  -4.324   5.807  0.00  0.00    -0.010 C 
ATOM     11  C   UNL     1      11.928  -1.207   3.773  0.00  0.00    +0.247 C 
ATOM     12  O   UNL     1      11.381  -0.429   3.015  0.00  0.00    -0.270 OA
ATOM     13  H   UNL     1      10.508  -6.632   6.971  0.00  0.00    -0.086 HD
ATOM     14  H   UNL     1      11.786  -6.261   7.940  0.00  0.00    -0.086 HD
ENDROOT
BRANCH  11  15
ATOM     15  C   UNL     1      12.822  -0.699   4.834  0.00  0.00    +0.038 A 
ATOM     16  C   UNL     1      13.772  -1.543   5.413  0.00  0.00    +0.014 A 
ATOM     17  C   UNL     1      14.604  -1.065   6.403  0.00  0.00    +0.022 A 
ATOM     18  C   UNL     1      14.498   0.250   6.825  0.00  0.00    +0.059 A 
ATOM     19  C   UNL     1      13.557   1.093   6.255  0.00  0.00    +0.060 A 
ATOM     20  C   UNL     1      12.723   0.627   5.259  0.00  0.00    +0.034 A 
ATOM     21 CL   UNL     1      13.431   2.739   6.791  0.00  0.00    -0.082 Cl
ATOM     22 CL   UNL     1      15.548   0.844   8.073  0.00  0.00    -0.082 Cl
ENDBRANCH  11  15
BRANCH   1  24
ATOM     23  N   UNL     1       7.825  -4.813   3.796  0.00  0.00    -0.314 N 
ATOM     24  C   UNL     1       8.802  -3.903   3.613  0.00  0.00    +0.218 C 
ATOM     25  O   UNL     1       8.554  -2.720   3.705  0.00  0.00    -0.275 OA
ATOM     26  H   UNL     1       8.024  -5.760   3.722  0.00  0.00    +0.149 HD
BRANCH  23  27
ATOM     27  C   UNL     1       6.463  -4.373   4.105  0.00  0.00    +0.115 C 
BRANCH  27  28
ATOM     28  C   UNL     1       5.555  -5.595   4.262  0.00  0.00    +0.088 C 
BRANCH  28  29
ATOM     29  S   UNL     1       3.868  -5.050   4.645  0.00  0.00    -0.155 S 
BRANCH  29  30
ATOM     30  C   UNL     1       2.931  -6.595   4.798  0.00  0.00    +0.104 C 
BRANCH  30  34
ATOM     31  C   UNL     1      -1.147  -5.708   5.709  0.00  0.00    +0.000 A 
ATOM     32  C   UNL     1      -0.740  -5.813   4.392  0.00  0.00    +0.000 A 
ATOM     33  C   UNL     1       0.580  -6.100   4.098  0.00  0.00    +0.004 A 
ATOM     34  C   UNL     1       1.493  -6.282   5.120  0.00  0.00    -0.038 A 
ATOM     35  C   UNL     1       1.086  -6.176   6.436  0.00  0.00    +0.004 A 
ATOM     36  C   UNL     1      -0.234  -5.890   6.731  0.00  0.00    +0.000 A 
ENDBRANCH  30  34
ENDBRANCH  29  30
ENDBRANCH  28  29
ENDBRANCH  27  28
ENDBRANCH  23  27
ENDBRANCH   1  24
TORSDOF 7
