REMARK  Name = ZINC30962191
REMARK  16 active torsions:
REMARK  status: ('A' for Active; 'I' for Inactive)
REMARK    1  A    between atoms: C_1  and  C_2
REMARK    2  A    between atoms: C_2  and  C_3
REMARK    3  A    between atoms: C_3  and  O_4
REMARK    4  A    between atoms: O_4  and  C_5
REMARK    5  A    between atoms: C_6  and  O_32
REMARK    6  A    between atoms: C_8  and  C_12
REMARK    7  A    between atoms: N_13  and  N_14
REMARK    8  A    between atoms: C_15  and  C_17
REMARK    9  A    between atoms: C_17  and  C_19
REMARK   10  A    between atoms: C_17  and  N_22
REMARK   11  A    between atoms: C_19  and  C_20
REMARK   12  A    between atoms: C_19  and  C_21
REMARK   13  A    between atoms: C_23  and  C_25
REMARK   14  A    between atoms: C_28  and  C_31
REMARK   15  A    between atoms: O_32  and  C_33
REMARK   16  A    between atoms: C_33  and  C_34
REMARK                            x       y       z     vdW  Elec       q    Type
REMARK                         _______ _______ _______ _____ _____    ______ ____
ROOT
ATOM      1  N   UNL     1       0.131   4.667  -2.493  0.00  0.00    -0.205 N 
ATOM      2  C   UNL     1      -1.105   4.132  -2.557  0.00  0.00    +0.253 C 
ATOM      3  O   UNL     1      -2.064   4.777  -2.188  0.00  0.00    -0.272 OA
ATOM      4  H   UNL     1       1.011   4.045  -2.715  0.00  0.00    +0.177 HD
ENDROOT
BRANCH   1   6
ATOM      5  C   UNL     1       1.486   6.504  -1.990  0.00  0.00    +0.138 C 
ATOM      6  N   UNL     1       0.294   6.014  -2.144  0.00  0.00    -0.188 NA
BRANCH   5  10
ATOM      7  C   UNL     1       4.756   3.914  -1.180  0.00  0.00    +0.176 A 
ATOM      8  C   UNL     1       4.992   5.200  -1.661  0.00  0.00    +0.164 A 
ATOM      9  C   UNL     1       3.931   6.043  -1.931  0.00  0.00    +0.059 A 
ATOM     10  C   UNL     1       2.622   5.607  -1.709  0.00  0.00    -0.001 A 
ATOM     11  C   UNL     1       2.391   4.316  -1.226  0.00  0.00    +0.028 A 
ATOM     12  C   UNL     1       3.456   3.478  -0.965  0.00  0.00    +0.064 A 
ATOM     13 BR   UNL     1       3.143   1.731  -0.311  0.00  0.00    -0.046 Br
BRANCH   7  14
ATOM     14  O   UNL     1       5.801   3.084  -0.920  0.00  0.00    -0.487 OA
BRANCH  14  15
ATOM     15  C   UNL     1       6.249   2.251  -1.990  0.00  0.00    +0.229 C 
BRANCH  15  17
ATOM     16  C   UNL     1       7.903   0.501  -2.659  0.00  0.00    +0.007 C 
ATOM     17  C   UNL     1       7.423   1.394  -1.513  0.00  0.00    +0.038 C 
ENDBRANCH  15  17
ENDBRANCH  14  15
ENDBRANCH   7  14
BRANCH   8  18
ATOM     18  O   UNL     1       6.267   5.624  -1.870  0.00  0.00    -0.489 OA
BRANCH  18  19
ATOM     19  C   UNL     1       6.436   6.954  -2.364  0.00  0.00    +0.226 C 
ATOM     20  C   UNL     1       7.927   7.249  -2.535  0.00  0.00    +0.048 C 
ENDBRANCH  18  19
ENDBRANCH   8  18
ENDBRANCH   5  10
ENDBRANCH   1   6
BRANCH   2  21
ATOM     21  C   UNL     1      -1.295   2.734  -3.085  0.00  0.00    +0.163 C 
BRANCH  21  22
ATOM     22  N   UNL     1      -1.935   2.792  -4.401  0.00  0.00    -0.300 N 
ATOM     23  C   UNL     1      -2.651   1.742  -4.849  0.00  0.00    +0.245 C 
ATOM     24  O   UNL     1      -2.766   0.746  -4.161  0.00  0.00    -0.270 OA
ATOM     25  H   UNL     1      -1.832   3.693  -5.024  0.00  0.00    +0.150 HD
BRANCH  23  26
ATOM     26  C   UNL     1      -3.298   1.801  -6.178  0.00  0.00    +0.037 A 
ATOM     27  C   UNL     1      -3.173   2.944  -6.968  0.00  0.00    +0.013 A 
ATOM     28  C   UNL     1      -3.776   2.991  -8.208  0.00  0.00    +0.004 A 
ATOM     29  C   UNL     1      -4.510   1.911  -8.665  0.00  0.00    -0.050 A 
ATOM     30  C   UNL     1      -4.641   0.776  -7.885  0.00  0.00    +0.004 A 
ATOM     31  C   UNL     1      -4.040   0.715  -6.645  0.00  0.00    +0.013 A 
ATOM     32  C   UNL     1      -5.169   1.971 -10.019  0.00  0.00    +0.044 C 
ENDBRANCH  23  26
ENDBRANCH  21  22
BRANCH  21  33
ATOM     33  C   UNL     1       0.066   2.047  -3.210  0.00  0.00    +0.012 C 
ATOM     34  C   UNL     1      -0.074   0.789  -4.070  0.00  0.00    +0.009 C 
ATOM     35  C   UNL     1       0.572   1.660  -1.819  0.00  0.00    +0.009 C 
ENDBRANCH  21  33
ENDBRANCH   2  21
TORSDOF 11
