REMARK  Name = ZINC35965123
REMARK  9 active torsions:
REMARK  status: ('A' for Active; 'I' for Inactive)
REMARK    1  A    between atoms: C_1  and  N_2
REMARK    2  A    between atoms: C_5  and  C_10
REMARK    3  A    between atoms: C_14  and  N_16
REMARK    4  A    between atoms: N_21  and  C_23
REMARK    5  A    between atoms: C_23  and  C_25
REMARK    6  A    between atoms: C_23  and  C_32
REMARK    7  A    between atoms: C_25  and  C_26
REMARK    8  A    between atoms: N_34  and  C_35
REMARK    9  A    between atoms: C_35  and  C_36
REMARK                            x       y       z     vdW  Elec       q    Type
REMARK                         _______ _______ _______ _____ _____    ______ ____
ROOT
ATOM      1  C   UNL     1      -0.018   1.461   0.010  0.00  0.00    +0.139 C 
ATOM      2  N   UNL     1       0.002  -0.004   0.002  0.00  0.00    -0.260 N 
ATOM      3  C   UNL     1      -1.193  -0.666   0.004  0.00  0.00    +0.042 C 
ATOM      4  C   UNL     1      -1.245  -2.013  -0.003  0.00  0.00    +0.058 C 
ATOM      5  C   UNL     1       0.068  -2.769  -0.014  0.00  0.00    +0.142 C 
ATOM      6  N   UNL     1       1.301  -1.964  -0.016  0.00  0.00    -0.288 N 
ATOM      7  C   UNL     1       1.191  -0.621  -0.013  0.00  0.00    +0.307 C 
ATOM      8  O   UNL     1       2.203   0.052  -0.018  0.00  0.00    -0.252 OA
ATOM      9  C   UNL     1      -2.585  -2.452   0.002  0.00  0.00    +0.247 C 
ATOM     10  O   UNL     1      -2.927  -3.620  -0.003  0.00  0.00    -0.270 OA
ATOM     11  N   UNL     1      -3.437  -1.411   0.012  0.00  0.00    -0.280 N 
ATOM     12  C   UNL     1      -2.626  -0.184   0.015  0.00  0.00    +0.160 C 
ATOM     13  H   UNL     1       2.172  -2.391  -0.023  0.00  0.00    +0.151 HD
ENDROOT
BRANCH   5  14
ATOM     14  C   UNL     1       0.087  -3.650  -1.237  0.00  0.00    -0.020 A 
ATOM     15  C   UNL     1       0.410  -3.113  -2.470  0.00  0.00    +0.006 A 
ATOM     16  C   UNL     1       0.427  -3.921  -3.592  0.00  0.00    +0.003 A 
ATOM     17  C   UNL     1       0.122  -5.265  -3.481  0.00  0.00    +0.033 A 
ATOM     18  C   UNL     1      -0.199  -5.801  -2.249  0.00  0.00    +0.127 A 
ATOM     19  C   UNL     1      -0.212  -4.994  -1.126  0.00  0.00    +0.038 A 
BRANCH  18  20
ATOM     20  N   UNL     1      -0.525  -7.240  -2.130  0.00  0.00    +0.056 N 
ATOM     21  O   UNL     1      -0.511  -7.946  -3.111  0.00  0.00    -0.126 OA
ATOM     22  O   UNL     1      -0.807  -7.709  -1.052  0.00  0.00    -0.126 OA
ENDBRANCH  18  20
ENDBRANCH   5  14
BRANCH  11  23
ATOM     23  C   UNL     1      -4.900  -1.485   0.019  0.00  0.00    +0.167 C 
BRANCH  23  24
ATOM     24  C   UNL     1      -5.372  -2.213  -1.213  0.00  0.00    +0.234 C 
ATOM     25  O   UNL     1      -4.566  -2.629  -2.018  0.00  0.00    -0.274 OA
ATOM     26  N   UNL     1      -6.690  -2.402  -1.421  0.00  0.00    -0.311 N 
ATOM     27  H   UNL     1      -7.335  -2.070  -0.777  0.00  0.00    +0.149 HD
BRANCH  26  28
ATOM     28  C   UNL     1      -7.149  -3.110  -2.618  0.00  0.00    +0.135 C 
BRANCH  28  29
ATOM     29  C   UNL     1      -8.677  -3.188  -2.611  0.00  0.00    +0.135 C 
ATOM     30  C   UNL     1      -9.164  -4.036  -3.805  0.00  0.00    +0.035 C 
ATOM     31  C   UNL     1     -10.427  -3.259  -4.268  0.00  0.00    +0.031 C 
ATOM     32  C   UNL     1     -10.001  -1.800  -3.968  0.00  0.00    +0.160 C 
ATOM     33  O   UNL     1      -9.231  -1.875  -2.755  0.00  0.00    -0.375 OA
ENDBRANCH  28  29
ENDBRANCH  26  28
ENDBRANCH  23  24
BRANCH  23  34
ATOM     34  C   UNL     1      -5.367  -2.238   1.267  0.00  0.00    +0.067 C 
BRANCH  34  35
ATOM     35  C   UNL     1      -5.002  -1.448   2.497  0.00  0.00    -0.045 A 
ATOM     36  C   UNL     1      -3.779  -1.647   3.109  0.00  0.00    +0.004 A 
ATOM     37  C   UNL     1      -3.444  -0.922   4.237  0.00  0.00    +0.000 A 
ATOM     38  C   UNL     1      -4.332   0.003   4.753  0.00  0.00    +0.000 A 
ATOM     39  C   UNL     1      -5.554   0.204   4.140  0.00  0.00    +0.000 A 
ATOM     40  C   UNL     1      -5.888  -0.518   3.009  0.00  0.00    +0.004 A 
ENDBRANCH  34  35
ENDBRANCH  23  34
ENDBRANCH  11  23
TORSDOF 8
