REMARK  Name = ZINC29266525
REMARK  13 active torsions:
REMARK  status: ('A' for Active; 'I' for Inactive)
REMARK    1  A    between atoms: C_1  and  C_2
REMARK    2  A    between atoms: C_5  and  S_8
REMARK    3  A    between atoms: S_8  and  N_11
REMARK    4  A    between atoms: N_11  and  C_12
REMARK    5  A    between atoms: C_12  and  C_14
REMARK    6  A    between atoms: C_12  and  C_17
REMARK    7  A    between atoms: C_14  and  C_15
REMARK    8  A    between atoms: C_14  and  C_16
REMARK    9  A    between atoms: C_22  and  C_25
REMARK   10  A    between atoms: C_27  and  O_33
REMARK   11  A    between atoms: C_30  and  O_31
REMARK   12  A    between atoms: O_31  and  C_32
REMARK   13  A    between atoms: O_33  and  C_34
REMARK                            x       y       z     vdW  Elec       q    Type
REMARK                         _______ _______ _______ _____ _____    ______ ____
ROOT
ATOM      1  C   UNL     1      -2.322   1.488   1.458  0.00  0.00    +0.238 C 
ATOM      2  O   UNL     1      -2.827   0.839   2.350  0.00  0.00    -0.274 OA
ATOM      3  N   UNL     1      -3.100   2.072   0.526  0.00  0.00    -0.263 N 
ATOM      4  C   UNL     1      -4.484   2.018   0.643  0.00  0.00    +0.165 A 
ATOM      5  N   UNL     1      -5.410   2.520  -0.154  0.00  0.00    -0.224 NA
ATOM      6  C   UNL     1      -6.699   2.373   0.112  0.00  0.00    +0.084 A 
ATOM      7  C   UNL     1      -7.079   1.688   1.232  0.00  0.00    +0.077 A 
ATOM      8  S   UNL     1      -5.483   1.245   1.907  0.00  0.00    -0.060 S 
ATOM      9  H   UNL     1      -2.640   2.591  -0.328  0.00  0.00    +0.157 HD
ENDROOT
BRANCH   6  10
ATOM     10  C   UNL     1      -7.721   2.946  -0.797  0.00  0.00    +0.046 A 
ATOM     11  C   UNL     1      -9.075   2.789  -0.514  0.00  0.00    +0.059 A 
ATOM     12  C   UNL     1     -10.025   3.327  -1.366  0.00  0.00    +0.121 A 
ATOM     13  C   UNL     1      -9.629   4.021  -2.501  0.00  0.00    +0.049 A 
ATOM     14  C   UNL     1      -8.286   4.180  -2.787  0.00  0.00    +0.050 A 
ATOM     15  C   UNL     1      -7.328   3.651  -1.939  0.00  0.00    +0.129 A 
BRANCH  15  16
ATOM     16  O   UNL     1      -6.007   3.812  -2.218  0.00  0.00    -0.494 OA
ATOM     17  C   UNL     1      -5.679   4.543  -3.401  0.00  0.00    +0.277 C 
ENDBRANCH  15  16
BRANCH  12  18
ATOM     18  O   UNL     1     -11.348   3.175  -1.090  0.00  0.00    -0.495 OA
ATOM     19  C   UNL     1     -12.273   3.756  -2.012  0.00  0.00    +0.277 C 
ENDBRANCH  12  18
ENDBRANCH   6  10
BRANCH   1  20
ATOM     20  C   UNL     1      -0.825   1.641   1.394  0.00  0.00    +0.165 C 
BRANCH  20  21
ATOM     21  C   UNL     1      -0.251   0.630   0.400  0.00  0.00    +0.010 C 
ATOM     22  C   UNL     1      -0.504  -0.789   0.913  0.00  0.00    +0.009 C 
ATOM     23  C   UNL     1       1.255   0.858   0.252  0.00  0.00    +0.009 C 
ENDBRANCH  20  21
BRANCH  20  24
ATOM     24  N   UNL     1      -0.251   1.401   2.720  0.00  0.00    -0.178 NA
ATOM     25  H   UNL     1      -0.562   0.521   3.303  0.00  0.00    +0.149 HD
BRANCH  24  26
ATOM     26  S   UNL     1       0.669   2.570   3.449  0.00  0.00    +0.059 S 
ATOM     27  O   UNL     1       0.982   2.089   4.748  0.00  0.00    -0.153 OA
ATOM     28  O   UNL     1       1.670   2.941   2.511  0.00  0.00    -0.153 OA
BRANCH  26  33
ATOM     29  C   UNL     1      -2.861   7.405   4.207  0.00  0.00    +0.044 C 
ATOM     30  C   UNL     1      -1.979   6.197   4.017  0.00  0.00    -0.050 A 
ATOM     31  C   UNL     1      -1.906   5.233   5.005  0.00  0.00    +0.005 A 
ATOM     32  C   UNL     1      -1.097   4.126   4.832  0.00  0.00    +0.029 A 
ATOM     33  C   UNL     1      -0.362   3.982   3.670  0.00  0.00    +0.105 A 
ATOM     34  C   UNL     1      -0.432   4.948   2.684  0.00  0.00    +0.029 A 
ATOM     35  C   UNL     1      -1.244   6.054   2.856  0.00  0.00    +0.005 A 
ENDBRANCH  26  33
ENDBRANCH  24  26
ENDBRANCH  20  24
ENDBRANCH   1  20
TORSDOF 8
