REMARK  Name = ZINC62286395
REMARK  5 active torsions:
REMARK  status: ('A' for Active; 'I' for Inactive)
REMARK    1  A    between atoms: C_10  and  C_11
REMARK    2  A    between atoms: C_11  and  N_12
REMARK    3  A    between atoms: C_13  and  C_19
REMARK    4  A    between atoms: C_14  and  C_17
REMARK    5  A    between atoms: C_17  and  O_18
REMARK                            x       y       z     vdW  Elec       q    Type
REMARK                         _______ _______ _______ _____ _____    ______ ____
ROOT
ATOM      1  N   UNL     1       5.188   0.536   1.364  0.00  0.00    -0.241 N 
ATOM      2  C   UNL     1       4.784   1.715   1.892  0.00  0.00    +0.094 A 
ATOM      3  C   UNL     1       5.406   1.824   3.089  0.00  0.00    +0.114 A 
ATOM      4  N   UNL     1       6.150   0.722   3.233  0.00  0.00    -0.132 NA
ATOM      5  N   UNL     1       5.995  -0.023   2.196  0.00  0.00    -0.065 NA
ENDROOT
BRANCH   2   6
ATOM      6  C   UNL     1       3.833   2.706   1.272  0.00  0.00    +0.168 C 
ATOM      7  C   UNL     1       4.611   3.950   0.794  0.00  0.00    +0.040 C 
ATOM      8  C   UNL     1       3.643   5.107   1.164  0.00  0.00    +0.031 C 
ATOM      9  C   UNL     1       3.009   4.554   2.466  0.00  0.00    +0.161 C 
ATOM     10  O   UNL     1       2.878   3.139   2.248  0.00  0.00    -0.370 OA
ENDBRANCH   2   6
BRANCH   1  11
ATOM     11  C   UNL     1       4.773  -0.012   0.070  0.00  0.00    +0.181 C 
BRANCH  11  21
ATOM     12  C   UNL     1       3.942  -4.831   1.582  0.00  0.00    +0.001 A 
ATOM     13  C   UNL     1       5.076  -4.038   1.411  0.00  0.00    +0.001 A 
ATOM     14  C   UNL     1       4.973  -2.751   0.982  0.00  0.00    +0.009 A 
ATOM     15  C   UNL     1       3.706  -2.210   0.705  0.00  0.00    -0.013 A 
ATOM     16  C   UNL     1       2.553  -3.016   0.878  0.00  0.00    -0.018 A 
ATOM     17  C   UNL     1       2.699  -4.341   1.324  0.00  0.00    +0.008 A 
ATOM     18  C   UNL     1       1.286  -2.475   0.601  0.00  0.00    +0.008 A 
ATOM     19  C   UNL     1       1.183  -1.187   0.171  0.00  0.00    +0.001 A 
ATOM     20  C   UNL     1       2.317  -0.395   0.001  0.00  0.00    +0.006 A 
ATOM     21  C   UNL     1       3.560  -0.885   0.260  0.00  0.00    -0.018 A 
ENDBRANCH  11  21
ENDBRANCH   1  11
BRANCH   3  22
ATOM     22  C   UNL     1       5.284   2.964   4.068  0.00  0.00    +0.215 C 
BRANCH  22  23
ATOM     23  O   UNL     1       4.127   2.770   4.883  0.00  0.00    -0.389 OA
ATOM     24  H   UNL     1       3.985   3.468   5.538  0.00  0.00    +0.210 HD
ENDBRANCH  22  23
ENDBRANCH   3  22
TORSDOF 5
