REMARK  Name = ZINC15000426
REMARK  13 active torsions:
REMARK  status: ('A' for Active; 'I' for Inactive)
REMARK    1  A    between atoms: C_1  and  C_2
REMARK    2  A    between atoms: C_5  and  C_8
REMARK    3  A    between atoms: N_10  and  C_11
REMARK    4  A    between atoms: C_11  and  C_12
REMARK    5  A    between atoms: C_12  and  C_13
REMARK    6  A    between atoms: C_22  and  C_23
REMARK    7  A    between atoms: C_22  and  N_68
REMARK    8  A    between atoms: C_23  and  C_25
REMARK    9  A    between atoms: C_23  and  C_26
REMARK   10  A    between atoms: C_26  and  C_27
REMARK   11  A    between atoms: C_27  and  C_28
REMARK   12  A    between atoms: C_29  and  C_30
REMARK   13  A    between atoms: C_29  and  C_31
REMARK                            x       y       z     vdW  Elec       q    Type
REMARK                         _______ _______ _______ _____ _____    ______ ____
ROOT
ATOM      1  C   UNL     1       4.284   3.479   1.155  0.00  0.00    +0.135 A 
ATOM      2  N   UNL     1       5.022   4.083   2.049  0.00  0.00    -0.134 NA
ATOM      3  N   UNL     1       6.053   4.606   1.480  0.00  0.00    -0.134 NA
ATOM      4  C   UNL     1       6.020   4.353   0.204  0.00  0.00    +0.132 A 
ATOM      5  N   UNL     1       4.894   3.639  -0.039  0.00  0.00    -0.317 N 
ATOM      6  C   UNL     1       4.440   3.166  -1.347  0.00  0.00    +0.106 C 
ATOM      7  C   UNL     1       5.655   2.956  -2.255  0.00  0.00    -0.057 C 
ATOM      8  C   UNL     1       6.307   5.293  -2.062  0.00  0.00    -0.071 C 
ATOM      9  C   UNL     1       7.036   4.742  -0.839  0.00  0.00    +0.058 C 
ATOM     10  N   UNL     1       5.935   4.207  -2.996  0.00  0.00    +0.381 N 
ATOM     11  H   UNL     1       5.088   4.486  -3.505  0.00  0.00    -0.082 HD
ENDROOT
BRANCH   1  12
ATOM     12  C   UNL     1       2.997   2.737   1.410  0.00  0.00    +0.095 C 
BRANCH  12  13
ATOM     13  C   UNL     1       1.818   3.705   1.287  0.00  0.00    +0.112 C 
BRANCH  13  16
ATOM     14  C   UNL     1      -0.610   3.636   1.474  0.00  0.00    +0.244 C 
ATOM     15  O   UNL     1      -0.634   4.824   1.218  0.00  0.00    -0.270 OA
ATOM     16  N   UNL     1       0.567   2.984   1.535  0.00  0.00    -0.311 N 
ATOM     17  H   UNL     1       0.586   2.035   1.739  0.00  0.00    +0.149 HD
BRANCH  14  22
ATOM     18  C   UNL     1      -5.526   0.798   2.423  0.00  0.00    +0.044 C 
ATOM     19  C   UNL     1      -4.239   1.542   2.175  0.00  0.00    -0.050 A 
ATOM     20  C   UNL     1      -4.269   2.894   1.884  0.00  0.00    +0.004 A 
ATOM     21  C   UNL     1      -3.094   3.580   1.655  0.00  0.00    +0.013 A 
ATOM     22  C   UNL     1      -1.873   2.907   1.718  0.00  0.00    +0.037 A 
ATOM     23  C   UNL     1      -1.850   1.542   2.007  0.00  0.00    +0.013 A 
ATOM     24  C   UNL     1      -3.031   0.869   2.238  0.00  0.00    +0.004 A 
ENDBRANCH  14  22
ENDBRANCH  13  16
ENDBRANCH  12  13
ENDBRANCH   1  12
BRANCH  10  25
ATOM     25  C   UNL     1       7.023   3.986  -3.965  0.00  0.00    -0.076 C 
BRANCH  25  26
ATOM     26  C   UNL     1       7.143   5.223  -4.857  0.00  0.00    -0.030 C 
ATOM     27  C   UNL     1       5.857   5.393  -5.668  0.00  0.00    +0.005 C 
BRANCH  26  28
ATOM     28  C   UNL     1       8.329   5.052  -5.809  0.00  0.00    +0.005 C 
BRANCH  28  29
ATOM     29  C   UNL     1       8.525   6.338  -6.614  0.00  0.00    +0.027 C 
BRANCH  29  30
ATOM     30  C   UNL     1       9.693   6.170  -7.552  0.00  0.00    -0.028 C 
ATOM     31  C   UNL     1       9.538   6.382  -8.835  0.00  0.00    -0.080 C 
ATOM     32  C   UNL     1       8.227   6.908  -9.359  0.00  0.00    +0.038 C 
ATOM     33  C   UNL     1      10.671   6.100  -9.788  0.00  0.00    +0.038 C 
ENDBRANCH  29  30
ENDBRANCH  28  29
ENDBRANCH  26  28
ENDBRANCH  25  26
ENDBRANCH  10  25
TORSDOF 9
