REMARK  Name = ZINC20189001
REMARK  3 active torsions:
REMARK  status: ('A' for Active; 'I' for Inactive)
REMARK    1  A    between atoms: C_1  and  C_2
REMARK    2  A    between atoms: C_6  and  N_8
REMARK    3  A    between atoms: N_10  and  C_15
REMARK                            x       y       z     vdW  Elec       q    Type
REMARK                         _______ _______ _______ _____ _____    ______ ____
ROOT
ATOM      1  N   UNL     1       0.050  -2.797   2.392  0.00  0.00    -0.269 N 
ATOM      2  C   UNL     1      -0.035  -4.259   2.375  0.00  0.00    +0.201 C 
ATOM      3  N   UNL     1       0.660  -4.799   3.554  0.00  0.00    -0.268 NA
ATOM      4  C   UNL     1       0.089  -4.236   4.787  0.00  0.00    +0.192 C 
ATOM      5  N   UNL     1       0.171  -2.775   4.734  0.00  0.00    -0.313 N 
ATOM      6  C   UNL     1       0.149  -2.129   3.555  0.00  0.00    +0.139 C 
ATOM      7  S   UNL     1       0.241  -0.420   3.534  0.00  0.00    -0.018 S 
ATOM      8  H   UNL     1       0.246  -2.268   5.557  0.00  0.00    +0.149 HD
ENDROOT
BRANCH   1  14
ATOM      9  C   UNL     1       2.502  -0.786  -1.364  0.00  0.00    +0.044 C 
ATOM     10  C   UNL     1       1.209  -1.100  -0.656  0.00  0.00    -0.049 A 
ATOM     11  C   UNL     1       0.006  -0.688  -1.200  0.00  0.00    +0.003 A 
ATOM     12  C   UNL     1      -1.182  -0.974  -0.553  0.00  0.00    +0.002 A 
ATOM     13  C   UNL     1      -1.171  -1.674   0.638  0.00  0.00    +0.023 A 
ATOM     14  C   UNL     1       0.035  -2.089   1.186  0.00  0.00    +0.037 A 
ATOM     15  C   UNL     1       1.227  -1.805   0.531  0.00  0.00    +0.027 A 
ENDBRANCH   1  14
BRANCH   3  16
ATOM     16  C   UNL     1       0.605  -6.267   3.570  0.00  0.00    +0.060 C 
ATOM     17  C   UNL     1      -0.847  -6.721   3.736  0.00  0.00    +0.019 C 
ATOM     18  C   UNL     1      -0.903  -8.250   3.753  0.00  0.00    +0.002 C 
ATOM     19  C   UNL     1      -0.067  -8.779   4.921  0.00  0.00    +0.000 C 
ATOM     20  C   UNL     1       1.384  -8.324   4.755  0.00  0.00    +0.002 C 
ATOM     21  C   UNL     1       1.441  -6.795   4.738  0.00  0.00    +0.019 C 
ENDBRANCH   3  16
TORSDOF 2
