REMARK  Name = ZINC12869404
REMARK  13 active torsions:
REMARK  status: ('A' for Active; 'I' for Inactive)
REMARK    1  A    between atoms: C_1  and  C_2
REMARK    2  A    between atoms: C_2  and  C_3
REMARK    3  A    between atoms: C_3  and  C_4
REMARK    4  A    between atoms: C_3  and  C_5
REMARK    5  A    between atoms: C_3  and  N_6
REMARK    6  A    between atoms: C_7  and  C_9
REMARK    7  A    between atoms: C_9  and  C_11
REMARK    8  A    between atoms: C_9  and  N_17
REMARK    9  A    between atoms: C_14  and  C_16
REMARK   10  A    between atoms: N_17  and  C_18
REMARK   11  A    between atoms: C_20  and  C_25
REMARK   12  A    between atoms: C_22  and  C_24
REMARK   13  A    between atoms: C_26  and  C_28
REMARK                            x       y       z     vdW  Elec       q    Type
REMARK                         _______ _______ _______ _____ _____    ______ ____
ROOT
ATOM      1  C   UNL     1       1.276   3.664  -0.531  0.00  0.00    +0.233 C 
ENDROOT
BRANCH   1   2
ATOM      2  C   UNL     1       0.319   4.606   0.152  0.00  0.00    +0.135 A 
ATOM      3  C   UNL     1       0.460   5.940   0.246  0.00  0.00    +0.047 A 
ATOM      4  C   UNL     1      -0.660   6.422   0.962  0.00  0.00    +0.045 A 
ATOM      5  C   UNL     1      -1.415   5.352   1.269  0.00  0.00    +0.102 A 
ATOM      6  O   UNL     1      -0.818   4.255   0.776  0.00  0.00    -0.462 OA
ATOM      7  C   UNL     1      -2.712   5.380   2.037  0.00  0.00    +0.086 C 
ENDBRANCH   1   2
BRANCH   1   9
ATOM      8  N   UNL     1       0.371   4.103  -2.792  0.00  0.00    -0.308 N 
ATOM      9  C   UNL     1       0.680   3.203  -1.837  0.00  0.00    +0.242 C 
ATOM     10  O   UNL     1       0.479   2.022  -2.028  0.00  0.00    -0.273 OA
ATOM     11  H   UNL     1       0.532   5.047  -2.638  0.00  0.00    +0.149 HD
BRANCH   8  12
ATOM     12  C   UNL     1      -0.208   3.655  -4.060  0.00  0.00    +0.029 C 
ATOM     13  C   UNL     1       0.764   2.698  -4.755  0.00  0.00    +0.031 C 
ATOM     14  C   UNL     1      -1.529   2.932  -3.791  0.00  0.00    +0.031 C 
BRANCH  12  16
ATOM     15  C   UNL     1      -1.067   4.397  -6.286  0.00  0.00    +0.006 C 
ATOM     16  C   UNL     1      -0.463   4.865  -4.961  0.00  0.00    +0.022 C 
ENDBRANCH  12  16
ENDBRANCH   8  12
ENDBRANCH   1   9
BRANCH   1  17
ATOM     17  N   UNL     1       1.520   2.505   0.330  0.00  0.00    -0.247 N 
ATOM     18  C   UNL     1       2.663   1.801   0.206  0.00  0.00    +0.273 C 
ATOM     19  O   UNL     1       2.886   0.868   0.953  0.00  0.00    -0.268 OA
BRANCH  17  20
ATOM     20  C   UNL     1       0.566   2.128   1.282  0.00  0.00    +0.038 A 
ATOM     21  C   UNL     1       0.712   2.521   2.606  0.00  0.00    +0.027 A 
ATOM     22  C   UNL     1      -0.234   2.152   3.542  0.00  0.00    -0.048 A 
ATOM     23  C   UNL     1      -1.319   1.383   3.165  0.00  0.00    +0.006 A 
ATOM     24  C   UNL     1      -1.464   0.985   1.848  0.00  0.00    -0.048 A 
ATOM     25  C   UNL     1      -0.525   1.355   0.906  0.00  0.00    +0.027 A 
ATOM     26  C   UNL     1      -2.648   0.146   1.441  0.00  0.00    +0.044 C 
ATOM     27  C   UNL     1      -0.080   2.583   4.978  0.00  0.00    +0.044 C 
ENDBRANCH  17  20
BRANCH  18  28
ATOM     28  C   UNL     1       3.644   2.167  -0.831  0.00  0.00    +0.157 A 
ATOM     29  C   UNL     1       4.847   1.499  -1.013  0.00  0.00    +0.101 A 
ATOM     30  S   UNL     1       5.518   2.385  -2.342  0.00  0.00    +0.029 S 
ATOM     31  N   UNL     1       4.362   3.436  -2.563  0.00  0.00    -0.110 NA
ATOM     32  N   UNL     1       3.465   3.166  -1.687  0.00  0.00    -0.136 NA
ENDBRANCH  18  28
ENDBRANCH   1  17
TORSDOF 7
