REMARK  Name = ZINC50324501
REMARK  6 active torsions:
REMARK  status: ('A' for Active; 'I' for Inactive)
REMARK    1  A    between atoms: C_1  and  C_2
REMARK    2  A    between atoms: C_2  and  C_3
REMARK    3  A    between atoms: C_4  and  C_21
REMARK    4  A    between atoms: C_9  and  C_11
REMARK    5  A    between atoms: C_12  and  N_20
REMARK    6  A    between atoms: C_13  and  C_17
REMARK                            x       y       z     vdW  Elec       q    Type
REMARK                         _______ _______ _______ _____ _____    ______ ____
ROOT
ATOM      1  C   UNL     1       0.731  -0.503   1.223  0.00  0.00    +0.053 A 
ATOM      2  C   UNL     1       2.070  -0.716   1.210  0.00  0.00    +0.011 A 
ATOM      3  S   UNL     1       2.332  -1.281   2.884  0.00  0.00    -0.057 S 
ATOM      4  C   UNL     1       0.738  -1.188   3.414  0.00  0.00    +0.165 A 
ATOM      5  N   UNL     1       0.095  -0.748   2.354  0.00  0.00    -0.229 NA
ATOM      6  N   UNL     1       0.226  -1.497   4.667  0.00  0.00    -0.259 N 
ATOM      7  C   UNL     1       1.048  -1.934   5.642  0.00  0.00    +0.269 C 
ATOM      8  O   UNL     1       2.239  -2.058   5.424  0.00  0.00    -0.268 OA
ATOM      9  C   UNL     1       3.062  -0.528   0.092  0.00  0.00    +0.053 C 
ATOM     10  H   UNL     1      -0.723  -1.398   4.841  0.00  0.00    +0.157 HD
ENDROOT
BRANCH   7  11
ATOM     11  C   UNL     1       0.508  -2.259   6.963  0.00  0.00    +0.142 A 
ATOM     12  C   UNL     1       1.219  -2.719   8.069  0.00  0.00    +0.078 A 
ATOM     13  C   UNL     1       0.259  -2.880   9.082  0.00  0.00    +0.087 A 
ATOM     14  N   UNL     1      -0.904  -2.539   8.591  0.00  0.00    -0.176 NA
ATOM     15  N   UNL     1      -0.802  -2.167   7.367  0.00  0.00    -0.271 N 
ATOM     16  H   UNL     1      -1.538  -1.869   6.810  0.00  0.00    +0.189 HD
BRANCH  13  17
ATOM     17  C   UNL     1       0.523  -3.361  10.485  0.00  0.00    +0.041 C 
ATOM     18  C   UNL     1      -0.690  -3.657  11.370  0.00  0.00    +0.010 C 
ATOM     19  C   UNL     1       0.166  -2.416  11.634  0.00  0.00    +0.010 C 
ENDBRANCH  13  17
BRANCH  12  20
ATOM     20  N   UNL     1       2.587  -2.966   8.153  0.00  0.00    -0.355 N 
ATOM     21  H   UNL     1       3.155  -2.817   7.381  0.00  0.00    +0.142 HD
ATOM     22  H   UNL     1       2.972  -3.288   8.983  0.00  0.00    +0.142 HD
ENDBRANCH  12  20
ENDBRANCH   7  11
BRANCH   1  24
ATOM     23  C   UNL     1      -0.019   1.526   0.010  0.00  0.00    +0.010 C 
ATOM     24  C   UNL     1       0.002  -0.004   0.002  0.00  0.00    +0.053 C 
ENDBRANCH   1  24
TORSDOF 4
