REMARK  Name = ZINC35971804
REMARK  9 active torsions:
REMARK  status: ('A' for Active; 'I' for Inactive)
REMARK    1  A    between atoms: C_2  and  C_3
REMARK    2  A    between atoms: C_3  and  N_4
REMARK    3  A    between atoms: C_7  and  C_12
REMARK    4  A    between atoms: C_15  and  C_18
REMARK    5  A    between atoms: N_24  and  C_26
REMARK    6  A    between atoms: C_26  and  C_27
REMARK    7  A    between atoms: C_27  and  C_28
REMARK    8  A    between atoms: N_30  and  C_31
REMARK    9  A    between atoms: C_31  and  C_32
REMARK                            x       y       z     vdW  Elec       q    Type
REMARK                         _______ _______ _______ _____ _____    ______ ____
ROOT
ATOM      1  N   UNL     1      -1.318  -1.700  -1.126  0.00  0.00    -0.253 N 
ATOM      2  C   UNL     1      -1.835  -1.255  -2.309  0.00  0.00    +0.043 C 
ATOM      3  C   UNL     1      -1.887  -2.054  -3.394  0.00  0.00    +0.058 C 
ATOM      4  C   UNL     1      -1.352  -3.465  -3.256  0.00  0.00    +0.142 C 
ATOM      5  N   UNL     1      -0.816  -3.849  -1.939  0.00  0.00    -0.288 N 
ATOM      6  C   UNL     1      -0.827  -2.933  -0.949  0.00  0.00    +0.307 C 
ATOM      7  O   UNL     1      -0.383  -3.239   0.140  0.00  0.00    -0.252 OA
ATOM      8  C   UNL     1      -2.460  -1.366  -4.483  0.00  0.00    +0.247 C 
ATOM      9  O   UNL     1      -2.631  -1.847  -5.588  0.00  0.00    -0.270 OA
ATOM     10  N   UNL     1      -2.795  -0.109  -4.141  0.00  0.00    -0.292 N 
ATOM     11  C   UNL     1      -2.427   0.072  -2.729  0.00  0.00    +0.159 C 
ATOM     12  H   UNL     1      -0.459  -4.738  -1.788  0.00  0.00    +0.151 HD
ENDROOT
BRANCH   4  13
ATOM     13  C   UNL     1      -2.466  -4.420  -3.599  0.00  0.00    -0.023 A 
ATOM     14  C   UNL     1      -3.442  -4.709  -2.663  0.00  0.00    +0.006 A 
ATOM     15  C   UNL     1      -4.463  -5.585  -2.978  0.00  0.00    +0.013 A 
ATOM     16  C   UNL     1      -4.510  -6.172  -4.229  0.00  0.00    +0.055 A 
ATOM     17  C   UNL     1      -3.535  -5.882  -5.165  0.00  0.00    +0.013 A 
ATOM     18  C   UNL     1      -2.515  -5.003  -4.851  0.00  0.00    +0.006 A 
BRANCH  16  19
ATOM     19  C   UNL     1      -5.623  -7.128  -4.572  0.00  0.00    +0.417 C 
ATOM     20  F   UNL     1      -6.695  -6.417  -5.123  0.00  0.00    -0.166 F 
ATOM     21  F   UNL     1      -5.162  -8.068  -5.499  0.00  0.00    -0.166 F 
ATOM     22  F   UNL     1      -6.048  -7.785  -3.412  0.00  0.00    -0.166 F 
ENDBRANCH  16  19
ENDBRANCH   4  13
BRANCH   1  23
ATOM     23  C   UNL     1      -1.293  -0.775   0.010  0.00  0.00    +0.141 C 
BRANCH  23  25
ATOM     24  C   UNL     1      -0.016   1.306   0.009  0.00  0.00    +0.005 C 
ATOM     25  C   UNL     1       0.002  -0.004   0.002  0.00  0.00    -0.015 C 
ENDBRANCH  23  25
ENDBRANCH   1  23
BRANCH  10  26
ATOM     26  C   UNL     1      -3.412   0.894  -5.014  0.00  0.00    +0.117 C 
BRANCH  26  27
ATOM     27  C   UNL     1      -4.935   0.786  -4.917  0.00  0.00    +0.114 C 
BRANCH  27  28
ATOM     28  C   UNL     1      -5.569   1.817  -5.814  0.00  0.00    +0.215 C 
ATOM     29  O   UNL     1      -4.872   2.565  -6.467  0.00  0.00    -0.276 OA
ATOM     30  N   UNL     1      -6.912   1.909  -5.892  0.00  0.00    -0.311 N 
ATOM     31  H   UNL     1      -7.470   1.311  -5.370  0.00  0.00    +0.149 HD
BRANCH  30  32
ATOM     32  C   UNL     1      -7.529   2.911  -6.764  0.00  0.00    +0.141 C 
BRANCH  32  33
ATOM     33  C   UNL     1      -9.029   2.805  -6.670  0.00  0.00    -0.012 A 
ATOM     34  C   UNL     1      -9.729   1.966  -7.523  0.00  0.00    +0.008 A 
ATOM     35  C   UNL     1     -11.108   1.900  -7.400  0.00  0.00    +0.020 A 
ATOM     36  C   UNL     1     -11.735   2.668  -6.436  0.00  0.00    +0.111 A 
ATOM     37  N   UNL     1     -11.037   3.455  -5.642  0.00  0.00    -0.263 NA
ATOM     38  C   UNL     1      -9.724   3.538  -5.727  0.00  0.00    +0.115 A 
ENDBRANCH  32  33
ENDBRANCH  30  32
ENDBRANCH  27  28
ENDBRANCH  26  27
ENDBRANCH  10  26
TORSDOF 9
