REMARK  Name = ZINC00866995
REMARK  5 active torsions:
REMARK  status: ('A' for Active; 'I' for Inactive)
REMARK    1  A    between atoms: C_3  and  C_6
REMARK    2  A    between atoms: C_6  and  N_7
REMARK    3  A    between atoms: C_8  and  C_10
REMARK    4  A    between atoms: C_15  and  C_28
REMARK    5  A    between atoms: C_18  and  C_21
REMARK                            x       y       z     vdW  Elec       q    Type
REMARK                         _______ _______ _______ _____ _____    ______ ____
ROOT
ATOM      1  C   UNL     1       5.934   0.556   2.967  0.00  0.00    +0.167 A 
ATOM      2  C   UNL     1       7.293   0.528   3.354  0.00  0.00    +0.112 A 
ATOM      3  C   UNL     1       7.332   0.518   4.702  0.00  0.00    +0.137 A 
ATOM      4  N   UNL     1       6.047   0.540   5.165  0.00  0.00    -0.237 N 
ATOM      5  N   UNL     1       5.194   0.568   4.063  0.00  0.00    -0.163 NA
ATOM      6  C   UNL     1       5.696   0.542   6.588  0.00  0.00    +0.215 C 
ATOM      7  C   UNL     1       6.915   0.996   7.399  0.00  0.00    +0.063 C 
ATOM      8  C   UNL     1       8.151   0.196   6.977  0.00  0.00    +0.104 C 
ATOM      9  N   UNL     1       8.438   0.488   5.558  0.00  0.00    -0.321 N 
ATOM     10 CL   UNL     1       8.663   0.510   2.288  0.00  0.00    -0.078 Cl
ATOM     11  H   UNL     1       9.339   0.651   5.239  0.00  0.00    +0.148 HD
ENDROOT
BRANCH   8  12
ATOM     12  C   UNL     1       7.884  -1.277   7.150  0.00  0.00    -0.027 A 
ATOM     13  C   UNL     1       7.163  -1.965   6.192  0.00  0.00    +0.008 A 
ATOM     14  C   UNL     1       6.918  -3.316   6.349  0.00  0.00    +0.038 A 
ATOM     15  C   UNL     1       7.395  -3.981   7.467  0.00  0.00    +0.123 A 
ATOM     16  C   UNL     1       8.117  -3.290   8.425  0.00  0.00    +0.038 A 
ATOM     17  C   UNL     1       8.366  -1.940   8.263  0.00  0.00    +0.008 A 
ATOM     18  F   UNL     1       7.155  -5.301   7.622  0.00  0.00    -0.205 F 
ENDBRANCH   8  12
BRANCH   1  20
ATOM     19  N   UNL     1       4.101   0.607   1.347  0.00  0.00    -0.303 N 
ATOM     20  C   UNL     1       5.428   0.575   1.580  0.00  0.00    +0.266 C 
ATOM     21  O   UNL     1       6.208   0.561   0.648  0.00  0.00    -0.268 OA
ATOM     22  H   UNL     1       3.478   0.617   2.090  0.00  0.00    +0.150 HD
BRANCH  19  23
ATOM     23  C   UNL     1       3.599   0.625  -0.029  0.00  0.00    +0.179 C 
BRANCH  23  26
ATOM     24  C   UNL     1      -0.016   1.341   0.009  0.00  0.00    +0.041 A 
ATOM     25  C   UNL     1       1.331   1.769  -0.001  0.00  0.00    +0.046 A 
ATOM     26  C   UNL     1       2.092   0.660  -0.014  0.00  0.00    +0.122 A 
ATOM     27  O   UNL     1       1.282  -0.411  -0.012  0.00  0.00    -0.466 OA
ATOM     28  C   UNL     1       0.002  -0.004   0.002  0.00  0.00    +0.195 A 
ENDBRANCH  23  26
ENDBRANCH  19  23
ENDBRANCH   1  20
BRANCH   6  29
ATOM     29  C   UNL     1       4.531   1.504   6.828  0.00  0.00    +0.412 C 
ATOM     30  F   UNL     1       3.425   1.093   6.076  0.00  0.00    -0.168 F 
ATOM     31  F   UNL     1       4.197   1.504   8.186  0.00  0.00    -0.168 F 
ATOM     32  F   UNL     1       4.904   2.795   6.439  0.00  0.00    -0.168 F 
ENDBRANCH   6  29
TORSDOF 5
