REMARK  Name = ZINC66591354
REMARK  10 active torsions:
REMARK  status: ('A' for Active; 'I' for Inactive)
REMARK    1  A    between atoms: C_1  and  C_2
REMARK    2  A    between atoms: C_2  and  C_4
REMARK    3  A    between atoms: C_2  and  N_19
REMARK    4  A    between atoms: C_4  and  C_5
REMARK    5  A    between atoms: N_7  and  N_8
REMARK    6  A    between atoms: N_8  and  C_9
REMARK    7  A    between atoms: C_9  and  N_11
REMARK    8  A    between atoms: N_11  and  C_12
REMARK    9  A    between atoms: C_12  and  C_13
REMARK   10  A    between atoms: C_20  and  C_22
REMARK                            x       y       z     vdW  Elec       q    Type
REMARK                         _______ _______ _______ _____ _____    ______ ____
ROOT
ATOM      1  C   UNL     1      -1.416  -2.035  -0.119  0.00  0.00    +0.231 C 
ATOM      2  O   UNL     1      -0.359  -2.623  -0.213  0.00  0.00    -0.274 OA
ATOM      3  N   UNL     1      -2.574  -2.724  -0.133  0.00  0.00    -0.235 N 
ATOM      4  H   UNL     1      -3.419  -2.253  -0.058  0.00  0.00    +0.173 HD
ENDROOT
BRANCH   3   5
ATOM      5  N   UNL     1      -2.558  -4.119  -0.256  0.00  0.00    -0.246 N 
ATOM      6  H   UNL     1      -1.713  -4.590  -0.331  0.00  0.00    +0.172 HD
BRANCH   5   7
ATOM      7  C   UNL     1      -3.717  -4.808  -0.270  0.00  0.00    +0.147 C 
ATOM      8  S   UNL     1      -3.697  -6.513  -0.420  0.00  0.00    -0.017 S 
BRANCH   7   9
ATOM      9  N   UNL     1      -4.891  -4.154  -0.166  0.00  0.00    -0.321 N 
ATOM     10  H   UNL     1      -4.902  -3.188  -0.081  0.00  0.00    +0.148 HD
BRANCH   9  11
ATOM     11  C   UNL     1      -6.150  -4.902  -0.181  0.00  0.00    +0.138 C 
BRANCH  11  12
ATOM     12  C   UNL     1      -7.306  -3.944  -0.052  0.00  0.00    -0.030 A 
ATOM     13  C   UNL     1      -7.785  -3.605   1.200  0.00  0.00    +0.005 A 
ATOM     14  C   UNL     1      -8.845  -2.725   1.319  0.00  0.00    +0.000 A 
ATOM     15  C   UNL     1      -9.426  -2.186   0.187  0.00  0.00    +0.000 A 
ATOM     16  C   UNL     1      -8.946  -2.525  -1.065  0.00  0.00    +0.000 A 
ATOM     17  C   UNL     1      -7.883  -3.400  -1.184  0.00  0.00    +0.005 A 
ENDBRANCH  11  12
ENDBRANCH   9  11
ENDBRANCH   7   9
ENDBRANCH   5   7
ENDBRANCH   3   5
BRANCH   1  18
ATOM     18  C   UNL     1      -1.433  -0.534   0.013  0.00  0.00    +0.119 C 
BRANCH  18  20
ATOM     19  C   UNL     1      -0.019   1.526   0.010  0.00  0.00    +0.028 C 
ATOM     20  C   UNL     1       0.002  -0.004   0.002  0.00  0.00    +0.079 C 
BRANCH  20  21
ATOM     21  N   UNL     1       0.711  -0.489   1.189  0.00  0.00    -0.312 N 
ATOM     22  C   UNL     1       2.054  -0.600   1.174  0.00  0.00    +0.216 C 
ATOM     23  O   UNL     1       2.676  -0.297   0.177  0.00  0.00    -0.276 OA
ATOM     24  H   UNL     1       0.213  -0.731   1.986  0.00  0.00    +0.149 HD
BRANCH  22  25
ATOM     25  C   UNL     1       2.783  -1.099   2.395  0.00  0.00    +0.075 C 
ATOM     26  C   UNL     1       2.502  -0.165   3.574  0.00  0.00    +0.013 C 
ATOM     27  C   UNL     1       3.242  -0.672   4.813  0.00  0.00    +0.001 C 
ATOM     28  C   UNL     1       4.746  -0.702   4.533  0.00  0.00    +0.000 C 
ATOM     29  C   UNL     1       5.026  -1.635   3.354  0.00  0.00    +0.001 C 
ATOM     30  C   UNL     1       4.287  -1.129   2.114  0.00  0.00    +0.013 C 
ENDBRANCH  22  25
ENDBRANCH  20  21
ENDBRANCH  18  20
ENDBRANCH   1  18
TORSDOF 9
