REMARK  Name = ZINC63588654
REMARK  8 active torsions:
REMARK  status: ('A' for Active; 'I' for Inactive)
REMARK    1  A    between atoms: C_1  and  C_2
REMARK    2  A    between atoms: C_6  and  C_8
REMARK    3  A    between atoms: C_8  and  N_10
REMARK    4  A    between atoms: N_12  and  C_13
REMARK    5  A    between atoms: C_18  and  C_19
REMARK    6  A    between atoms: N_20  and  C_21
REMARK    7  A    between atoms: C_21  and  C_22
REMARK    8  A    between atoms: C_22  and  C_23
REMARK                            x       y       z     vdW  Elec       q    Type
REMARK                         _______ _______ _______ _____ _____    ______ ____
ROOT
ATOM      1  N   UNL     1      -0.372  -5.121   2.346  0.00  0.00    -0.143 NA
ATOM      2  C   UNL     1      -0.586  -4.722   3.591  0.00  0.00    +0.194 C 
ATOM      3  N   UNL     1       0.096  -3.650   4.091  0.00  0.00    -0.328 N 
ATOM      4  N   UNL     1      -1.486  -5.383   4.375  0.00  0.00    -0.357 N 
ATOM      5  H   UNL     1       0.064  -2.797   3.629  0.00  0.00    +0.169 HD
ATOM      6  H   UNL     1      -1.938  -6.171   4.035  0.00  0.00    +0.162 HD
ENDROOT
BRANCH   3   7
ATOM      7  C   UNL     1       0.839  -3.780   5.268  0.00  0.00    +0.045 A 
ATOM      8  C   UNL     1       1.516  -4.963   5.537  0.00  0.00    +0.026 A 
ATOM      9  C   UNL     1       2.249  -5.088   6.700  0.00  0.00    +0.002 A 
ATOM     10  C   UNL     1       2.310  -4.037   7.598  0.00  0.00    +0.000 A 
ATOM     11  C   UNL     1       1.637  -2.859   7.333  0.00  0.00    +0.005 A 
ATOM     12  C   UNL     1       0.907  -2.725   6.168  0.00  0.00    -0.027 A 
ATOM     13  C   UNL     1       0.179  -1.437   5.878  0.00  0.00    +0.046 C 
ENDBRANCH   3   7
BRANCH   1  14
ATOM     14  C   UNL     1       0.615  -4.572   1.627  0.00  0.00    +0.270 C 
ATOM     15  O   UNL     1       1.253  -3.638   2.081  0.00  0.00    -0.268 OA
BRANCH  14  21
ATOM     16  C   UNL     1       3.358  -4.410  -2.540  0.00  0.00    +0.044 C 
ATOM     17  C   UNL     1       2.249  -5.024  -1.727  0.00  0.00    -0.050 A 
ATOM     18  C   UNL     1       1.523  -6.085  -2.239  0.00  0.00    +0.003 A 
ATOM     19  C   UNL     1       0.503  -6.655  -1.498  0.00  0.00    +0.001 A 
ATOM     20  C   UNL     1       0.203  -6.168  -0.242  0.00  0.00    +0.013 A 
ATOM     21  C   UNL     1       0.932  -5.099   0.280  0.00  0.00    +0.039 A 
ATOM     22  C   UNL     1       1.962  -4.532  -0.470  0.00  0.00    +0.016 A 
ENDBRANCH  14  21
ENDBRANCH   1  14
BRANCH   4  23
ATOM     23  C   UNL     1      -1.770  -4.903   5.729  0.00  0.00    +0.120 C 
BRANCH  23  24
ATOM     24  C   UNL     1      -2.847  -5.783   6.367  0.00  0.00    +0.054 C 
BRANCH  24  25
ATOM     25  C   UNL     1      -3.226  -5.218   7.711  0.00  0.00    -0.040 C 
ATOM     26  C   UNL     1      -4.239  -4.361   7.977  0.00  0.00    -0.001 A 
ATOM     27  C   UNL     1      -5.250  -3.722   7.127  0.00  0.00    +0.010 A 
ATOM     28  C   UNL     1      -6.154  -2.892   7.694  0.00  0.00    +0.001 A 
ATOM     29  C   UNL     1      -6.149  -2.626   9.070  0.00  0.00    +0.002 A 
ATOM     30  C   UNL     1      -5.252  -3.175   9.915  0.00  0.00    +0.026 A 
ATOM     31  C   UNL     1      -4.255  -4.064   9.427  0.00  0.00    +0.043 A 
ATOM     32  N   UNL     1      -3.291  -4.712  10.034  0.00  0.00    -0.380 N 
ATOM     33  C   UNL     1      -2.556  -5.499   9.037  0.00  0.00    +0.144 C 
ATOM     34  H   UNL     1      -3.097  -4.680  10.984  0.00  0.00    +0.160 HD
ENDBRANCH  24  25
ENDBRANCH  23  24
ENDBRANCH   4  23
TORSDOF 6
