REMARK  Name = ZINC08391847
REMARK  5 active torsions:
REMARK  status: ('A' for Active; 'I' for Inactive)
REMARK    1  A    between atoms: C_1  and  C_2
REMARK    2  A    between atoms: C_5  and  C_8
REMARK    3  A    between atoms: C_14  and  C_21
REMARK    4  A    between atoms: C_15  and  C_18
REMARK    5  A    between atoms: C_18  and  C_19
REMARK                            x       y       z     vdW  Elec       q    Type
REMARK                         _______ _______ _______ _____ _____    ______ ____
ROOT
ATOM      1  C   UNL     1      -0.332   8.524   0.346  0.00  0.00    +0.186 A 
ATOM      2  N   UNL     1       0.450   9.559   0.107  0.00  0.00    -0.126 NA
ATOM      3  N   UNL     1       1.585   9.160  -0.359  0.00  0.00    -0.120 NA
ATOM      4  C   UNL     1       1.593   7.863  -0.443  0.00  0.00    +0.213 A 
ATOM      5  N   UNL     1       0.372   7.407  -0.001  0.00  0.00    -0.186 N 
ATOM      6  N   UNL     1       0.033   6.057   0.030  0.00  0.00    -0.165 NA
ATOM      7  C   UNL     1       0.919   5.119   0.021  0.00  0.00    +0.090 C 
ATOM      8  C   UNL     1       2.404   5.319   0.007  0.00  0.00    +0.116 C 
ATOM      9  S   UNL     1       2.854   6.762  -0.995  0.00  0.00    -0.074 S 
ENDROOT
BRANCH   1  14
ATOM     10  C   UNL     1      -5.684   8.684   2.452  0.00  0.00    +0.044 C 
ATOM     11  C   UNL     1      -4.283   8.642   1.900  0.00  0.00    -0.050 A 
ATOM     12  C   UNL     1      -3.474   9.761   1.990  0.00  0.00    +0.004 A 
ATOM     13  C   UNL     1      -2.189   9.729   1.487  0.00  0.00    +0.012 A 
ATOM     14  C   UNL     1      -1.707   8.565   0.887  0.00  0.00    +0.021 A 
ATOM     15  C   UNL     1      -2.530   7.441   0.795  0.00  0.00    +0.012 A 
ATOM     16  C   UNL     1      -3.810   7.485   1.307  0.00  0.00    +0.004 A 
ENDBRANCH   1  14
BRANCH   7  17
ATOM     17  C   UNL     1       0.431   3.737   0.018  0.00  0.00    +0.036 A 
ATOM     18  C   UNL     1      -0.873   3.272   0.028  0.00  0.00    +0.017 A 
ATOM     19  C   UNL     1      -1.083   1.914   0.017  0.00  0.00    +0.008 A 
ATOM     20  C   UNL     1      -0.013   1.076   0.008  0.00  0.00    +0.046 A 
ATOM     21  S   UNL     1       1.362   2.214   0.001  0.00  0.00    -0.095 S 
ENDBRANCH   7  17
BRANCH   8  22
ATOM     22  C   UNL     1       2.897   5.528   1.440  0.00  0.00    +0.146 C 
BRANCH  22  23
ATOM     23  C   UNL     1       4.402   5.607   1.448  0.00  0.00    +0.357 C 
ATOM     24  O   UNL     1       5.017   5.506   0.413  0.00  0.00    -0.246 OA
ATOM     25  O   UNL     1       5.058   5.790   2.604  0.00  0.00    -0.246 OA
ENDBRANCH  22  23
ENDBRANCH   8  22
TORSDOF 4
