REMARK  Name = ZINC39978173
REMARK  4 active torsions:
REMARK  status: ('A' for Active; 'I' for Inactive)
REMARK    1  A    between atoms: C_4  and  C_7
REMARK    2  A    between atoms: C_17  and  C_19
REMARK    3  A    between atoms: C_19  and  C_20
REMARK    4  A    between atoms: N_22  and  N_23
REMARK                            x       y       z     vdW  Elec       q    Type
REMARK                         _______ _______ _______ _____ _____    ______ ____
ROOT
ATOM      1  C   UNL     1       3.674  -0.633  -0.089  0.00  0.00    -0.019 C 
ATOM      2  C   UNL     1       4.905   0.020  -0.190  0.00  0.00    +0.002 A 
ATOM      3  C   UNL     1       4.968   1.422  -0.330  0.00  0.00    +0.025 A 
ATOM      4  C   UNL     1       6.181   2.033  -0.425  0.00  0.00    +0.019 A 
ATOM      5  C   UNL     1       7.366   1.300  -0.387  0.00  0.00    +0.017 A 
ATOM      6  C   UNL     1       7.369  -0.055  -0.254  0.00  0.00    +0.025 A 
ATOM      7  C   UNL     1       6.152  -0.753  -0.150  0.00  0.00    +0.041 A 
ATOM      8  N   UNL     1       6.157  -2.083  -0.019  0.00  0.00    -0.284 N 
ATOM      9  C   UNL     1       5.061  -2.810   0.084  0.00  0.00    +0.225 C 
ATOM     10  O   UNL     1       5.142  -4.018   0.201  0.00  0.00    -0.275 OA
ATOM     11  C   UNL     1       3.705  -2.142   0.065  0.00  0.00    +0.115 C 
ATOM     12 BR   UNL     1       6.259   3.913  -0.613  0.00  0.00    -0.050 Br
ATOM     13  H   UNL     1       7.013  -2.539   0.001  0.00  0.00    +0.155 HD
ENDROOT
BRANCH   1  17
ATOM     14  C   UNL     1       0.059   1.481  -0.194  0.00  0.00    +0.000 A 
ATOM     15  C   UNL     1       0.888   1.482  -1.303  0.00  0.00    +0.001 A 
ATOM     16  C   UNL     1       2.079   0.791  -1.279  0.00  0.00    +0.008 A 
ATOM     17  C   UNL     1       2.451   0.083  -0.125  0.00  0.00    -0.020 A 
ATOM     18  C   UNL     1       1.602   0.088   0.995  0.00  0.00    +0.008 A 
ATOM     19  C   UNL     1       0.416   0.786   0.950  0.00  0.00    +0.001 A 
ENDBRANCH   1  17
BRANCH  11  20
ATOM     20  C   UNL     1       2.905  -2.749  -1.089  0.00  0.00    +0.114 C 
BRANCH  20  21
ATOM     21  C   UNL     1       3.560  -2.390  -2.398  0.00  0.00    +0.227 C 
ATOM     22  O   UNL     1       4.624  -1.807  -2.404  0.00  0.00    -0.274 OA
ATOM     23  N   UNL     1       2.964  -2.716  -3.561  0.00  0.00    -0.254 N 
ATOM     24  H   UNL     1       2.113  -3.182  -3.557  0.00  0.00    +0.169 HD
BRANCH  23  25
ATOM     25  N   UNL     1       3.557  -2.391  -4.748  0.00  0.00    -0.254 NA
ATOM     26  H   UNL     1       4.491  -2.771  -4.801  0.00  0.00    +0.140 HD
ATOM     27  H   UNL     1       2.997  -2.698  -5.529  0.00  0.00    +0.140 HD
ENDBRANCH  23  25
ENDBRANCH  20  21
ENDBRANCH  11  20
TORSDOF 4
