REMARK  Name = ZINC06546705
REMARK  13 active torsions:
REMARK  status: ('A' for Active; 'I' for Inactive)
REMARK    1  A    between atoms: C_1  and  C_2
REMARK    2  A    between atoms: C_2  and  O_3
REMARK    3  A    between atoms: O_3  and  C_4
REMARK    4  A    between atoms: C_4  and  C_6
REMARK    5  A    between atoms: C_6  and  N_7
REMARK    6  A    between atoms: C_8  and  C_10
REMARK    7  A    between atoms: C_10  and  C_12
REMARK    8  A    between atoms: C_10  and  N_19
REMARK    9  A    between atoms: N_19  and  C_20
REMARK   10  A    between atoms: C_25  and  C_26
REMARK   11  A    between atoms: C_27  and  C_29
REMARK   12  A    between atoms: C_30  and  N_37
REMARK   13  A    between atoms: C_31  and  C_34
REMARK                            x       y       z     vdW  Elec       q    Type
REMARK                         _______ _______ _______ _____ _____    ______ ____
ROOT
ATOM      1  N   UNL     1      -5.649   1.024  -0.285  0.00  0.00    -0.251 N 
ATOM      2  C   UNL     1      -5.292   0.151  -1.248  0.00  0.00    +0.262 C 
ATOM      3  O   UNL     1      -6.074  -0.128  -2.138  0.00  0.00    -0.269 OA
ENDROOT
BRANCH   1   4
ATOM      4  C   UNL     1      -4.751   1.345   0.737  0.00  0.00    +0.041 A 
ATOM      5  C   UNL     1      -3.727   2.253   0.504  0.00  0.00    +0.024 A 
ATOM      6  C   UNL     1      -2.841   2.568   1.516  0.00  0.00    +0.002 A 
ATOM      7  C   UNL     1      -2.974   1.980   2.760  0.00  0.00    +0.000 A 
ATOM      8  C   UNL     1      -3.992   1.075   2.996  0.00  0.00    +0.005 A 
ATOM      9  C   UNL     1      -4.884   0.759   1.989  0.00  0.00    -0.029 A 
ATOM     10  C   UNL     1      -5.997  -0.223   2.248  0.00  0.00    +0.045 C 
ENDBRANCH   1   4
BRANCH   2  11
ATOM     11  C   UNL     1      -3.963  -0.462  -1.222  0.00  0.00    +0.116 A 
ATOM     12  C   UNL     1      -3.393  -1.376  -2.111  0.00  0.00    +0.076 A 
ATOM     13  C   UNL     1      -2.094  -1.734  -1.749  0.00  0.00    +0.155 A 
ATOM     14  N   UNL     1      -1.556  -1.203  -0.673  0.00  0.00    -0.203 NA
ATOM     15  S   UNL     1      -2.638  -0.237  -0.054  0.00  0.00    +0.019 S 
BRANCH  13  16
ATOM     16  C   UNL     1      -1.330  -2.694  -2.567  0.00  0.00    +0.262 C 
ATOM     17  O   UNL     1      -1.833  -3.181  -3.561  0.00  0.00    -0.269 OA
ATOM     18  N   UNL     1      -0.072  -3.027  -2.216  0.00  0.00    -0.324 N 
ATOM     19  H   UNL     1       0.432  -3.655  -2.757  0.00  0.00    +0.145 HD
ATOM     20  H   UNL     1       0.329  -2.638  -1.423  0.00  0.00    +0.145 HD
ENDBRANCH  13  16
BRANCH  12  21
ATOM     21  N   UNL     1      -4.047  -1.875  -3.229  0.00  0.00    -0.355 N 
ATOM     22  H   UNL     1      -3.600  -2.511  -3.809  0.00  0.00    +0.142 HD
ATOM     23  H   UNL     1      -4.951  -1.588  -3.431  0.00  0.00    +0.142 HD
ENDBRANCH  12  21
ENDBRANCH   2  11
BRANCH   1  24
ATOM     24  C   UNL     1      -6.979   1.638  -0.310  0.00  0.00    +0.197 C 
BRANCH  24  25
ATOM     25  C   UNL     1      -7.125   2.470  -1.558  0.00  0.00    -0.018 A 
ATOM     26  C   UNL     1      -6.176   3.427  -1.865  0.00  0.00    +0.009 A 
ATOM     27  C   UNL     1      -6.307   4.188  -3.012  0.00  0.00    +0.038 A 
ATOM     28  C   UNL     1      -7.393   3.997  -3.848  0.00  0.00    +0.123 A 
ATOM     29  C   UNL     1      -8.346   3.042  -3.538  0.00  0.00    +0.038 A 
ATOM     30  C   UNL     1      -8.211   2.279  -2.393  0.00  0.00    +0.009 A 
ATOM     31  F   UNL     1      -7.524   4.743  -4.967  0.00  0.00    -0.205 F 
ENDBRANCH  24  25
BRANCH  24  33
ATOM     32  N   UNL     1      -8.346   2.587   1.520  0.00  0.00    -0.303 N 
ATOM     33  C   UNL     1      -7.150   2.516   0.902  0.00  0.00    +0.239 C 
ATOM     34  O   UNL     1      -6.212   3.160   1.321  0.00  0.00    -0.273 OA
ATOM     35  H   UNL     1      -9.097   2.072   1.185  0.00  0.00    +0.149 HD
BRANCH  32  36
ATOM     36  C   UNL     1      -8.512   3.441   2.699  0.00  0.00    +0.225 C 
BRANCH  36  37
ATOM     37  C   UNL     1      -9.931   3.341   3.195  0.00  0.00    +0.324 C 
ATOM     38  O   UNL     1     -10.723   2.630   2.623  0.00  0.00    -0.249 OA
BRANCH  37  39
ATOM     39  O   UNL     1     -10.316   4.043   4.273  0.00  0.00    -0.464 OA
BRANCH  39  41
ATOM     40  C   UNL     1     -11.948   4.767   5.929  0.00  0.00    +0.048 C 
ATOM     41  C   UNL     1     -11.698   3.898   4.695  0.00  0.00    +0.229 C 
ENDBRANCH  39  41
ENDBRANCH  37  39
ENDBRANCH  36  37
ENDBRANCH  32  36
ENDBRANCH  24  33
ENDBRANCH   1  24
TORSDOF 11
