REMARK  Name = ZINC36736686
REMARK  6 active torsions:
REMARK  status: ('A' for Active; 'I' for Inactive)
REMARK    1  A    between atoms: C_4  and  N_8
REMARK    2  A    between atoms: C_5  and  N_7
REMARK    3  A    between atoms: N_8  and  C_9
REMARK    4  A    between atoms: C_9  and  C_10
REMARK    5  A    between atoms: C_10  and  O_11
REMARK    6  A    between atoms: C_12  and  C_14
REMARK                            x       y       z     vdW  Elec       q    Type
REMARK                         _______ _______ _______ _____ _____    ______ ____
ROOT
ATOM      1  N   UNL     1       3.607  -0.634  -0.021  0.00  0.00    -0.261 N 
ATOM      2  C   UNL     1       4.174  -0.979  -1.194  0.00  0.00    +0.286 C 
ATOM      3  O   UNL     1       5.179  -1.665  -1.206  0.00  0.00    -0.266 OA
ENDROOT
BRANCH   1   7
ATOM      4  C   UNL     1      -0.005   1.453   0.015  0.00  0.00    +0.002 A 
ATOM      5  C   UNL     1       1.193   2.142  -0.006  0.00  0.00    +0.002 A 
ATOM      6  C   UNL     1       2.392   1.453  -0.018  0.00  0.00    +0.025 A 
ATOM      7  C   UNL     1       2.394   0.066  -0.009  0.00  0.00    +0.057 A 
ATOM      8  C   UNL     1       1.185  -0.629   0.012  0.00  0.00    +0.046 A 
ATOM      9  C   UNL     1      -0.013   0.071   0.024  0.00  0.00    +0.024 A 
BRANCH   8  10
ATOM     10  N   UNL     1       1.180  -2.028   0.021  0.00  0.00    -0.357 N 
ATOM     11  H   UNL     1       2.018  -2.516   0.013  0.00  0.00    +0.142 HD
ATOM     12  H   UNL     1       0.339  -2.510   0.036  0.00  0.00    +0.142 HD
ENDBRANCH   8  10
ENDBRANCH   1   7
BRANCH   2  13
ATOM     13  C   UNL     1       3.580  -0.528  -2.456  0.00  0.00    +0.191 A 
ATOM     14  C   UNL     1       3.986  -0.891  -3.709  0.00  0.00    +0.056 A 
ATOM     15  C   UNL     1       3.144  -0.228  -4.614  0.00  0.00    +0.058 A 
ATOM     16  C   UNL     1       2.270   0.502  -3.883  0.00  0.00    +0.171 A 
ATOM     17  O   UNL     1       2.534   0.314  -2.583  0.00  0.00    -0.444 OA
ATOM     18 BR   UNL     1       0.899   1.602  -4.581  0.00  0.00    -0.008 Br
ENDBRANCH   2  13
BRANCH   1  19
ATOM     19  C   UNL     1       4.259  -0.992   1.241  0.00  0.00    +0.142 C 
BRANCH  19  20
ATOM     20  C   UNL     1       3.703  -2.326   1.742  0.00  0.00    +0.175 C 
BRANCH  20  21
ATOM     21  O   UNL     1       4.058  -3.364   0.826  0.00  0.00    -0.393 OA
ATOM     22  H   UNL     1       3.738  -4.240   1.081  0.00  0.00    +0.209 HD
ENDBRANCH  20  21
ENDBRANCH  19  20
ENDBRANCH   1  19
TORSDOF 6
