REMARK  Name = ZINC61997758
REMARK  4 active torsions:
REMARK  status: ('A' for Active; 'I' for Inactive)
REMARK    1  A    between atoms: C_1  and  C_2
REMARK    2  A    between atoms: C_5  and  C_8
REMARK    3  A    between atoms: C_8  and  C_10
REMARK    4  A    between atoms: C_33  and  C_38
REMARK                            x       y       z     vdW  Elec       q    Type
REMARK                         _______ _______ _______ _____ _____    ______ ____
ROOT
ATOM      1  C   UNL     1       0.075  -5.006   1.280  0.00  0.00    +0.099 C 
ATOM      2  C   UNL     1       1.526  -5.347   1.696  0.00  0.00    +0.070 C 
ATOM      3  C   UNL     1       2.475  -4.265   1.154  0.00  0.00    +0.021 C 
ATOM      4  C   UNL     1       2.908  -4.755  -0.241  0.00  0.00    +0.017 C 
ATOM      5  C   UNL     1       2.157  -6.084  -0.453  0.00  0.00    +0.086 C 
ATOM      6  N   UNL     1       1.836  -6.587   0.920  0.00  0.00    -0.281 NA
ATOM      7  C   UNL     1       0.584  -7.364   0.894  0.00  0.00    +0.145 C 
ATOM      8  C   UNL     1      -0.574  -6.390   1.109  0.00  0.00    +0.116 C 
ATOM      9  C   UNL     1      -1.541  -6.398  -0.042  0.00  0.00    -0.008 A 
ATOM     10  C   UNL     1      -1.410  -6.153  -1.391  0.00  0.00    +0.006 A 
ATOM     11  C   UNL     1      -2.514  -6.240  -2.220  0.00  0.00    +0.000 A 
ATOM     12  C   UNL     1      -3.748  -6.574  -1.691  0.00  0.00    +0.002 A 
ATOM     13  C   UNL     1      -3.884  -6.819  -0.341  0.00  0.00    +0.023 A 
ATOM     14  C   UNL     1      -2.777  -6.734   0.502  0.00  0.00    +0.038 A 
ATOM     15  N   UNL     1      -2.661  -6.934   1.879  0.00  0.00    -0.284 N 
ATOM     16  C   UNL     1      -1.400  -6.752   2.314  0.00  0.00    +0.231 C 
ATOM     17  O   UNL     1      -1.005  -6.860   3.456  0.00  0.00    -0.274 OA
ATOM     18  C   UNL     1       0.598  -8.443   1.944  0.00  0.00    +0.006 A 
ATOM     19  C   UNL     1       0.702  -8.421   3.317  0.00  0.00    +0.027 A 
ATOM     20  C   UNL     1       0.686  -9.608   4.031  0.00  0.00    +0.042 A 
ATOM     21  C   UNL     1       0.566 -10.813   3.360  0.00  0.00    +0.025 A 
ATOM     22  C   UNL     1       0.462 -10.837   1.985  0.00  0.00    -0.028 A 
ATOM     23  C   UNL     1       0.477  -9.647   1.260  0.00  0.00    +0.042 A 
ATOM     24  N   UNL     1       0.387  -9.415  -0.114  0.00  0.00    -0.283 N 
ATOM     25  C   UNL     1       0.442  -8.104  -0.412  0.00  0.00    +0.244 C 
ATOM     26  O   UNL     1       0.387  -7.612  -1.519  0.00  0.00    -0.273 OA
ATOM     27  C   UNL     1       0.332 -12.154   1.265  0.00  0.00    +0.046 C 
ATOM     28 CL   UNL     1       0.816  -9.585   5.762  0.00  0.00    -0.084 Cl
ATOM     29  H   UNL     1      -3.403  -7.176   2.455  0.00  0.00    +0.155 HD
ATOM     30  H   UNL     1       0.297 -10.118  -0.777  0.00  0.00    +0.155 HD
ENDROOT
BRANCH   1  31
ATOM     31  C   UNL     1       0.058  -4.245  -0.021  0.00  0.00    +0.169 C 
ATOM     32  O   UNL     1       1.000  -4.324  -0.781  0.00  0.00    -0.292 OA
BRANCH  31  37
ATOM     33  C   UNL     1      -4.470  -0.975  -1.382  0.00  0.00    +0.044 C 
ATOM     34  C   UNL     1      -3.283  -1.832  -1.025  0.00  0.00    -0.050 A 
ATOM     35  C   UNL     1      -2.209  -1.918  -1.895  0.00  0.00    +0.004 A 
ATOM     36  C   UNL     1      -1.120  -2.700  -1.576  0.00  0.00    +0.011 A 
ATOM     37  C   UNL     1      -1.101  -3.408  -0.369  0.00  0.00    +0.018 A 
ATOM     38  C   UNL     1      -2.189  -3.315   0.504  0.00  0.00    +0.011 A 
ATOM     39  C   UNL     1      -3.269  -2.525   0.173  0.00  0.00    +0.004 A 
ENDBRANCH  31  37
ENDBRANCH   1  31
TORSDOF 2
