REMARK  Name = ZINC44458632
REMARK  3 active torsions:
REMARK  status: ('A' for Active; 'I' for Inactive)
REMARK    1  A    between atoms: C_3  and  C_14
REMARK    2  A    between atoms: N_10  and  C_11
REMARK    3  A    between atoms: N_16  and  C_17
REMARK                            x       y       z     vdW  Elec       q    Type
REMARK                         _______ _______ _______ _____ _____    ______ ____
ROOT
ATOM      1  C   UNL     1       3.552   2.121   1.265  0.00  0.00    +0.218 C 
ATOM      2  O   UNL     1       3.932   2.826   0.354  0.00  0.00    -0.275 OA
ATOM      3  N   UNL     1       4.386   1.826   2.282  0.00  0.00    -0.309 N 
ATOM      4  H   UNL     1       4.082   1.263   3.010  0.00  0.00    +0.149 HD
ENDROOT
BRANCH   1   7
ATOM      5  C   UNL     1      -0.020   1.530   0.014  0.00  0.00    +0.020 C 
ATOM      6  C   UNL     1       1.417   2.056   0.003  0.00  0.00    +0.016 C 
ATOM      7  C   UNL     1       2.147   1.575   1.259  0.00  0.00    +0.092 C 
ATOM      8  C   UNL     1       2.193   0.044   1.263  0.00  0.00    +0.122 C 
ATOM      9  N   UNL     1       0.824  -0.471   1.127  0.00  0.00    -0.285 N 
ATOM     10  C   UNL     1       0.001  -0.002   0.004  0.00  0.00    +0.109 C 
ATOM     11  C   UNL     1       0.332  -1.357   2.016  0.00  0.00    +0.302 C 
ATOM     12  O   UNL     1       1.050  -1.807   2.887  0.00  0.00    -0.253 OA
ATOM     13  N   UNL     1      -0.957  -1.743   1.939  0.00  0.00    -0.296 N 
ATOM     14  H   UNL     1      -1.511  -1.442   1.201  0.00  0.00    +0.151 HD
BRANCH  13  15
ATOM     15  C   UNL     1      -1.522  -2.618   2.969  0.00  0.00    +0.075 C 
ATOM     16  C   UNL     1      -2.406  -3.778   2.504  0.00  0.00    +0.024 C 
ATOM     17  C   UNL     1      -3.035  -2.564   3.190  0.00  0.00    +0.024 C 
ENDBRANCH  13  15
ENDBRANCH   1   7
BRANCH   3  18
ATOM     18  C   UNL     1       5.751   2.357   2.287  0.00  0.00    +0.035 C 
ATOM     19  C   UNL     1       5.704   3.887   2.279  0.00  0.00    +0.029 C 
ATOM     20  C   UNL     1       7.130   4.441   2.285  0.00  0.00    -0.008 C 
ATOM     21  C   UNL     1       7.859   3.960   3.540  0.00  0.00    +0.007 C 
ATOM     22  C   UNL     1       7.907   2.430   3.548  0.00  0.00    -0.008 C 
ATOM     23  C   UNL     1       6.481   1.876   3.542  0.00  0.00    +0.029 C 
ATOM     24  C   UNL     1       8.650   1.937   2.305  0.00  0.00    +0.007 C 
ATOM     25  C   UNL     1       7.921   2.418   1.050  0.00  0.00    -0.008 C 
ATOM     26  C   UNL     1       7.873   3.948   1.042  0.00  0.00    +0.007 C 
ATOM     27  C   UNL     1       6.495   1.864   1.044  0.00  0.00    +0.029 C 
ENDBRANCH   3  18
TORSDOF 3
