REMARK  Name = ZINC28016474
REMARK  11 active torsions:
REMARK  status: ('A' for Active; 'I' for Inactive)
REMARK    1  A    between atoms: C_1  and  C_2
REMARK    2  A    between atoms: C_5  and  C_33
REMARK    3  A    between atoms: C_10  and  C_14
REMARK    4  A    between atoms: N_16  and  C_17
REMARK    5  A    between atoms: C_17  and  C_19
REMARK    6  A    between atoms: C_17  and  C_26
REMARK    7  A    between atoms: C_19  and  C_20
REMARK    8  A    between atoms: C_20  and  C_21
REMARK    9  A    between atoms: C_21  and  N_22
REMARK   10  A    between atoms: C_26  and  C_28
REMARK   11  A    between atoms: C_33  and  C_34
REMARK                            x       y       z     vdW  Elec       q    Type
REMARK                         _______ _______ _______ _____ _____    ______ ____
ROOT
ATOM      1  C   UNL     1       1.544   1.519   0.239  0.00  0.00    +0.235 C 
ATOM      2  O   UNL     1       1.659   2.724   0.319  0.00  0.00    -0.274 OA
ATOM      3  N   UNL     1       0.318   0.962   0.178  0.00  0.00    -0.304 N 
ATOM      4  H   UNL     1       0.213  -0.131   0.110  0.00  0.00    +0.149 HD
ENDROOT
BRANCH   1  13
ATOM      5  C   UNL     1       3.469   2.913   2.208  0.00  0.00    +0.044 C 
ATOM      6  C   UNL     1       4.378   1.841   1.603  0.00  0.00    +0.082 C 
ATOM      7  C   UNL     1       5.832   2.251   1.691  0.00  0.00    +0.037 C 
ATOM      8  C   UNL     1       6.625   1.801   0.465  0.00  0.00    +0.016 C 
ATOM      9  C   UNL     1       6.002   2.454  -0.779  0.00  0.00    +0.080 C 
ATOM     10  C   UNL     1       4.589   1.933  -0.897  0.00  0.00    +0.221 C 
ATOM     11  O   UNL     1       4.031   1.900  -1.974  0.00  0.00    -0.275 OA
ATOM     12  N   UNL     1       3.959   1.504   0.222  0.00  0.00    -0.274 N 
ATOM     13  C   UNL     1       2.771   0.645   0.209  0.00  0.00    +0.173 C 
ATOM     14  C   UNL     1       2.704  -0.341   1.398  0.00  0.00    +0.103 C 
ATOM     15  S   UNL     1       4.138   0.203   2.417  0.00  0.00    -0.133 S 
BRANCH   9  16
ATOM     16  C   UNL     1       6.804   2.073  -2.024  0.00  0.00    +0.048 C 
BRANCH  16  17
ATOM     17  C   UNL     1       6.261   2.815  -3.218  0.00  0.00    -0.047 A 
ATOM     18  C   UNL     1       5.256   2.253  -3.983  0.00  0.00    +0.003 A 
ATOM     19  C   UNL     1       4.754   2.936  -5.075  0.00  0.00    +0.000 A 
ATOM     20  C   UNL     1       5.264   4.176  -5.409  0.00  0.00    +0.000 A 
ATOM     21  C   UNL     1       6.273   4.736  -4.647  0.00  0.00    +0.000 A 
ATOM     22  C   UNL     1       6.771   4.056  -3.552  0.00  0.00    +0.003 A 
ENDBRANCH  16  17
ENDBRANCH   9  16
ENDBRANCH   1  13
BRANCH   3  23
ATOM     23  C   UNL     1      -0.875   1.812   0.201  0.00  0.00    +0.146 C 
BRANCH  23  24
ATOM     24  C   UNL     1      -1.175   2.294  -1.195  0.00  0.00    +0.208 C 
ATOM     25  O   UNL     1      -0.720   1.704  -2.152  0.00  0.00    -0.288 OA
BRANCH  24  26
ATOM     26  C   UNL     1      -2.016   3.475  -1.396  0.00  0.00    +0.145 A 
ATOM     27  N   UNL     1      -2.610   4.251  -0.493  0.00  0.00    -0.244 NA
ATOM     28  C   UNL     1      -3.324   5.271  -0.879  0.00  0.00    +0.119 A 
ATOM     29  C   UNL     1      -3.468   5.534  -2.213  0.00  0.00    +0.067 A 
ATOM     30  S   UNL     1      -2.527   4.256  -2.920  0.00  0.00    -0.073 S 
ENDBRANCH  24  26
ENDBRANCH  23  24
BRANCH  23  31
ATOM     31  C   UNL     1      -2.064   1.008   0.730  0.00  0.00    +0.032 C 
BRANCH  31  32
ATOM     32  C   UNL     1      -1.811   0.624   2.189  0.00  0.00    +0.023 C 
BRANCH  32  33
ATOM     33  C   UNL     1      -3.001  -0.180   2.718  0.00  0.00    +0.115 C 
BRANCH  33  34
ATOM     34  N   UNL     1      -2.759  -0.547   4.116  0.00  0.00    -0.358 N 
ATOM     35  C   UNL     1      -3.544  -0.096   5.053  0.00  0.00    +0.166 C 
ATOM     36  N   UNL     1      -4.672   0.616   4.721  0.00  0.00    -0.372 N 
ATOM     37  N   UNL     1      -3.244  -0.333   6.374  0.00  0.00    -0.372 N 
ATOM     38  H   UNL     1      -5.335   0.997   5.513  0.00  0.00    +0.159 HD
ATOM     39  H   UNL     1      -4.912   0.806   3.665  0.00  0.00    +0.159 HD
ATOM     40  H   UNL     1      -3.907   0.048   7.165  0.00  0.00    +0.159 HD
ATOM     41  H   UNL     1      -2.342  -0.903   6.639  0.00  0.00    +0.159 HD
ATOM     42  H   UNL     1      -1.915  -1.204   4.374  0.00  0.00    +0.162 HD
ENDBRANCH  33  34
ENDBRANCH  32  33
ENDBRANCH  31  32
ENDBRANCH  23  31
ENDBRANCH   3  23
TORSDOF 10
