REMARK  Name = ZINC06462196
REMARK  14 active torsions:
REMARK  status: ('A' for Active; 'I' for Inactive)
REMARK    1  A    between atoms: C_1  and  C_2
REMARK    2  A    between atoms: C_2  and  C_3
REMARK    3  A    between atoms: C_3  and  C_4
REMARK    4  A    between atoms: C_3  and  C_5
REMARK    5  A    between atoms: C_3  and  N_6
REMARK    6  A    between atoms: C_7  and  C_9
REMARK    7  A    between atoms: C_9  and  C_11
REMARK    8  A    between atoms: C_9  and  N_18
REMARK    9  A    between atoms: C_14  and  O_17
REMARK   10  A    between atoms: N_18  and  C_19
REMARK   11  A    between atoms: C_19  and  C_20
REMARK   12  A    between atoms: C_25  and  C_27
REMARK   13  A    between atoms: C_28  and  N_35
REMARK   14  A    between atoms: C_29  and  C_32
REMARK                            x       y       z     vdW  Elec       q    Type
REMARK                         _______ _______ _______ _____ _____    ______ ____
ROOT
ATOM      1  N   UNL     1       4.447   1.084  -0.316  0.00  0.00    -0.277 N 
ATOM      2  C   UNL     1       3.589   0.768  -1.306  0.00  0.00    +0.258 C 
ATOM      3  O   UNL     1       3.851  -0.140  -2.073  0.00  0.00    -0.269 OA
ENDROOT
BRANCH   2   4
ATOM      4  C   UNL     1       2.340   1.518  -1.460  0.00  0.00    +0.115 A 
ATOM      5  C   UNL     1       1.369   1.425  -2.459  0.00  0.00    +0.076 A 
ATOM      6  C   UNL     1       0.312   2.313  -2.260  0.00  0.00    +0.155 A 
ATOM      7  N   UNL     1       0.327   3.107  -1.213  0.00  0.00    -0.203 NA
ATOM      8  S   UNL     1       1.654   2.792  -0.422  0.00  0.00    +0.019 S 
BRANCH   6   9
ATOM      9  C   UNL     1      -0.811   2.360  -3.215  0.00  0.00    +0.262 C 
ATOM     10  O   UNL     1      -0.818   1.622  -4.181  0.00  0.00    -0.269 OA
ATOM     11  N   UNL     1      -1.829   3.220  -3.015  0.00  0.00    -0.324 N 
ATOM     12  H   UNL     1      -1.823   3.808  -2.244  0.00  0.00    +0.145 HD
ATOM     13  H   UNL     1      -2.568   3.251  -3.644  0.00  0.00    +0.145 HD
ENDBRANCH   6   9
BRANCH   5  14
ATOM     14  N   UNL     1       1.448   0.547  -3.531  0.00  0.00    -0.355 N 
ATOM     15  H   UNL     1       0.741   0.527  -4.195  0.00  0.00    +0.142 HD
ATOM     16  H   UNL     1       2.210  -0.048  -3.616  0.00  0.00    +0.142 HD
ENDBRANCH   5  14
ENDBRANCH   2   4
BRANCH   1  17
ATOM     17  C   UNL     1       5.761   0.440  -0.253  0.00  0.00    +0.193 C 
BRANCH  17  18
ATOM     18  C   UNL     1       6.666   1.041  -1.297  0.00  0.00    -0.018 A 
ATOM     19  C   UNL     1       6.712   2.413  -1.464  0.00  0.00    +0.009 A 
ATOM     20  C   UNL     1       7.545   2.967  -2.417  0.00  0.00    +0.046 A 
ATOM     21  C   UNL     1       8.327   2.144  -3.215  0.00  0.00    +0.117 A 
ATOM     22  C   UNL     1       8.275   0.768  -3.049  0.00  0.00    +0.046 A 
ATOM     23  C   UNL     1       7.445   0.220  -2.091  0.00  0.00    +0.009 A 
BRANCH  21  24
ATOM     24  O   UNL     1       9.143   2.687  -4.157  0.00  0.00    -0.507 OA
ATOM     25  H   UNL     1       8.725   2.797  -5.022  0.00  0.00    +0.292 HD
ENDBRANCH  21  24
ENDBRANCH  17  18
BRANCH  17  27
ATOM     26  N   UNL     1       7.649   0.333   1.342  0.00  0.00    -0.308 N 
ATOM     27  C   UNL     1       6.360   0.653   1.114  0.00  0.00    +0.239 C 
ATOM     28  O   UNL     1       5.682   1.113   2.008  0.00  0.00    -0.273 OA
ATOM     29  H   UNL     1       8.210   0.028   0.612  0.00  0.00    +0.149 HD
BRANCH  26  30
ATOM     30  C   UNL     1       8.202   0.443   2.694  0.00  0.00    +0.029 C 
ATOM     31  C   UNL     1       8.012   1.872   3.208  0.00  0.00    +0.031 C 
ATOM     32  C   UNL     1       7.479  -0.534   3.623  0.00  0.00    +0.031 C 
BRANCH  30  34
ATOM     33  C   UNL     1      10.273   0.223   4.075  0.00  0.00    +0.006 C 
ATOM     34  C   UNL     1       9.695   0.107   2.663  0.00  0.00    +0.022 C 
ENDBRANCH  30  34
ENDBRANCH  26  30
ENDBRANCH  17  27
ENDBRANCH   1  17
BRANCH   1  35
ATOM     35  C   UNL     1       4.066   2.071   0.697  0.00  0.00    +0.151 C 
BRANCH  35  36
ATOM     36  C   UNL     1       3.183   1.418   1.728  0.00  0.00    +0.007 A 
ATOM     37  C   UNL     1       3.504   0.970   2.967  0.00  0.00    +0.013 A 
ATOM     38  C   UNL     1       2.519   0.398   3.749  0.00  0.00    +0.008 A 
ATOM     39  C   UNL     1       1.261   0.301   3.256  0.00  0.00    +0.045 A 
ATOM     40  S   UNL     1       1.440   1.038   1.640  0.00  0.00    -0.100 S 
ENDBRANCH  35  36
ENDBRANCH   1  35
TORSDOF 11
