REMARK  Name = ZINC09311867
REMARK  3 active torsions:
REMARK  status: ('A' for Active; 'I' for Inactive)
REMARK    1  A    between atoms: C_1  and  S_2
REMARK    2  A    between atoms: S_2  and  C_3
REMARK    3  A    between atoms: C_9  and  C_17
REMARK                            x       y       z     vdW  Elec       q    Type
REMARK                         _______ _______ _______ _____ _____    ______ ____
ROOT
ATOM      1  C   UNL     1       0.835  -0.427   1.498  0.00  0.00    +0.192 A 
ATOM      2  N   UNL     1       0.990  -1.700   1.795  0.00  0.00    -0.220 NA
ATOM      3  C   UNL     1       1.752  -2.089   2.842  0.00  0.00    +0.096 A 
ATOM      4  C   UNL     1       2.022  -3.463   3.305  0.00  0.00    +0.037 A 
ATOM      5  C   UNL     1       1.535  -4.671   2.753  0.00  0.00    -0.030 A 
ATOM      6  C   UNL     1       1.893  -5.860   3.315  0.00  0.00    -0.018 A 
ATOM      7  C   UNL     1       2.736  -5.878   4.433  0.00  0.00    +0.076 A 
ATOM      8  N   UNL     1       3.187  -4.742   4.948  0.00  0.00    -0.239 NA
ATOM      9  C   UNL     1       2.861  -3.579   4.429  0.00  0.00    +0.112 A 
ATOM     10  S   UNL     1       3.267  -1.902   4.848  0.00  0.00    -0.062 S 
ATOM     11  C   UNL     1       2.359  -1.064   3.578  0.00  0.00    +0.106 A 
ATOM     12  C   UNL     1       2.175   0.267   3.237  0.00  0.00    +0.288 A 
ATOM     13  N   UNL     1       1.409   0.552   2.187  0.00  0.00    -0.182 NA
ATOM     14  O   UNL     1       2.764   1.254   3.955  0.00  0.00    -0.265 OA
ATOM     15  C   UNL     1       1.253  -7.002   2.554  0.00  0.00    +0.038 C 
ATOM     16  C   UNL     1       0.120  -6.352   1.730  0.00  0.00    +0.009 C 
ATOM     17  C   UNL     1       0.626  -4.902   1.568  0.00  0.00    +0.036 C 
ENDROOT
BRANCH   7  18
ATOM     18  C   UNL     1       3.125  -7.171   5.043  0.00  0.00    +0.001 A 
ATOM     19  C   UNL     1       3.475  -8.250   4.232  0.00  0.00    +0.010 A 
ATOM     20  C   UNL     1       3.837  -9.452   4.806  0.00  0.00    +0.001 A 
ATOM     21  C   UNL     1       3.853  -9.588   6.183  0.00  0.00    +0.000 A 
ATOM     22  C   UNL     1       3.506  -8.521   6.992  0.00  0.00    +0.001 A 
ATOM     23  C   UNL     1       3.148  -7.312   6.429  0.00  0.00    +0.010 A 
ENDBRANCH   7  18
BRANCH   1  25
ATOM     24  C   UNL     1      -0.107   1.810   0.066  0.00  0.00    +0.093 C 
ATOM     25  S   UNL     1      -0.174  -0.002   0.118  0.00  0.00    -0.089 S 
ENDBRANCH   1  25
TORSDOF 2
