REMARK  Name = ZINC08725905
REMARK  10 active torsions:
REMARK  status: ('A' for Active; 'I' for Inactive)
REMARK    1  A    between atoms: C_1  and  C_2
REMARK    2  A    between atoms: C_5  and  C_36
REMARK    3  A    between atoms: C_6  and  N_8
REMARK    4  A    between atoms: C_9  and  C_11
REMARK    5  A    between atoms: C_11  and  C_13
REMARK    6  A    between atoms: C_11  and  S_19
REMARK    7  A    between atoms: S_19  and  C_20
REMARK    8  A    between atoms: C_23  and  C_31
REMARK    9  A    between atoms: N_24  and  C_25
REMARK   10  A    between atoms: C_31  and  N_67
REMARK                            x       y       z     vdW  Elec       q    Type
REMARK                         _______ _______ _______ _____ _____    ______ ____
ROOT
ATOM      1  C   UNL     1      -4.882   1.389   0.283  0.00  0.00    +0.170 C 
ENDROOT
BRANCH   1   2
ATOM      2  C   UNL     1      -5.289   0.872  -1.073  0.00  0.00    -0.025 A 
ATOM      3  C   UNL     1      -5.553   1.759  -2.100  0.00  0.00    +0.005 A 
ATOM      4  C   UNL     1      -5.921   1.285  -3.345  0.00  0.00    +0.000 A 
ATOM      5  C   UNL     1      -6.037  -0.075  -3.560  0.00  0.00    +0.000 A 
ATOM      6  C   UNL     1      -5.778  -0.962  -2.532  0.00  0.00    +0.000 A 
ATOM      7  C   UNL     1      -5.405  -0.488  -1.288  0.00  0.00    +0.005 A 
ENDBRANCH   1   2
BRANCH   1   9
ATOM      8  N   UNL     1      -2.422   1.542   0.082  0.00  0.00    -0.284 N 
ATOM      9  C   UNL     1      -3.606   2.180   0.157  0.00  0.00    +0.235 C 
ATOM     10  O   UNL     1      -3.646   3.392   0.123  0.00  0.00    -0.274 OA
ATOM     11  H   UNL     1      -2.395   0.574   0.026  0.00  0.00    +0.155 HD
BRANCH   8  17
ATOM     12  C   UNL     1       0.025   5.637   1.274  0.00  0.00    +0.044 C 
ATOM     13  C   UNL     1      -0.016   4.263   0.655  0.00  0.00    -0.049 A 
ATOM     14  C   UNL     1       1.124   3.729   0.083  0.00  0.00    +0.004 A 
ATOM     15  C   UNL     1       1.091   2.470  -0.487  0.00  0.00    +0.005 A 
ATOM     16  C   UNL     1      -0.083   1.741  -0.485  0.00  0.00    -0.029 A 
ATOM     17  C   UNL     1      -1.230   2.276   0.084  0.00  0.00    +0.037 A 
ATOM     18  C   UNL     1      -1.192   3.539   0.659  0.00  0.00    +0.027 A 
ATOM     19  C   UNL     1      -0.118   0.368  -1.107  0.00  0.00    +0.045 C 
ENDBRANCH   8  17
ENDBRANCH   1   9
BRANCH   1  20
ATOM     20  S   UNL     1      -6.190   2.453   0.941  0.00  0.00    -0.068 S 
BRANCH  20  21
ATOM     21  C   UNL     1      -7.484   1.270   1.124  0.00  0.00    +0.197 A 
ATOM     22  N   UNL     1      -7.419  -0.009   0.836  0.00  0.00    -0.122 NA
ATOM     23  N   UNL     1      -8.545  -0.573   1.093  0.00  0.00    -0.135 NA
ATOM     24  C   UNL     1      -9.390   0.303   1.557  0.00  0.00    +0.122 A 
ATOM     25  N   UNL     1      -8.744   1.510   1.600  0.00  0.00    -0.276 N 
BRANCH  25  26
ATOM     26  C   UNL     1      -9.266   2.736   2.037  0.00  0.00    +0.050 A 
ATOM     27  C   UNL     1      -9.542   2.934   3.383  0.00  0.00    +0.026 A 
ATOM     28  C   UNL     1     -10.050   4.144   3.811  0.00  0.00    +0.002 A 
ATOM     29  C   UNL     1     -10.296   5.154   2.899  0.00  0.00    +0.000 A 
ATOM     30  C   UNL     1     -10.027   4.958   1.557  0.00  0.00    +0.002 A 
ATOM     31  C   UNL     1      -9.513   3.752   1.124  0.00  0.00    +0.026 A 
ENDBRANCH  25  26
BRANCH  24  32
ATOM     32  C   UNL     1     -10.813   0.036   1.975  0.00  0.00    -0.001 C 
BRANCH  32  37
ATOM     33  C   UNL     1     -11.132  -0.691  -0.327  0.00  0.00    -0.078 C 
ATOM     34  C   UNL     1     -12.366  -0.943  -1.229  0.00  0.00    -0.020 C 
ATOM     35  C   UNL     1     -13.504  -1.162  -0.206  0.00  0.00    -0.020 C 
ATOM     36  C   UNL     1     -13.014  -0.488   1.090  0.00  0.00    -0.078 C 
ATOM     37  N   UNL     1     -11.707   0.091   0.779  0.00  0.00    +0.384 N 
ATOM     38  H   UNL     1     -11.821   1.070   0.489  0.00  0.00    -0.081 HD
ENDBRANCH  32  37
ENDBRANCH  24  32
ENDBRANCH  20  21
ENDBRANCH   1  20
TORSDOF 8
