REMARK  Name = ZINC09242865
REMARK  7 active torsions:
REMARK  status: ('A' for Active; 'I' for Inactive)
REMARK    1  A    between atoms: C_1  and  C_2
REMARK    2  A    between atoms: C_4  and  N_35
REMARK    3  A    between atoms: C_5  and  O_33
REMARK    4  A    between atoms: C_7  and  N_8
REMARK    5  A    between atoms: C_13  and  C_29
REMARK    6  A    between atoms: C_29  and  C_30
REMARK    7  A    between atoms: O_33  and  C_34
REMARK                            x       y       z     vdW  Elec       q    Type
REMARK                         _______ _______ _______ _____ _____    ______ ____
ROOT
ATOM      1  N   UNL     1       2.829   1.009  -1.648  0.00  0.00    -0.210 N 
ATOM      2  C   UNL     1       3.060   0.222  -0.591  0.00  0.00    +0.228 C 
ATOM      3  O   UNL     1       3.818  -0.724  -0.574  0.00  0.00    -0.275 OA
ATOM      4  C   UNL     1       2.227   0.695   0.579  0.00  0.00    +0.074 C 
ATOM      5  C   UNL     1       1.142  -0.356   0.891  0.00  0.00    -0.049 C 
ATOM      6  C   UNL     1      -0.018   1.471   0.010  0.00  0.00    +0.050 C 
ATOM      7  C   UNL     1       1.451   1.911  -0.002  0.00  0.00    +0.088 C 
ATOM      8  C   UNL     1       1.946   1.990  -1.429  0.00  0.00    +0.229 C 
ATOM      9  O   UNL     1       1.596   2.813  -2.247  0.00  0.00    -0.275 OA
ATOM     10  C   UNL     1      -0.744   2.004   1.212  0.00  0.00    -0.028 A 
ATOM     11  C   UNL     1      -0.556   1.870   2.570  0.00  0.00    +0.004 A 
ATOM     12  C   UNL     1      -1.414   2.501   3.453  0.00  0.00    +0.000 A 
ATOM     13  C   UNL     1      -2.462   3.263   2.969  0.00  0.00    +0.002 A 
ATOM     14  C   UNL     1      -2.653   3.401   1.610  0.00  0.00    +0.023 A 
ATOM     15  C   UNL     1      -1.794   2.771   0.714  0.00  0.00    +0.036 A 
ATOM     16  N   UNL     1      -1.779   2.758  -0.683  0.00  0.00    -0.286 N 
ATOM     17  C   UNL     1      -0.767   2.017  -1.174  0.00  0.00    +0.211 C 
ATOM     18  O   UNL     1      -0.509   1.828  -2.344  0.00  0.00    -0.277 OA
ATOM     19  H   UNL     1      -2.423   3.228  -1.235  0.00  0.00    +0.155 HD
ATOM     20  N   UNL     1       0.025   0.019   0.020  0.00  0.00    +0.394 N 
ATOM     21  H   UNL     1      -0.855  -0.360   0.389  0.00  0.00    -0.083 HD
ATOM     22  H   UNL     1       0.180  -0.339  -0.930  0.00  0.00    -0.083 HD
ENDROOT
BRANCH   1  29
ATOM     23  C   UNL     1       5.298   2.346  -2.111  0.00  0.00    +0.046 C 
ATOM     24  C   UNL     1       4.668   1.456  -3.152  0.00  0.00    -0.026 A 
ATOM     25  C   UNL     1       5.292   1.272  -4.371  0.00  0.00    +0.041 A 
ATOM     26  C   UNL     1       4.717   0.457  -5.328  0.00  0.00    +0.168 A 
ATOM     27  C   UNL     1       3.512  -0.180  -5.066  0.00  0.00    +0.152 A 
ATOM     28  C   UNL     1       2.886  -0.002  -3.842  0.00  0.00    +0.072 A 
ATOM     29  C   UNL     1       3.462   0.822  -2.885  0.00  0.00    +0.050 A 
BRANCH  26  30
ATOM     30  N   UNL     1       5.387   0.263  -6.633  0.00  0.00    +0.060 N 
ATOM     31  O   UNL     1       6.445   0.821  -6.864  0.00  0.00    -0.126 OA
ATOM     32  O   UNL     1       4.881  -0.456  -7.477  0.00  0.00    -0.126 OA
ENDBRANCH  26  30
BRANCH  27  33
ATOM     33  O   UNL     1       2.947  -0.981  -6.008  0.00  0.00    -0.493 OA
ATOM     34  C   UNL     1       1.706  -1.604  -5.670  0.00  0.00    +0.277 C 
ENDBRANCH  27  33
ENDBRANCH   1  29
BRANCH   5  35
ATOM     35  C   UNL     1       1.652  -1.763   0.570  0.00  0.00    +0.080 C 
BRANCH  35  36
ATOM     36  C   UNL     1       0.594  -2.775   0.927  0.00  0.00    +0.209 C 
ATOM     37  O   UNL     1      -0.464  -2.407   1.393  0.00  0.00    -0.276 OA
ATOM     38  N   UNL     1       0.823  -4.088   0.729  0.00  0.00    -0.329 N 
ATOM     39  H   UNL     1       1.669  -4.382   0.357  0.00  0.00    +0.145 HD
ATOM     40  H   UNL     1       0.142  -4.739   0.959  0.00  0.00    +0.145 HD
ENDBRANCH  35  36
ENDBRANCH   5  35
TORSDOF 5
