REMARK  Name = ZINC08825599
REMARK  9 active torsions:
REMARK  status: ('A' for Active; 'I' for Inactive)
REMARK    1  A    between atoms: C_1  and  C_2
REMARK    2  A    between atoms: C_2  and  C_3
REMARK    3  A    between atoms: C_2  and  C_4
REMARK    4  A    between atoms: C_2  and  O_26
REMARK    5  A    between atoms: N_6  and  C_7
REMARK    6  A    between atoms: C_12  and  C_13
REMARK    7  A    between atoms: N_15  and  C_16
REMARK    8  A    between atoms: C_16  and  C_17
REMARK    9  A    between atoms: O_26  and  C_27
REMARK                            x       y       z     vdW  Elec       q    Type
REMARK                         _______ _______ _______ _____ _____    ______ ____
ROOT
ATOM      1  C   UNL     1       9.161  -2.248   1.946  0.00  0.00    +0.046 A 
ATOM      2  C   UNL     1       9.798  -2.729   0.809  0.00  0.00    +0.024 A 
ATOM      3  C   UNL     1       9.071  -3.382  -0.166  0.00  0.00    +0.002 A 
ATOM      4  C   UNL     1       7.705  -3.562  -0.021  0.00  0.00    +0.001 A 
ATOM      5  C   UNL     1       7.058  -3.095   1.103  0.00  0.00    +0.015 A 
ATOM      6  C   UNL     1       7.779  -2.428   2.096  0.00  0.00    +0.058 A 
ENDROOT
BRANCH   1   9
ATOM      7  C   UNL     1      11.051  -0.977   2.615  0.00  0.00    +0.261 C 
ATOM      8  O   UNL     1      11.408  -0.914   1.457  0.00  0.00    -0.271 OA
ATOM      9  N   UNL     1       9.893  -1.589   2.931  0.00  0.00    -0.282 N 
ATOM     10  H   UNL     1       9.568  -1.570   3.845  0.00  0.00    +0.155 HD
BRANCH   7  12
ATOM     11  C   UNL     1      11.105   0.707   4.434  0.00  0.00    +0.065 C 
ATOM     12  C   UNL     1      11.904  -0.372   3.700  0.00  0.00    +0.180 C 
ATOM     13  C   UNL     1      12.320  -1.462   4.690  0.00  0.00    +0.065 C 
BRANCH  12  14
ATOM     14  O   UNL     1      13.071   0.213   3.118  0.00  0.00    -0.477 OA
BRANCH  14  15
ATOM     15  C   UNL     1      12.876   1.208   2.212  0.00  0.00    +0.122 A 
ATOM     16  C   UNL     1      11.591   1.539   1.810  0.00  0.00    +0.047 A 
ATOM     17  C   UNL     1      11.395   2.553   0.892  0.00  0.00    +0.023 A 
ATOM     18  C   UNL     1      12.480   3.232   0.368  0.00  0.00    +0.041 A 
ATOM     19  C   UNL     1      13.764   2.900   0.764  0.00  0.00    +0.023 A 
ATOM     20  C   UNL     1      13.963   1.889   1.685  0.00  0.00    +0.047 A 
ATOM     21 CL   UNL     1      12.232   4.502  -0.789  0.00  0.00    -0.084 Cl
ENDBRANCH  14  15
ENDBRANCH  12  14
ENDBRANCH   7  12
ENDBRANCH   1   9
BRANCH   6  22
ATOM     22  C   UNL     1       7.091  -1.922   3.299  0.00  0.00    +0.246 C 
ATOM     23  O   UNL     1       7.700  -1.254   4.112  0.00  0.00    -0.270 OA
ATOM     24  N   UNL     1       5.787  -2.199   3.496  0.00  0.00    -0.307 N 
ATOM     25  H   UNL     1       5.301  -2.732   2.848  0.00  0.00    +0.149 HD
BRANCH  24  26
ATOM     26  C   UNL     1       5.104  -1.697   4.691  0.00  0.00    +0.140 C 
BRANCH  26  27
ATOM     27  C   UNL     1       3.665  -2.144   4.672  0.00  0.00    -0.027 A 
ATOM     28  C   UNL     1       3.308  -3.345   5.256  0.00  0.00    +0.009 A 
ATOM     29  C   UNL     1       1.990  -3.760   5.241  0.00  0.00    +0.050 A 
ATOM     30  C   UNL     1       1.021  -2.971   4.641  0.00  0.00    +0.166 A 
ATOM     31  C   UNL     1       1.380  -1.761   4.053  0.00  0.00    +0.167 A 
ATOM     32  C   UNL     1       2.704  -1.352   4.072  0.00  0.00    +0.054 A 
ATOM     33  O   UNL     1       0.260  -1.178   3.536  0.00  0.00    -0.453 OA
ATOM     34  C   UNL     1      -0.848  -1.845   4.169  0.00  0.00    +0.466 C 
ATOM     35  O   UNL     1      -0.324  -3.147   4.492  0.00  0.00    -0.453 OA
ENDBRANCH  26  27
ENDBRANCH  24  26
ENDBRANCH   6  22
TORSDOF 7
