REMARK  Name = ZINC08757822
REMARK  13 active torsions:
REMARK  status: ('A' for Active; 'I' for Inactive)
REMARK    1  A    between atoms: C_1  and  C_2
REMARK    2  A    between atoms: C_2  and  N_3
REMARK    3  A    between atoms: C_5  and  C_12
REMARK    4  A    between atoms: C_13  and  C_14
REMARK    5  A    between atoms: C_13  and  N_31
REMARK    6  A    between atoms: N_16  and  C_17
REMARK    7  A    between atoms: C_17  and  C_18
REMARK    8  A    between atoms: C_18  and  C_19
REMARK    9  A    between atoms: C_26  and  O_29
REMARK   10  A    between atoms: O_29  and  C_30
REMARK   11  A    between atoms: C_32  and  C_34
REMARK   12  A    between atoms: C_39  and  O_40
REMARK   13  A    between atoms: O_40  and  C_41
REMARK                            x       y       z     vdW  Elec       q    Type
REMARK                         _______ _______ _______ _____ _____    ______ ____
ROOT
ATOM      1  C   UNL     1       9.595   1.700  -3.918  0.00  0.00    +0.038 C 
ATOM      2  C   UNL     1       8.933   1.415  -2.768  0.00  0.00    +0.097 C 
ENDROOT
BRANCH   1   5
ATOM      3  N   UNL     1      13.122   2.238  -3.159  0.00  0.00    -0.346 N 
ATOM      4  C   UNL     1      11.847   1.947  -2.790  0.00  0.00    +0.094 A 
ATOM      5  C   UNL     1      11.036   1.962  -3.889  0.00  0.00    +0.002 A 
ATOM      6  C   UNL     1      11.898   2.287  -5.040  0.00  0.00    +0.007 A 
ATOM      7  C   UNL     1      13.191   2.455  -4.519  0.00  0.00    +0.050 A 
ATOM      8  C   UNL     1      14.236   2.776  -5.379  0.00  0.00    +0.026 A 
ATOM      9  C   UNL     1      13.995   2.933  -6.727  0.00  0.00    +0.002 A 
ATOM     10  C   UNL     1      12.716   2.774  -7.239  0.00  0.00    +0.001 A 
ATOM     11  C   UNL     1      11.667   2.454  -6.403  0.00  0.00    +0.010 A 
BRANCH   3  13
ATOM     12  C   UNL     1      14.476   3.763  -1.809  0.00  0.00    +0.027 C 
ATOM     13  C   UNL     1      14.261   2.311  -2.241  0.00  0.00    +0.118 C 
ENDBRANCH   3  13
ENDBRANCH   1   5
BRANCH   2  14
ATOM     14  C   UNL     1       7.476   1.269  -2.779  0.00  0.00    +0.258 C 
ATOM     15  O   UNL     1       6.858   1.406  -3.819  0.00  0.00    -0.269 OA
ATOM     16  N   UNL     1       6.819   0.983  -1.637  0.00  0.00    -0.310 N 
ATOM     17  H   UNL     1       7.316   0.810  -0.822  0.00  0.00    +0.149 HD
BRANCH  16  18
ATOM     18  C   UNL     1       5.355   0.934  -1.627  0.00  0.00    +0.109 C 
BRANCH  18  19
ATOM     19  C   UNL     1       4.866   0.591  -0.218  0.00  0.00    +0.056 C 
BRANCH  19  20
ATOM     20  C   UNL     1       3.360   0.541  -0.208  0.00  0.00    -0.021 A 
ATOM     21  C   UNL     1       2.530   1.539   0.132  0.00  0.00    +0.087 A 
ATOM     22  N   UNL     1       1.231   1.125   0.020  0.00  0.00    -0.360 N 
ATOM     23  H   UNL     1       0.453   1.672   0.212  0.00  0.00    +0.165 HD
ATOM     24  C   UNL     1       1.192  -0.186  -0.406  0.00  0.00    +0.047 A 
ATOM     25  C   UNL     1       2.524  -0.608  -0.567  0.00  0.00    +0.006 A 
ATOM     26  C   UNL     1       2.797  -1.909  -0.996  0.00  0.00    +0.056 A 
ATOM     27  C   UNL     1       1.754  -2.773  -1.259  0.00  0.00    +0.121 A 
ATOM     28  C   UNL     1       0.436  -2.352  -1.099  0.00  0.00    +0.047 A 
ATOM     29  C   UNL     1       0.155  -1.072  -0.677  0.00  0.00    +0.030 A 
BRANCH  27  30
ATOM     30  O   UNL     1       2.013  -4.041  -1.677  0.00  0.00    -0.495 OA
ATOM     31  C   UNL     1       0.887  -4.884  -1.931  0.00  0.00    +0.277 C 
ENDBRANCH  27  30
ENDBRANCH  19  20
ENDBRANCH  18  19
ENDBRANCH  16  18
ENDBRANCH   2  14
BRANCH   2  32
ATOM     32  N   UNL     1       9.644   1.260  -1.569  0.00  0.00    -0.277 N 
ATOM     33  C   UNL     1       9.385   2.068  -0.522  0.00  0.00    +0.252 C 
ATOM     34  O   UNL     1       8.478   2.876  -0.588  0.00  0.00    -0.270 OA
ATOM     35  H   UNL     1      10.323   0.572  -1.494  0.00  0.00    +0.155 HD
BRANCH  33  36
ATOM     36  C   UNL     1      10.200   1.972   0.703  0.00  0.00    +0.079 A 
ATOM     37  C   UNL     1      11.238   1.041   0.785  0.00  0.00    +0.017 A 
ATOM     38  C   UNL     1      11.999   0.959   1.931  0.00  0.00    +0.001 A 
ATOM     39  C   UNL     1      11.732   1.790   3.008  0.00  0.00    +0.004 A 
ATOM     40  C   UNL     1      10.706   2.711   2.942  0.00  0.00    +0.046 A 
ATOM     41  C   UNL     1       9.933   2.810   1.795  0.00  0.00    +0.132 A 
BRANCH  41  42
ATOM     42  O   UNL     1       8.923   3.713   1.729  0.00  0.00    -0.494 OA
ATOM     43  C   UNL     1       8.711   4.534   2.880  0.00  0.00    +0.277 C 
ENDBRANCH  41  42
ENDBRANCH  33  36
ENDBRANCH   2  32
TORSDOF 10
