REMARK  Name = ZINC06496383
REMARK  4 active torsions:
REMARK  status: ('A' for Active; 'I' for Inactive)
REMARK    1  A    between atoms: C_8  and  C_11
REMARK    2  A    between atoms: N_15  and  N_19
REMARK    3  A    between atoms: C_20  and  C_22
REMARK    4  A    between atoms: C_27  and  O_28
REMARK                            x       y       z     vdW  Elec       q    Type
REMARK                         _______ _______ _______ _____ _____    ______ ____
ROOT
ATOM      1  C   UNL     1      -6.543  -1.914  -1.977  0.00  0.00    +0.027 C 
ATOM      2  C   UNL     1      -5.596  -1.699  -1.018  0.00  0.00    +0.078 C 
ATOM      3  C   UNL     1      -4.481  -0.735  -0.998  0.00  0.00    +0.275 C 
ATOM      4  O   UNL     1      -4.283   0.031  -1.923  0.00  0.00    -0.267 OA
ATOM      5  N   UNL     1      -3.705  -0.746   0.073  0.00  0.00    -0.169 N 
ATOM      6  C   UNL     1      -3.931  -1.593   1.098  0.00  0.00    +0.138 C 
ATOM      7  S   UNL     1      -3.052  -1.754   2.558  0.00  0.00    -0.026 S 
ATOM      8  S   UNL     1      -5.370  -2.505   0.562  0.00  0.00    -0.060 S 
ENDROOT
BRANCH   1  16
ATOM      9  C   UNL     1     -11.408  -5.454  -3.006  0.00  0.00    +0.001 A 
ATOM     10  C   UNL     1     -11.724  -5.640  -1.670  0.00  0.00    +0.004 A 
ATOM     11  C   UNL     1     -10.998  -5.005  -0.679  0.00  0.00    +0.046 A 
ATOM     12  C   UNL     1      -9.946  -4.175  -1.020  0.00  0.00    +0.128 A 
ATOM     13  C   UNL     1      -9.623  -3.984  -2.375  0.00  0.00    +0.017 A 
ATOM     14  C   UNL     1     -10.361  -4.630  -3.366  0.00  0.00    +0.011 A 
ATOM     15  C   UNL     1      -8.499  -3.098  -2.709  0.00  0.00    +0.018 C 
ATOM     16  C   UNL     1      -7.627  -2.774  -1.715  0.00  0.00    -0.009 C 
ATOM     17  C   UNL     1      -7.823  -3.347  -0.336  0.00  0.00    +0.264 C 
ATOM     18  O   UNL     1      -9.216  -3.537  -0.071  0.00  0.00    -0.487 OA
ENDBRANCH   1  16
BRANCH   5  19
ATOM     19  N   UNL     1      -2.627   0.146   0.146  0.00  0.00    -0.222 N 
ATOM     20  C   UNL     1      -1.369  -0.302  -0.034  0.00  0.00    +0.264 C 
ATOM     21  O   UNL     1      -1.169  -1.480  -0.259  0.00  0.00    -0.269 OA
ATOM     22  H   UNL     1      -2.786   1.085   0.326  0.00  0.00    +0.174 HD
BRANCH  20  23
ATOM     23  C   UNL     1      -0.233   0.637   0.043  0.00  0.00    +0.079 A 
ATOM     24  C   UNL     1      -0.458   1.991   0.303  0.00  0.00    +0.017 A 
ATOM     25  C   UNL     1       0.607   2.863   0.373  0.00  0.00    +0.001 A 
ATOM     26  C   UNL     1       1.900   2.403   0.188  0.00  0.00    +0.004 A 
ATOM     27  C   UNL     1       2.137   1.067  -0.069  0.00  0.00    +0.046 A 
ATOM     28  C   UNL     1       1.077   0.175  -0.143  0.00  0.00    +0.129 A 
BRANCH  28  29
ATOM     29  O   UNL     1       1.308  -1.137  -0.395  0.00  0.00    -0.506 OA
ATOM     30  H   UNL     1       1.305  -1.364  -1.335  0.00  0.00    +0.292 HD
ENDBRANCH  28  29
ENDBRANCH  20  23
ENDBRANCH   5  19
TORSDOF 4
