REMARK  Name = ZINC45669542
REMARK  10 active torsions:
REMARK  status: ('A' for Active; 'I' for Inactive)
REMARK    1  A    between atoms: C_1  and  C_2
REMARK    2  A    between atoms: C_4  and  N_23
REMARK    3  A    between atoms: C_6  and  C_7
REMARK    4  A    between atoms: C_7  and  O_9
REMARK    5  A    between atoms: O_9  and  C_10
REMARK    6  A    between atoms: C_10  and  C_12
REMARK    7  A    between atoms: C_10  and  C_18
REMARK    8  A    between atoms: N_20  and  C_21
REMARK    9  A    between atoms: N_20  and  C_22
REMARK   10  A    between atoms: C_24  and  C_26
REMARK                            x       y       z     vdW  Elec       q    Type
REMARK                         _______ _______ _______ _____ _____    ______ ____
ROOT
ATOM      1  C   UNL     1       0.080   2.032  -0.132  0.00  0.00    +0.045 C 
ATOM      2  C   UNL     1      -0.227   0.557  -0.172  0.00  0.00    -0.028 A 
ATOM      3  C   UNL     1      -0.482  -0.101  -1.345  0.00  0.00    +0.035 A 
ATOM      4  C   UNL     1      -0.754  -1.450  -1.300  0.00  0.00    +0.073 A 
ATOM      5  S   UNL     1      -0.665  -1.831   0.334  0.00  0.00    -0.067 S 
ATOM      6  C   UNL     1      -0.263  -0.219   0.981  0.00  0.00    +0.101 A 
ENDROOT
BRANCH   4   7
ATOM      7  N   UNL     1      -1.037  -2.299  -2.360  0.00  0.00    -0.273 N 
ATOM      8  C   UNL     1      -1.282  -3.605  -2.131  0.00  0.00    +0.284 C 
ATOM      9  O   UNL     1      -1.254  -4.039  -0.994  0.00  0.00    -0.266 OA
ATOM     10  H   UNL     1      -1.059  -1.954  -3.266  0.00  0.00    +0.156 HD
BRANCH   8  11
ATOM     11  C   UNL     1      -1.581  -4.502  -3.251  0.00  0.00    +0.189 A 
ATOM     12  C   UNL     1      -1.851  -5.838  -3.159  0.00  0.00    +0.054 A 
ATOM     13  C   UNL     1      -2.078  -6.295  -4.467  0.00  0.00    +0.042 A 
ATOM     14  C   UNL     1      -1.937  -5.232  -5.289  0.00  0.00    +0.196 A 
ATOM     15  O   UNL     1      -1.643  -4.152  -4.552  0.00  0.00    -0.458 OA
ENDBRANCH   8  11
ENDBRANCH   4   7
BRANCH   6  16
ATOM     16  C   UNL     1      -0.039   0.170   2.324  0.00  0.00    +0.347 C 
ATOM     17  O   UNL     1       0.227   1.329   2.585  0.00  0.00    -0.244 OA
BRANCH  16  18
ATOM     18  O   UNL     1      -0.120  -0.744   3.314  0.00  0.00    -0.443 OA
BRANCH  18  19
ATOM     19  C   UNL     1       0.117  -0.281   4.645  0.00  0.00    +0.292 C 
BRANCH  19  20
ATOM     20  C   UNL     1      -0.679  -1.114   5.616  0.00  0.00    +0.002 A 
ATOM     21  C   UNL     1      -0.691  -2.491   5.497  0.00  0.00    +0.008 A 
ATOM     22  C   UNL     1      -1.422  -3.255   6.388  0.00  0.00    +0.000 A 
ATOM     23  C   UNL     1      -2.139  -2.642   7.398  0.00  0.00    +0.000 A 
ATOM     24  C   UNL     1      -2.127  -1.264   7.517  0.00  0.00    +0.000 A 
ATOM     25  C   UNL     1      -1.393  -0.501   6.629  0.00  0.00    +0.008 A 
ENDBRANCH  19  20
BRANCH  19  26
ATOM     26  C   UNL     1       1.585  -0.402   4.964  0.00  0.00    +0.261 C 
ATOM     27  O   UNL     1       2.301  -1.094   4.272  0.00  0.00    -0.271 OA
ATOM     28  N   UNL     1       2.102   0.258   6.019  0.00  0.00    -0.304 N 
ATOM     29  C   UNL     1       3.545   0.226   6.267  0.00  0.00    +0.131 C 
ATOM     30  C   UNL     1       1.220   1.007   6.918  0.00  0.00    +0.131 C 
ENDBRANCH  19  26
ENDBRANCH  18  19
ENDBRANCH  16  18
ENDBRANCH   6  16
TORSDOF 7
