REMARK  Name = ZINC21874766
REMARK  8 active torsions:
REMARK  status: ('A' for Active; 'I' for Inactive)
REMARK    1  A    between atoms: C_1  and  C_2
REMARK    2  A    between atoms: C_5  and  N_9
REMARK    3  A    between atoms: C_6  and  C_8
REMARK    4  A    between atoms: C_10  and  C_12
REMARK    5  A    between atoms: C_18  and  C_23
REMARK    6  A    between atoms: C_18  and  C_24
REMARK    7  A    between atoms: N_19  and  C_22
REMARK    8  A    between atoms: N_26  and  C_27
REMARK                            x       y       z     vdW  Elec       q    Type
REMARK                         _______ _______ _______ _____ _____    ______ ____
ROOT
ATOM      1  C   UNL     1       1.562   2.203  -0.212  0.00  0.00    +0.148 A 
ATOM      2  C   UNL     1       0.454   1.387   0.111  0.00  0.00    +0.067 A 
ATOM      3  C   UNL     1      -0.592   2.238   0.220  0.00  0.00    +0.124 A 
ATOM      4  N   UNL     1      -0.116   3.511  -0.023  0.00  0.00    -0.256 N 
ATOM      5  N   UNL     1       1.133   3.454  -0.272  0.00  0.00    -0.166 NA
ATOM      6  C   UNL     1      -1.011   4.673   0.021  0.00  0.00    +0.179 C 
ATOM      7  C   UNL     1      -2.419   4.242  -0.385  0.00  0.00    +0.130 C 
ATOM      8  N   UNL     1      -2.857   3.033   0.302  0.00  0.00    -0.284 N 
ATOM      9  C   UNL     1      -2.009   2.004   0.546  0.00  0.00    +0.265 C 
ATOM     10  O   UNL     1      -2.397   0.946   1.003  0.00  0.00    -0.268 OA
ATOM     11  C   UNL     1      -4.251   2.927   0.742  0.00  0.00    +0.133 C 
ATOM     12  C   UNL     1      -2.441   3.985  -1.893  0.00  0.00    +0.044 C 
ENDROOT
BRANCH   1  14
ATOM     13  N   UNL     1       3.912   2.634  -0.744  0.00  0.00    -0.280 N 
ATOM     14  C   UNL     1       2.947   1.743  -0.441  0.00  0.00    +0.268 C 
ATOM     15  O   UNL     1       3.217   0.561  -0.356  0.00  0.00    -0.268 OA
ATOM     16  H   UNL     1       3.649   3.685  -0.936  0.00  0.00    +0.155 HD
BRANCH  13  21
ATOM     17  C   UNL     1       9.326   0.967  -1.028  0.00  0.00    +0.044 C 
ATOM     18  C   UNL     1       7.888   1.410  -0.953  0.00  0.00    -0.050 A 
ATOM     19  C   UNL     1       6.973   0.662  -0.235  0.00  0.00    +0.005 A 
ATOM     20  C   UNL     1       5.655   1.068  -0.159  0.00  0.00    +0.024 A 
ATOM     21  C   UNL     1       5.247   2.223  -0.815  0.00  0.00    +0.037 A 
ATOM     22  C   UNL     1       6.168   2.971  -1.535  0.00  0.00    -0.029 A 
ATOM     23  C   UNL     1       7.486   2.563  -1.602  0.00  0.00    +0.008 A 
ATOM     24  C   UNL     1       5.731   4.228  -2.242  0.00  0.00    +0.045 C 
ENDBRANCH  13  21
ENDBRANCH   1  14
BRANCH   7  25
ATOM     25  C   UNL     1      -3.381   5.357  -0.067  0.00  0.00    +0.238 C 
ATOM     26  O   UNL     1      -3.840   6.035  -0.962  0.00  0.00    -0.273 OA
ATOM     27  N   UNL     1      -3.731   5.603   1.211  0.00  0.00    -0.311 N 
ATOM     28  H   UNL     1      -3.250   5.046   2.029  0.00  0.00    +0.149 HD
BRANCH  27  29
ATOM     29  C   UNL     1      -4.750   6.611   1.511  0.00  0.00    +0.073 C 
ATOM     30  C   UNL     1      -4.097   7.992   1.579  0.00  0.00    +0.022 C 
ATOM     31  C   UNL     1      -5.162   9.045   1.893  0.00  0.00    +0.002 C 
ATOM     32  C   UNL     1      -5.816   8.724   3.238  0.00  0.00    +0.000 C 
ATOM     33  C   UNL     1      -6.470   7.342   3.170  0.00  0.00    +0.002 C 
ATOM     34  C   UNL     1      -5.405   6.290   2.856  0.00  0.00    +0.022 C 
ENDBRANCH  27  29
ENDBRANCH   7  25
TORSDOF 4
