REMARK  Name = ZINC39448897
REMARK  4 active torsions:
REMARK  status: ('A' for Active; 'I' for Inactive)
REMARK    1  A    between atoms: C_16  and  C_18
REMARK    2  A    between atoms: C_18  and  S_19
REMARK    3  A    between atoms: S_19  and  C_20
REMARK    4  A    between atoms: C_22  and  C_28
REMARK                            x       y       z     vdW  Elec       q    Type
REMARK                         _______ _______ _______ _____ _____    ______ ____
ROOT
ATOM      1  S   UNL     1       6.969  -0.575   2.102  0.00  0.00    -0.081 S 
ENDROOT
BRANCH   1   2
ATOM      2  C   UNL     1       8.470  -1.462   1.848  0.00  0.00    +0.159 C 
ATOM      3  N   UNL     1       9.523  -1.326   2.722  0.00  0.00    -0.300 N 
ATOM      4  C   UNL     1      10.427  -2.475   2.886  0.00  0.00    +0.201 C 
ATOM      5  N   UNL     1      10.647  -3.079   1.567  0.00  0.00    -0.336 N 
ATOM      6  C   UNL     1       9.743  -2.969   0.630  0.00  0.00    +0.190 C 
ATOM      7  N   UNL     1       8.607  -2.276   0.817  0.00  0.00    -0.195 NA
ATOM      8  N   UNL     1       9.959  -3.587  -0.585  0.00  0.00    -0.329 N 
ATOM      9  H   UNL     1      10.773  -4.094  -0.734  0.00  0.00    +0.145 HD
ATOM     10  H   UNL     1       9.297  -3.515  -1.291  0.00  0.00    +0.145 HD
ATOM     11  H   UNL     1       9.665  -0.501   3.213  0.00  0.00    +0.150 HD
ATOM     12  H   UNL     1      11.469  -3.563   1.389  0.00  0.00    +0.164 HD
BRANCH   4  13
ATOM     13  C   UNL     1       9.800  -3.486   3.810  0.00  0.00    +0.011 A 
ATOM     14  C   UNL     1       8.857  -3.084   4.737  0.00  0.00    +0.010 A 
ATOM     15  C   UNL     1       8.281  -4.011   5.585  0.00  0.00    +0.020 A 
ATOM     16  C   UNL     1       8.649  -5.343   5.507  0.00  0.00    +0.042 A 
ATOM     17  C   UNL     1       9.593  -5.746   4.580  0.00  0.00    +0.040 A 
ATOM     18  C   UNL     1      10.165  -4.818   3.728  0.00  0.00    +0.049 A 
ATOM     19 CL   UNL     1      11.345  -5.324   2.559  0.00  0.00    -0.083 Cl
ATOM     20 CL   UNL     1       7.927  -6.507   6.573  0.00  0.00    -0.083 Cl
ENDBRANCH   4  13
ENDBRANCH   1   2
BRANCH   1  21
ATOM     21  C   UNL     1       5.916  -1.090   0.718  0.00  0.00    +0.173 C 
BRANCH  21  37
ATOM     22  C   UNL     1      -0.017   1.371   0.010  0.00  0.00    +0.000 A 
ATOM     23  C   UNL     1       1.168   2.085   0.002  0.00  0.00    +0.002 A 
ATOM     24  C   UNL     1       2.365   1.400  -0.028  0.00  0.00    +0.024 A 
ATOM     25  C   UNL     1       2.383   0.009  -0.042  0.00  0.00    +0.044 A 
ATOM     26  C   UNL     1       1.204  -0.717  -0.008  0.00  0.00    -0.025 A 
ATOM     27  C   UNL     1       0.002  -0.004   0.002  0.00  0.00    +0.005 A 
ATOM     28  C   UNL     1       1.047  -2.219   0.059  0.00  0.00    +0.042 C 
ATOM     29  C   UNL     1       2.374  -2.955   0.112  0.00  0.00    +0.042 C 
ATOM     30  C   UNL     1       3.191  -2.701  -1.128  0.00  0.00    -0.025 A 
ATOM     31  C   UNL     1       3.277  -3.606  -2.162  0.00  0.00    +0.005 A 
ATOM     32  C   UNL     1       4.077  -3.297  -3.253  0.00  0.00    +0.000 A 
ATOM     33  C   UNL     1       4.775  -2.103  -3.295  0.00  0.00    +0.002 A 
ATOM     34  C   UNL     1       4.674  -1.195  -2.254  0.00  0.00    +0.024 A 
ATOM     35  C   UNL     1       3.862  -1.508  -1.178  0.00  0.00    +0.044 A 
ATOM     36  N   UNL     1       3.632  -0.626  -0.112  0.00  0.00    -0.239 N 
ATOM     37  C   UNL     1       4.582  -0.395   0.816  0.00  0.00    +0.234 C 
ATOM     38  O   UNL     1       4.364   0.372   1.730  0.00  0.00    -0.274 OA
ENDBRANCH  21  37
ENDBRANCH   1  21
TORSDOF 4
