REMARK  Name = ZINC34750175
REMARK  11 active torsions:
REMARK  status: ('A' for Active; 'I' for Inactive)
REMARK    1  A    between atoms: C_1  and  C_2
REMARK    2  A    between atoms: C_2  and  C_3
REMARK    3  A    between atoms: C_3  and  C_4
REMARK    4  A    between atoms: C_4  and  N_5
REMARK    5  A    between atoms: C_18  and  S_20
REMARK    6  A    between atoms: S_20  and  C_21
REMARK    7  A    between atoms: C_21  and  C_22
REMARK    8  A    between atoms: N_24  and  C_25
REMARK    9  A    between atoms: N_24  and  C_26
REMARK   10  A    between atoms: C_29  and  C_31
REMARK   11  A    between atoms: C_29  and  C_32
REMARK                            x       y       z     vdW  Elec       q    Type
REMARK                         _______ _______ _______ _____ _____    ______ ____
ROOT
ATOM      1  N   UNL     1       1.946  -1.593  -3.341  0.00  0.00    +0.382 N 
ATOM      2  C   UNL     1       2.806  -1.768  -4.518  0.00  0.00    -0.060 C 
ATOM      3  C   UNL     1       3.045  -3.263  -4.756  0.00  0.00    +0.088 C 
ATOM      4  N   UNL     1       1.740  -3.935  -4.852  0.00  0.00    -0.318 N 
ATOM      5  C   UNL     1       0.751  -3.683  -3.792  0.00  0.00    +0.088 C 
ATOM      6  C   UNL     1       0.620  -2.169  -3.600  0.00  0.00    -0.060 C 
ATOM      7  C   UNL     1       1.451  -4.779  -5.909  0.00  0.00    +0.134 A 
ATOM      8  C   UNL     1       1.848  -6.145  -5.868  0.00  0.00    +0.051 A 
ATOM      9  C   UNL     1       2.568  -6.859  -4.816  0.00  0.00    -0.020 A 
ATOM     10  C   UNL     1       2.825  -8.168  -5.026  0.00  0.00    +0.021 A 
ATOM     11  S   UNL     1       2.133  -8.525  -6.616  0.00  0.00    -0.071 S 
ATOM     12  C   UNL     1       1.500  -6.912  -6.999  0.00  0.00    +0.115 A 
ATOM     13  N   UNL     1       0.850  -6.385  -8.018  0.00  0.00    -0.214 NA
ATOM     14  C   UNL     1       0.506  -5.104  -8.002  0.00  0.00    +0.191 A 
ATOM     15  N   UNL     1       0.798  -4.326  -6.966  0.00  0.00    -0.206 NA
ATOM     16  C   UNL     1       3.545  -9.091  -4.092  0.00  0.00    +0.203 C 
ATOM     17  O   UNL     1       4.192  -8.289  -3.090  0.00  0.00    -0.368 OA
ATOM     18  C   UNL     1       3.333  -7.308  -2.504  0.00  0.00    +0.068 C 
ATOM     19  C   UNL     1       3.029  -6.200  -3.518  0.00  0.00    +0.071 C 
ATOM     20  C   UNL     1       2.024  -7.972  -2.072  0.00  0.00    +0.041 C 
ATOM     21  C   UNL     1       4.019  -6.700  -1.279  0.00  0.00    +0.041 C 
ATOM     22  H   UNL     1       2.364  -2.057  -2.550  0.00  0.00    -0.082 HD
ENDROOT
BRANCH   1  23
ATOM     23  C   UNL     1       1.806  -0.160  -3.048  0.00  0.00    -0.079 C 
BRANCH  23  24
ATOM     24  C   UNL     1       3.168   0.416  -2.657  0.00  0.00    -0.019 C 
BRANCH  24  26
ATOM     25  C   UNL     1       4.385   2.484  -1.960  0.00  0.00    +0.004 C 
ATOM     26  C   UNL     1       3.023   1.908  -2.352  0.00  0.00    -0.005 C 
ENDBRANCH  24  26
ENDBRANCH  23  24
ENDBRANCH   1  23
BRANCH  14  27
ATOM     27  S   UNL     1      -0.360  -4.423  -9.377  0.00  0.00    -0.077 S 
BRANCH  27  28
ATOM     28  C   UNL     1      -0.540  -5.822 -10.518  0.00  0.00    +0.173 C 
BRANCH  28  29
ATOM     29  C   UNL     1      -1.274  -5.371 -11.754  0.00  0.00    +0.225 C 
ATOM     30  O   UNL     1      -1.641  -4.219 -11.855  0.00  0.00    -0.275 OA
ATOM     31  N   UNL     1      -1.524  -6.247 -12.747  0.00  0.00    -0.307 N 
ATOM     32  C   UNL     1      -2.239  -5.808 -13.949  0.00  0.00    +0.131 C 
ATOM     33  C   UNL     1      -1.081  -7.638 -12.626  0.00  0.00    +0.131 C 
ENDBRANCH  28  29
ENDBRANCH  27  28
ENDBRANCH  14  27
TORSDOF 6
