REMARK  Name = ZINC49504502
REMARK  11 active torsions:
REMARK  status: ('A' for Active; 'I' for Inactive)
REMARK    1  A    between atoms: C_1  and  N_2
REMARK    2  A    between atoms: N_2  and  C_3
REMARK    3  A    between atoms: N_2  and  C_4
REMARK    4  A    between atoms: C_7  and  C_10
REMARK    5  A    between atoms: C_10  and  C_12
REMARK    6  A    between atoms: C_10  and  N_33
REMARK    7  A    between atoms: C_12  and  N_13
REMARK    8  A    between atoms: C_14  and  C_16
REMARK    9  A    between atoms: N_18  and  C_19
REMARK   10  A    between atoms: N_33  and  C_34
REMARK   11  A    between atoms: N_33  and  C_35
REMARK                            x       y       z     vdW  Elec       q    Type
REMARK                         _______ _______ _______ _____ _____    ______ ____
ROOT
ATOM      1  N   UNL     1      -1.318  -3.519  -7.115  0.00  0.00    -0.309 N 
ATOM      2  C   UNL     1      -2.359  -3.658  -7.960  0.00  0.00    +0.299 C 
ATOM      3  O   UNL     1      -3.475  -3.340  -7.604  0.00  0.00    -0.265 OA
ATOM      4  H   UNL     1      -0.426  -3.774  -7.399  0.00  0.00    +0.149 HD
ENDROOT
BRANCH   2   5
ATOM      5  C   UNL     1      -2.140  -4.205  -9.332  0.00  0.00    +0.303 C 
ATOM      6  O   UNL     1      -1.024  -4.523  -9.687  0.00  0.00    -0.265 OA
ATOM      7  N   UNL     1      -3.181  -4.344 -10.176  0.00  0.00    -0.278 N 
ATOM      8  H   UNL     1      -4.082  -4.155  -9.870  0.00  0.00    +0.155 HD
BRANCH   7   9
ATOM      9  C   UNL     1      -2.963  -4.761 -11.493  0.00  0.00    +0.034 A 
ATOM     10  C   UNL     1      -1.967  -5.685 -11.774  0.00  0.00    +0.028 A 
ATOM     11  C   UNL     1      -1.753  -6.107 -13.074  0.00  0.00    -0.024 A 
ATOM     12  C   UNL     1      -2.542  -5.607 -14.100  0.00  0.00    +0.043 A 
ATOM     13  C   UNL     1      -3.528  -4.667 -13.821  0.00  0.00    -0.023 A 
ATOM     14  C   UNL     1      -3.747  -4.255 -12.522  0.00  0.00    +0.028 A 
ATOM     15  C   UNL     1      -4.355  -4.078 -14.934  0.00  0.00    +0.046 C 
ATOM     16  C   UNL     1      -4.567  -5.117 -16.034  0.00  0.00    +0.101 C 
ATOM     17  C   UNL     1      -3.256  -5.772 -16.375  0.00  0.00    +0.220 C 
ATOM     18  O   UNL     1      -3.016  -6.067 -17.527  0.00  0.00    -0.275 OA
ATOM     19  N   UNL     1      -2.348  -6.032 -15.420  0.00  0.00    -0.271 N 
ATOM     20  C   UNL     1      -1.126  -6.775 -15.760  0.00  0.00    +0.114 C 
ATOM     21  C   UNL     1      -0.897  -7.825 -14.665  0.00  0.00    +0.024 C 
ATOM     22  C   UNL     1      -0.657  -7.106 -13.338  0.00  0.00    +0.038 C 
ENDBRANCH   7   9
ENDBRANCH   2   5
BRANCH   1  23
ATOM     23  C   UNL     1      -1.533  -2.983  -5.769  0.00  0.00    +0.094 C 
BRANCH  23  24
ATOM     24  C   UNL     1      -0.184  -2.814  -5.066  0.00  0.00    -0.021 C 
BRANCH  24  28
ATOM     25  C   UNL     1       1.646  -6.642  -4.553  0.00  0.00    +0.029 A 
ATOM     26  C   UNL     1       2.045  -5.814  -5.595  0.00  0.00    +0.023 A 
ATOM     27  C   UNL     1       1.451  -4.578  -5.758  0.00  0.00    +0.004 A 
ATOM     28  C   UNL     1       0.461  -4.164  -4.886  0.00  0.00    -0.059 A 
ATOM     29  C   UNL     1       0.061  -4.986  -3.848  0.00  0.00    +0.004 A 
ATOM     30  C   UNL     1       0.647  -6.226  -3.682  0.00  0.00    +0.023 A 
BRANCH  25  32
ATOM     31  C   UNL     1       1.818  -8.768  -3.291  0.00  0.00    +0.129 C 
ATOM     32  N   UNL     1       2.244  -7.893  -4.386  0.00  0.00    -0.336 N 
ATOM     33  C   UNL     1       3.297  -8.331  -5.305  0.00  0.00    +0.129 C 
ENDBRANCH  25  32
ENDBRANCH  24  28
BRANCH  24  34
ATOM     34  N   UNL     1      -0.392  -2.191  -3.752  0.00  0.00    +0.382 N 
ATOM     35  C   UNL     1       0.909  -1.945  -3.116  0.00  0.00    -0.096 C 
ATOM     36  C   UNL     1      -1.104  -0.917  -3.921  0.00  0.00    -0.096 C 
ATOM     37  H   UNL     1      -0.940  -2.808  -3.170  0.00  0.00    -0.082 HD
ENDBRANCH  24  34
ENDBRANCH  23  24
ENDBRANCH   1  23
TORSDOF 7
