REMARK  Name = ZINC57642920
REMARK  11 active torsions:
REMARK  status: ('A' for Active; 'I' for Inactive)
REMARK    1  A    between atoms: C_1  and  C_2
REMARK    2  A    between atoms: C_5  and  C_8
REMARK    3  A    between atoms: C_8  and  N_9
REMARK    4  A    between atoms: N_9  and  C_10
REMARK    5  A    between atoms: N_9  and  C_24
REMARK    6  A    between atoms: C_10  and  C_11
REMARK    7  A    between atoms: C_17  and  C_23
REMARK    8  A    between atoms: C_24  and  C_25
REMARK    9  A    between atoms: N_29  and  C_30
REMARK   10  A    between atoms: C_30  and  C_31
REMARK   11  A    between atoms: C_31  and  C_32
REMARK                            x       y       z     vdW  Elec       q    Type
REMARK                         _______ _______ _______ _____ _____    ______ ____
ROOT
ATOM      1  N   UNL     1       1.512  -4.984   0.040  0.00  0.00    -0.287 NA
ENDROOT
BRANCH   1   2
ATOM      2  C   UNL     1       0.158  -4.828  -0.507  0.00  0.00    +0.120 C 
BRANCH   2   7
ATOM      3  C   UNL     1      -0.393  -8.083  -5.250  0.00  0.00    +0.044 C 
ATOM      4  C   UNL     1      -0.249  -7.235  -4.013  0.00  0.00    -0.050 A 
ATOM      5  C   UNL     1      -0.632  -7.735  -2.783  0.00  0.00    +0.003 A 
ATOM      6  C   UNL     1      -0.500  -6.957  -1.649  0.00  0.00    +0.005 A 
ATOM      7  C   UNL     1       0.015  -5.678  -1.744  0.00  0.00    -0.033 A 
ATOM      8  C   UNL     1       0.399  -5.177  -2.974  0.00  0.00    +0.005 A 
ATOM      9  C   UNL     1       0.271  -5.957  -4.108  0.00  0.00    +0.003 A 
ENDBRANCH   2   7
ENDBRANCH   1   2
BRANCH   1  10
ATOM     10  C   UNL     1       1.729  -6.353   0.526  0.00  0.00    +0.125 C 
BRANCH  10  11
ATOM     11  C   UNL     1       1.065  -6.521   1.869  0.00  0.00    +0.031 A 
ATOM     12  C   UNL     1      -0.129  -7.158   1.956  0.00  0.00    +0.020 A 
ATOM     13  C   UNL     1      -0.748  -7.305   3.275  0.00  0.00    -0.001 A 
ATOM     14  C   UNL     1      -1.978  -7.953   3.429  0.00  0.00    +0.010 A 
ATOM     15  C   UNL     1      -2.529  -8.073   4.673  0.00  0.00    +0.001 A 
ATOM     16  C   UNL     1      -1.879  -7.558   5.787  0.00  0.00    +0.005 A 
ATOM     17  C   UNL     1      -0.667  -6.915   5.659  0.00  0.00    -0.026 A 
ATOM     18  C   UNL     1      -0.086  -6.781   4.402  0.00  0.00    +0.052 A 
ATOM     19  N   UNL     1       1.126  -6.144   4.245  0.00  0.00    -0.322 N 
ATOM     20  H   UNL     1       1.581  -5.783   5.022  0.00  0.00    +0.169 HD
ATOM     21  C   UNL     1       1.690  -6.019   3.030  0.00  0.00    +0.254 A 
ATOM     22  O   UNL     1       2.765  -5.453   2.929  0.00  0.00    -0.268 OA
ATOM     23  C   UNL     1       0.027  -6.359   6.875  0.00  0.00    +0.046 C 
ENDBRANCH  10  11
ENDBRANCH   1  10
BRANCH   1  24
ATOM     24  C   UNL     1       2.528  -4.612  -0.954  0.00  0.00    +0.163 C 
BRANCH  24  25
ATOM     25  C   UNL     1       2.626  -3.110  -1.034  0.00  0.00    +0.165 A 
ATOM     26  N   UNL     1       1.881  -2.315  -1.762  0.00  0.00    -0.112 NA
ATOM     27  N   UNL     1       2.272  -1.105  -1.557  0.00  0.00    -0.023 NA
ATOM     28  N   UNL     1       3.247  -1.107  -0.716  0.00  0.00    -0.044 NA
ATOM     29  N   UNL     1       3.491  -2.325  -0.366  0.00  0.00    -0.228 N 
BRANCH  29  30
ATOM     30  C   UNL     1       4.519  -2.769   0.578  0.00  0.00    +0.152 C 
BRANCH  30  31
ATOM     31  C   UNL     1       5.821  -3.042  -0.177  0.00  0.00    +0.058 C 
BRANCH  31  32
ATOM     32  C   UNL     1       6.879  -3.499   0.794  0.00  0.00    -0.046 A 
ATOM     33  C   UNL     1       7.697  -2.572   1.412  0.00  0.00    +0.004 A 
ATOM     34  C   UNL     1       8.667  -2.991   2.303  0.00  0.00    +0.000 A 
ATOM     35  C   UNL     1       8.819  -4.337   2.576  0.00  0.00    +0.000 A 
ATOM     36  C   UNL     1       8.001  -5.265   1.959  0.00  0.00    +0.000 A 
ATOM     37  C   UNL     1       7.028  -4.845   1.071  0.00  0.00    +0.004 A 
ENDBRANCH  31  32
ENDBRANCH  30  31
ENDBRANCH  29  30
ENDBRANCH  24  25
ENDBRANCH   1  24
TORSDOF 9
