REMARK  Name = ZINC40390639
REMARK  6 active torsions:
REMARK  status: ('A' for Active; 'I' for Inactive)
REMARK    1  A    between atoms: C_1  and  C_2
REMARK    2  A    between atoms: C_2  and  C_3
REMARK    3  A    between atoms: C_22  and  C_24
REMARK    4  A    between atoms: N_26  and  C_27
REMARK    5  A    between atoms: C_30  and  C_34
REMARK    6  A    between atoms: C_32  and  C_33
REMARK                            x       y       z     vdW  Elec       q    Type
REMARK                         _______ _______ _______ _____ _____    ______ ____
ROOT
ATOM      1  C   UNL     1       0.706   0.007  -1.653  0.00  0.00    +0.076 C 
ATOM      2  C   UNL     1      -0.096  -1.296  -1.577  0.00  0.00    +0.022 C 
ATOM      3  C   UNL     1       0.697  -2.418  -2.251  0.00  0.00    +0.003 C 
ATOM      4  C   UNL     1       2.022  -2.623  -1.512  0.00  0.00    +0.019 C 
ATOM      5  C   UNL     1       2.848  -1.335  -1.588  0.00  0.00    +0.108 C 
ATOM      6  N   UNL     1       2.038  -0.220  -1.077  0.00  0.00    -0.298 N 
ATOM      7  C   UNL     1       2.514   0.590  -0.080  0.00  0.00    +0.200 A 
ATOM      8  N   UNL     1       3.832   0.932  -0.074  0.00  0.00    -0.295 N 
ATOM      9  H   UNL     1       4.418   0.613  -0.777  0.00  0.00    +0.172 HD
ATOM     10  C   UNL     1       4.322   1.715   0.911  0.00  0.00    +0.258 A 
ATOM     11  O   UNL     1       5.504   2.017   0.936  0.00  0.00    -0.267 OA
ATOM     12  C   UNL     1       3.446   2.175   1.900  0.00  0.00    +0.069 A 
ATOM     13  C   UNL     1       2.112   1.816   1.838  0.00  0.00    +0.138 A 
ATOM     14  N   UNL     1       1.687   1.023   0.847  0.00  0.00    -0.200 NA
ATOM     15  N   UNL     1       1.217   2.292   2.780  0.00  0.00    -0.270 N 
ATOM     16  C   UNL     1       1.552   3.300   3.604  0.00  0.00    +0.219 C 
ATOM     17  O   UNL     1       0.792   3.627   4.490  0.00  0.00    -0.275 OA
ATOM     18  C   UNL     1       2.860   4.027   3.439  0.00  0.00    +0.114 C 
ATOM     19  C   UNL     1       3.952   3.039   3.024  0.00  0.00    +0.122 C 
ATOM     20  H   UNL     1       0.335   1.893   2.846  0.00  0.00    +0.156 HD
ENDROOT
BRANCH  19  21
ATOM     21  C   UNL     1       5.169   3.800   2.564  0.00  0.00    +0.225 C 
ATOM     22  O   UNL     1       5.103   4.517   1.588  0.00  0.00    -0.275 OA
ATOM     23  N   UNL     1       6.330   3.683   3.237  0.00  0.00    -0.285 N 
ATOM     24  H   UNL     1       6.401   3.062   3.979  0.00  0.00    +0.155 HD
BRANCH  23  25
ATOM     25  C   UNL     1       7.435   4.458   2.866  0.00  0.00    +0.036 A 
ATOM     26  C   UNL     1       7.567   4.899   1.555  0.00  0.00    +0.024 A 
ATOM     27  C   UNL     1       8.658   5.663   1.192  0.00  0.00    +0.005 A 
ATOM     28  C   UNL     1       9.619   5.989   2.131  0.00  0.00    -0.050 A 
ATOM     29  C   UNL     1       9.491   5.551   3.437  0.00  0.00    +0.008 A 
ATOM     30  C   UNL     1       8.399   4.792   3.808  0.00  0.00    -0.029 A 
ATOM     31  C   UNL     1       8.256   4.321   5.232  0.00  0.00    +0.045 C 
ATOM     32  C   UNL     1      10.809   6.823   1.731  0.00  0.00    +0.044 C 
ENDBRANCH  23  25
ENDBRANCH  19  21
BRANCH   1  34
ATOM     33  C   UNL     1      -1.333   1.448  -1.559  0.00  0.00    +0.006 C 
ATOM     34  C   UNL     1      -0.015   1.100  -0.863  0.00  0.00    +0.019 C 
ENDBRANCH   1  34
TORSDOF 3
