REMARK  Name = ZINC13136374
REMARK  7 active torsions:
REMARK  status: ('A' for Active; 'I' for Inactive)
REMARK    1  A    between atoms: C_2  and  C_3
REMARK    2  A    between atoms: C_3  and  N_4
REMARK    3  A    between atoms: N_4  and  C_5
REMARK    4  A    between atoms: N_4  and  C_8
REMARK    5  A    between atoms: C_5  and  C_6
REMARK    6  A    between atoms: C_11  and  N_17
REMARK    7  A    between atoms: C_13  and  N_14
REMARK                            x       y       z     vdW  Elec       q    Type
REMARK                         _______ _______ _______ _____ _____    ______ ____
ROOT
ATOM      1  C   UNL     1      -1.844  -1.285  -2.353  0.00  0.00    +0.061 A 
ATOM      2  C   UNL     1      -1.015  -0.699  -3.302  0.00  0.00    +0.027 A 
ATOM      3  C   UNL     1      -1.535  -0.290  -4.514  0.00  0.00    +0.026 A 
ATOM      4  C   UNL     1      -2.886  -0.463  -4.784  0.00  0.00    +0.046 A 
ATOM      5  C   UNL     1      -3.714  -1.048  -3.836  0.00  0.00    +0.058 A 
ATOM      6  C   UNL     1      -3.194  -1.463  -2.626  0.00  0.00    +0.149 A 
ENDROOT
BRANCH   4   7
ATOM      7  N   UNL     1      -3.414  -0.046  -6.016  0.00  0.00    -0.210 N 
ATOM      8  C   UNL     1      -4.727  -0.177  -6.348  0.00  0.00    +0.230 C 
ATOM      9  O   UNL     1      -5.564  -0.835  -5.768  0.00  0.00    -0.275 OA
ATOM     10  C   UNL     1      -4.926   0.655  -7.574  0.00  0.00    +0.088 C 
ATOM     11  C   UNL     1      -5.927   0.221  -8.619  0.00  0.00    +0.013 C 
ATOM     12  C   UNL     1      -5.848   1.251  -9.762  0.00  0.00    +0.001 C 
ATOM     13  C   UNL     1      -4.436   1.379 -10.322  0.00  0.00    +0.001 C 
ATOM     14  C   UNL     1      -3.402   1.661  -9.214  0.00  0.00    +0.013 C 
ATOM     15  C   UNL     1      -3.516   0.528  -8.223  0.00  0.00    +0.088 C 
ATOM     16  C   UNL     1      -2.664   0.535  -6.991  0.00  0.00    +0.230 C 
ATOM     17  O   UNL     1      -1.537   0.967  -6.885  0.00  0.00    -0.275 OA
ENDBRANCH   4   7
BRANCH   6  18
ATOM     18  N   UNL     1      -4.076  -2.093  -1.618  0.00  0.00    +0.058 N 
ATOM     19  O   UNL     1      -5.251  -2.248  -1.856  0.00  0.00    -0.126 OA
ATOM     20  O   UNL     1      -3.621  -2.451  -0.557  0.00  0.00    -0.126 OA
ENDBRANCH   6  18
BRANCH   1  21
ATOM     21  N   UNL     1      -1.318  -1.700  -1.126  0.00  0.00    -0.321 N 
BRANCH  21  22
ATOM     22  C   UNL     1      -1.293  -0.775   0.010  0.00  0.00    +0.132 C 
BRANCH  22  24
ATOM     23  C   UNL     1      -0.016   1.306   0.009  0.00  0.00    +0.005 C 
ATOM     24  C   UNL     1       0.002  -0.004   0.002  0.00  0.00    -0.016 C 
ENDBRANCH  22  24
ENDBRANCH  21  22
BRANCH  21  25
ATOM     25  C   UNL     1      -0.791  -3.059  -0.976  0.00  0.00    +0.132 C 
BRANCH  25  26
ATOM     26  C   UNL     1      -1.897  -3.979  -0.527  0.00  0.00    -0.016 C 
ATOM     27  C   UNL     1      -2.172  -5.058  -1.217  0.00  0.00    +0.005 C 
ENDBRANCH  25  26
ENDBRANCH  21  25
ENDBRANCH   1  21
TORSDOF 7
