REMARK  Name = ZINC20156039
REMARK  8 active torsions:
REMARK  status: ('A' for Active; 'I' for Inactive)
REMARK    1  A    between atoms: C_1  and  C_2
REMARK    2  A    between atoms: C_2  and  C_3
REMARK    3  A    between atoms: C_2  and  N_4
REMARK    4  A    between atoms: N_4  and  C_5
REMARK    5  A    between atoms: N_4  and  C_12
REMARK    6  A    between atoms: C_5  and  C_6
REMARK    7  A    between atoms: C_12  and  C_14
REMARK    8  A    between atoms: C_12  and  C_21
REMARK                            x       y       z     vdW  Elec       q    Type
REMARK                         _______ _______ _______ _____ _____    ______ ____
ROOT
ATOM      1  C   UNL     1       5.401  -0.821  -1.798  0.00  0.00    +0.005 C 
ENDROOT
BRANCH   1   2
ATOM      2  C   UNL     1       5.926  -0.519  -3.178  0.00  0.00    +0.072 A 
ATOM      3  C   UNL     1       7.022   0.275  -3.341  0.00  0.00    +0.260 A 
ATOM      4  N   UNL     1       7.486   0.533  -4.606  0.00  0.00    -0.275 N 
ATOM      5  H   UNL     1       8.375   1.166  -4.748  0.00  0.00    +0.173 HD
ATOM      6  C   UNL     1       6.861   0.017  -5.680  0.00  0.00    +0.329 A 
ATOM      7  O   UNL     1       7.284   0.260  -6.794  0.00  0.00    -0.247 OA
ATOM      8  N   UNL     1       5.775  -0.764  -5.540  0.00  0.00    -0.275 N 
ATOM      9  H   UNL     1       5.276  -1.178  -6.429  0.00  0.00    +0.173 HD
ATOM     10  C   UNL     1       5.289  -1.047  -4.315  0.00  0.00    +0.260 A 
ATOM     11  O   UNL     1       4.305  -1.755  -4.193  0.00  0.00    -0.267 OA
ATOM     12  O   UNL     1       7.649   0.799  -2.267  0.00  0.00    -0.267 OA
ENDBRANCH   1   2
BRANCH   1  13
ATOM     13  C   UNL     1       5.500  -2.301  -1.536  0.00  0.00    -0.056 A 
ATOM     14  C   UNL     1       4.511  -3.152  -1.993  0.00  0.00    +0.005 A 
ATOM     15  C   UNL     1       4.604  -4.511  -1.758  0.00  0.00    +0.038 A 
ATOM     16  C   UNL     1       5.682  -5.018  -1.054  0.00  0.00    +0.123 A 
ATOM     17  C   UNL     1       6.670  -4.165  -0.591  0.00  0.00    +0.038 A 
ATOM     18  C   UNL     1       6.577  -2.807  -0.833  0.00  0.00    +0.005 A 
ATOM     19  F   UNL     1       5.771  -6.346  -0.818  0.00  0.00    -0.205 F 
ENDBRANCH   1  13
BRANCH   1  20
ATOM     20  N   UNL     1       3.996  -0.400  -1.706  0.00  0.00    +0.391 N 
ATOM     21  H   UNL     1       3.390  -1.120  -2.276  0.00  0.00    -0.080 HD
BRANCH  20  23
ATOM     22  C   UNL     1       3.444  -1.869   0.175  0.00  0.00    -0.013 C 
ATOM     23  C   UNL     1       3.530  -0.421  -0.313  0.00  0.00    -0.073 C 
ATOM     24  C   UNL     1       4.514   0.356   0.565  0.00  0.00    -0.013 C 
ENDBRANCH  20  23
BRANCH  20  25
ATOM     25  C   UNL     1       3.803   0.927  -2.306  0.00  0.00    -0.041 C 
BRANCH  25  26
ATOM     26  C   UNL     1       2.329   1.226  -2.401  0.00  0.00    -0.064 A 
ATOM     27  C   UNL     1       1.713   1.980  -1.420  0.00  0.00    +0.002 A 
ATOM     28  C   UNL     1       0.361   2.254  -1.507  0.00  0.00    +0.000 A 
ATOM     29  C   UNL     1      -0.375   1.774  -2.574  0.00  0.00    +0.000 A 
ATOM     30  C   UNL     1       0.242   1.020  -3.555  0.00  0.00    +0.000 A 
ATOM     31  C   UNL     1       1.594   0.746  -3.469  0.00  0.00    +0.002 A 
ENDBRANCH  25  26
ENDBRANCH  20  25
ENDBRANCH   1  20
TORSDOF 6
