REMARK  Name = ZINC08771076
REMARK  7 active torsions:
REMARK  status: ('A' for Active; 'I' for Inactive)
REMARK    1  A    between atoms: C_1  and  O_2
REMARK    2  A    between atoms: O_2  and  C_3
REMARK    3  A    between atoms: C_6  and  N_9
REMARK    4  A    between atoms: C_14  and  C_15
REMARK    5  A    between atoms: C_14  and  N_64
REMARK    6  A    between atoms: N_21  and  C_22
REMARK    7  A    between atoms: N_21  and  C_28
REMARK                            x       y       z     vdW  Elec       q    Type
REMARK                         _______ _______ _______ _____ _____    ______ ____
ROOT
ATOM      1  C   UNL     1      -0.270   8.337  -3.063  0.00  0.00    +0.120 A 
ATOM      2  N   UNL     1      -1.199   9.227  -3.364  0.00  0.00    -0.202 NA
ATOM      3  C   UNL     1      -1.029  10.043  -4.402  0.00  0.00    +0.217 A 
ATOM      4  N   UNL     1       0.075   9.961  -5.136  0.00  0.00    -0.181 NA
ATOM      5  C   UNL     1       1.007   9.065  -4.830  0.00  0.00    +0.231 A 
ATOM      6  N   UNL     1       0.832   8.255  -3.787  0.00  0.00    -0.201 NA
ATOM      7  N   UNL     1       2.158   8.975  -5.591  0.00  0.00    -0.238 N 
ATOM      8  N   UNL     1      -2.000  10.972  -4.716  0.00  0.00    -0.327 N 
ATOM      9  H   UNL     1      -2.806  11.031  -4.180  0.00  0.00    +0.145 HD
ATOM     10  H   UNL     1      -1.876  11.566  -5.473  0.00  0.00    +0.145 HD
ENDROOT
BRANCH   7  11
ATOM     11  C   UNL     1       2.349   9.838  -6.676  0.00  0.00    +0.042 A 
ATOM     12  C   UNL     1       1.909   9.471  -7.942  0.00  0.00    +0.024 A 
ATOM     13  C   UNL     1       2.093  10.328  -9.009  0.00  0.00    +0.002 A 
ATOM     14  C   UNL     1       2.724  11.544  -8.822  0.00  0.00    +0.000 A 
ATOM     15  C   UNL     1       3.168  11.909  -7.564  0.00  0.00    +0.002 A 
ATOM     16  C   UNL     1       2.982  11.060  -6.491  0.00  0.00    +0.024 A 
ENDBRANCH   7  11
BRANCH   7  17
ATOM     17  C   UNL     1       3.133   8.022  -5.275  0.00  0.00    +0.042 A 
ATOM     18  C   UNL     1       4.162   8.343  -4.399  0.00  0.00    +0.024 A 
ATOM     19  C   UNL     1       5.119   7.399  -4.085  0.00  0.00    +0.002 A 
ATOM     20  C   UNL     1       5.061   6.138  -4.651  0.00  0.00    +0.000 A 
ATOM     21  C   UNL     1       4.041   5.817  -5.528  0.00  0.00    +0.002 A 
ATOM     22  C   UNL     1       3.077   6.755  -5.842  0.00  0.00    +0.024 A 
ENDBRANCH   7  17
BRANCH   1  23
ATOM     23  C   UNL     1      -0.465   7.415  -1.886  0.00  0.00    -0.001 C 
BRANCH  23  29
ATOM     24  N   UNL     1      -3.162   4.183  -2.241  0.00  0.00    -0.333 N 
ATOM     25  C   UNL     1      -3.164   5.201  -3.301  0.00  0.00    +0.086 C 
ATOM     26  C   UNL     1      -2.517   6.484  -2.773  0.00  0.00    -0.059 C 
ATOM     27  C   UNL     1      -1.144   5.174  -1.271  0.00  0.00    -0.059 C 
ATOM     28  C   UNL     1      -1.791   3.891  -1.798  0.00  0.00    +0.086 C 
ATOM     29  N   UNL     1      -1.133   6.181  -2.352  0.00  0.00    +0.386 N 
ATOM     30  H   UNL     1      -0.615   5.804  -3.154  0.00  0.00    -0.081 HD
BRANCH  24  34
ATOM     31  C   UNL     1      -5.095   0.712  -3.502  0.00  0.00    +0.120 A 
ATOM     32  C   UNL     1      -5.760   1.928  -3.541  0.00  0.00    +0.047 A 
ATOM     33  C   UNL     1      -5.120   3.079  -3.123  0.00  0.00    +0.027 A 
ATOM     34  C   UNL     1      -3.811   3.017  -2.664  0.00  0.00    +0.030 A 
ATOM     35  C   UNL     1      -3.146   1.799  -2.625  0.00  0.00    +0.027 A 
ATOM     36  C   UNL     1      -3.787   0.649  -3.044  0.00  0.00    +0.047 A 
BRANCH  31  38
ATOM     37  C   UNL     1      -4.981  -1.639  -3.848  0.00  0.00    +0.277 C 
ATOM     38  O   UNL     1      -5.725  -0.421  -3.914  0.00  0.00    -0.495 OA
ENDBRANCH  31  38
ENDBRANCH  24  34
ENDBRANCH  23  29
ENDBRANCH   1  23
TORSDOF 6
