REMARK  Name = ZINC12339095
REMARK  10 active torsions:
REMARK  status: ('A' for Active; 'I' for Inactive)
REMARK    1  A    between atoms: C_1  and  C_2
REMARK    2  A    between atoms: C_4  and  C_10
REMARK    3  A    between atoms: C_5  and  O_9
REMARK    4  A    between atoms: N_11  and  N_12
REMARK    5  A    between atoms: N_12  and  C_13
REMARK    6  A    between atoms: C_13  and  N_15
REMARK    7  A    between atoms: N_15  and  C_16
REMARK    8  A    between atoms: C_16  and  C_17
REMARK    9  A    between atoms: C_16  and  C_18
REMARK   10  A    between atoms: C_16  and  C_19
REMARK                            x       y       z     vdW  Elec       q    Type
REMARK                         _______ _______ _______ _____ _____    ______ ____
ROOT
ATOM      1  C   UNL     1      -0.089   0.815   0.086  0.00  0.00    +0.142 C 
ATOM      2  N   UNL     1      -1.131   1.467   0.503  0.00  0.00    -0.188 NA
ENDROOT
BRANCH   1   6
ATOM      3  C   UNL     1       1.930   4.905  -1.928  0.00  0.00    +0.044 C 
ATOM      4  C   UNL     1       2.076   3.517  -1.361  0.00  0.00    -0.049 A 
ATOM      5  C   UNL     1       0.963   2.835  -0.916  0.00  0.00    +0.016 A 
ATOM      6  C   UNL     1       1.097   1.548  -0.391  0.00  0.00    +0.037 A 
ATOM      7  C   UNL     1       2.367   0.960  -0.315  0.00  0.00    +0.139 A 
ATOM      8  C   UNL     1       3.475   1.656  -0.771  0.00  0.00    +0.060 A 
ATOM      9  C   UNL     1       3.328   2.930  -1.289  0.00  0.00    +0.022 A 
ATOM     10 BR   UNL     1       5.191   0.866  -0.679  0.00  0.00    -0.046 Br
BRANCH   7  11
ATOM     11  O   UNL     1       2.511  -0.289   0.199  0.00  0.00    -0.505 OA
ATOM     12  H   UNL     1       2.517  -0.990  -0.467  0.00  0.00    +0.292 HD
ENDBRANCH   7  11
ENDBRANCH   1   6
BRANCH   2  13
ATOM     13  N   UNL     1      -1.055   2.850   0.708  0.00  0.00    -0.218 N 
ATOM     14  H   UNL     1      -0.204   3.308   0.623  0.00  0.00    +0.176 HD
BRANCH  13  15
ATOM     15  C   UNL     1      -2.166   3.546   1.024  0.00  0.00    +0.150 C 
ATOM     16  S   UNL     1      -2.073   5.237   1.275  0.00  0.00    -0.017 S 
BRANCH  15  17
ATOM     17  N   UNL     1      -3.348   2.911   1.143  0.00  0.00    -0.321 N 
ATOM     18  H   UNL     1      -3.388   1.944   1.078  0.00  0.00    +0.148 HD
BRANCH  17  19
ATOM     19  C   UNL     1      -4.574   3.681   1.371  0.00  0.00    +0.025 C 
ATOM     20  C   UNL     1      -4.764   4.685   0.232  0.00  0.00    +0.031 C 
ATOM     21  C   UNL     1      -5.771   2.730   1.418  0.00  0.00    +0.031 C 
ATOM     22  C   UNL     1      -4.465   4.431   2.699  0.00  0.00    +0.031 C 
ENDBRANCH  17  19
ENDBRANCH  15  17
ENDBRANCH  13  15
ENDBRANCH   2  13
TORSDOF 6
