REMARK  Name = ZINC58194477
REMARK  8 active torsions:
REMARK  status: ('A' for Active; 'I' for Inactive)
REMARK    1  A    between atoms: C_1  and  C_2
REMARK    2  A    between atoms: C_2  and  N_3
REMARK    3  A    between atoms: N_3  and  C_4
REMARK    4  A    between atoms: C_4  and  C_5
REMARK    5  A    between atoms: N_16  and  C_17
REMARK    6  A    between atoms: C_17  and  C_19
REMARK    7  A    between atoms: C_17  and  C_28
REMARK    8  A    between atoms: C_19  and  N_20
REMARK                            x       y       z     vdW  Elec       q    Type
REMARK                         _______ _______ _______ _____ _____    ______ ____
ROOT
ATOM      1  N   UNL     1       0.620  -1.290  -1.747  0.00  0.00    -0.282 N 
ATOM      2  C   UNL     1      -0.212  -1.195  -2.803  0.00  0.00    +0.303 C 
ATOM      3  O   UNL     1      -0.018  -1.875  -3.792  0.00  0.00    -0.253 OA
ATOM      4  N   UNL     1      -1.258  -0.347  -2.762  0.00  0.00    -0.291 N 
ATOM      5  H   UNL     1      -1.443   0.158  -1.955  0.00  0.00    +0.151 HD
ENDROOT
BRANCH   1   7
ATOM      6  C   UNL     1       1.125   0.745  -0.487  0.00  0.00    +0.024 C 
ATOM      7  C   UNL     1       0.323  -0.558  -0.513  0.00  0.00    +0.106 C 
ENDBRANCH   1   7
BRANCH   1   8
ATOM      8  C   UNL     1       1.821  -2.124  -1.833  0.00  0.00    +0.144 C 
BRANCH   8   9
ATOM      9  C   UNL     1       1.494  -3.523  -1.380  0.00  0.00    -0.026 A 
ATOM     10  C   UNL     1       1.625  -3.866  -0.047  0.00  0.00    +0.009 A 
ATOM     11  C   UNL     1       1.326  -5.148   0.373  0.00  0.00    +0.050 A 
ATOM     12  C   UNL     1       0.893  -6.094  -0.541  0.00  0.00    +0.166 A 
ATOM     13  C   UNL     1       0.761  -5.750  -1.884  0.00  0.00    +0.167 A 
ATOM     14  C   UNL     1       1.057  -4.461  -2.297  0.00  0.00    +0.054 A 
ATOM     15  O   UNL     1       0.325  -6.843  -2.575  0.00  0.00    -0.453 OA
ATOM     16  C   UNL     1       0.582  -7.969  -1.714  0.00  0.00    +0.466 C 
ATOM     17  O   UNL     1       0.540  -7.404  -0.390  0.00  0.00    -0.453 OA
ENDBRANCH   8   9
ENDBRANCH   1   8
BRANCH   4  18
ATOM     18  C   UNL     1      -2.118  -0.187  -3.938  0.00  0.00    +0.122 C 
BRANCH  18  19
ATOM     19  C   UNL     1      -2.794  -1.498  -4.248  0.00  0.00    -0.026 A 
ATOM     20  C   UNL     1      -3.272  -2.289  -3.220  0.00  0.00    +0.005 A 
ATOM     21  C   UNL     1      -3.892  -3.491  -3.504  0.00  0.00    +0.000 A 
ATOM     22  C   UNL     1      -4.034  -3.902  -4.816  0.00  0.00    +0.000 A 
ATOM     23  C   UNL     1      -3.557  -3.111  -5.844  0.00  0.00    +0.000 A 
ATOM     24  C   UNL     1      -2.941  -1.906  -5.560  0.00  0.00    +0.005 A 
ENDBRANCH  18  19
BRANCH  18  25
ATOM     25  C   UNL     1      -3.178   0.879  -3.654  0.00  0.00    +0.134 C 
BRANCH  25  26
ATOM     26  N   UNL     1      -2.530   2.185  -3.508  0.00  0.00    -0.299 N 
ATOM     27  C   UNL     1      -2.202   2.692  -2.165  0.00  0.00    +0.108 C 
ATOM     28  C   UNL     1      -0.686   2.628  -1.975  0.00  0.00    +0.019 C 
ATOM     29  C   UNL     1      -0.020   3.882  -2.513  0.00  0.00    +0.002 C 
ATOM     30  C   UNL     1      -0.116   4.028  -4.021  0.00  0.00    +0.009 C 
ATOM     31  C   UNL     1      -1.567   4.255  -4.452  0.00  0.00    +0.096 C 
ATOM     32  C   UNL     1      -2.237   2.904  -4.592  0.00  0.00    +0.216 C 
ATOM     33  O   UNL     1      -2.513   2.477  -5.693  0.00  0.00    -0.276 OA
ENDBRANCH  25  26
ENDBRANCH  18  25
ENDBRANCH   4  18
TORSDOF 7
