REMARK  Name = ZINC01050475
REMARK  8 active torsions:
REMARK  status: ('A' for Active; 'I' for Inactive)
REMARK    1  A    between atoms: C_1  and  C_2
REMARK    2  A    between atoms: C_2  and  N_3
REMARK    3  A    between atoms: N_3  and  C_4
REMARK    4  A    between atoms: N_3  and  C_11
REMARK    5  A    between atoms: C_4  and  C_5
REMARK    6  A    between atoms: C_11  and  N_13
REMARK    7  A    between atoms: C_14  and  C_16
REMARK    8  A    between atoms: C_19  and  C_22
REMARK                            x       y       z     vdW  Elec       q    Type
REMARK                         _______ _______ _______ _____ _____    ______ ____
ROOT
ATOM      1  N   UNL     1       2.721  -0.456   0.003  0.00  0.00    -0.264 N 
ATOM      2  C   UNL     1       4.052  -0.662  -0.045  0.00  0.00    +0.250 C 
ATOM      3  O   UNL     1       4.640  -1.065   0.940  0.00  0.00    -0.270 OA
ATOM      4  H   UNL     1       2.252  -0.134  -0.783  0.00  0.00    +0.157 HD
ENDROOT
BRANCH   2   5
ATOM      5  C   UNL     1       4.796  -0.399  -1.292  0.00  0.00    +0.037 A 
ATOM      6  C   UNL     1       4.122   0.070  -2.423  0.00  0.00    +0.013 A 
ATOM      7  C   UNL     1       4.816   0.314  -3.586  0.00  0.00    +0.009 A 
ATOM      8  C   UNL     1       6.193   0.095  -3.636  0.00  0.00    -0.018 A 
ATOM      9  C   UNL     1       6.868  -0.373  -2.508  0.00  0.00    +0.009 A 
ATOM     10  C   UNL     1       6.176  -0.613  -1.342  0.00  0.00    +0.013 A 
BRANCH   8  11
ATOM     11  C   UNL     1       6.940   0.359  -4.889  0.00  0.00    -0.018 A 
ATOM     12  C   UNL     1       6.271   0.832  -6.017  0.00  0.00    +0.008 A 
ATOM     13  C   UNL     1       6.971   1.076  -7.180  0.00  0.00    +0.001 A 
ATOM     14  C   UNL     1       8.335   0.852  -7.229  0.00  0.00    +0.000 A 
ATOM     15  C   UNL     1       9.005   0.382  -6.114  0.00  0.00    +0.001 A 
ATOM     16  C   UNL     1       8.316   0.141  -4.942  0.00  0.00    +0.008 A 
ENDBRANCH   8  11
ENDBRANCH   2   5
BRANCH   1  17
ATOM     17  C   UNL     1       2.042  -0.696   1.142  0.00  0.00    +0.139 C 
ATOM     18  S   UNL     1       2.870  -1.263   2.529  0.00  0.00    -0.018 S 
BRANCH  17  19
ATOM     19  N   UNL     1       0.711  -0.489   1.189  0.00  0.00    -0.310 N 
BRANCH  19  21
ATOM     20  C   UNL     1      -0.019   1.526   0.010  0.00  0.00    +0.024 C 
ATOM     21  C   UNL     1       0.002  -0.004   0.002  0.00  0.00    +0.103 C 
ENDBRANCH  19  21
BRANCH  19  22
ATOM     22  C   UNL     1      -0.028  -0.750   2.427  0.00  0.00    +0.138 C 
BRANCH  22  23
ATOM     23  C   UNL     1      -0.511  -2.202   2.437  0.00  0.00    +0.136 C 
ATOM     24  C   UNL     1      -1.391  -2.453   3.679  0.00  0.00    +0.035 C 
ATOM     25  C   UNL     1      -0.956  -3.880   4.110  0.00  0.00    +0.031 C 
ATOM     26  C   UNL     1       0.546  -3.857   3.727  0.00  0.00    +0.160 C 
ATOM     27  O   UNL     1       0.613  -3.087   2.514  0.00  0.00    -0.375 OA
ENDBRANCH  22  23
ENDBRANCH  19  22
ENDBRANCH  17  19
ENDBRANCH   1  17
TORSDOF 7
