REMARK  Name = ZINC05983544
REMARK  11 active torsions:
REMARK  status: ('A' for Active; 'I' for Inactive)
REMARK    1  A    between atoms: C_1  and  C_2
REMARK    2  A    between atoms: C_2  and  C_3
REMARK    3  A    between atoms: C_3  and  C_4
REMARK    4  A    between atoms: C_4  and  N_5
REMARK    5  A    between atoms: C_9  and  S_29
REMARK    6  A    between atoms: C_13  and  S_14
REMARK    7  A    between atoms: S_14  and  C_15
REMARK    8  A    between atoms: C_15  and  C_16
REMARK    9  A    between atoms: N_18  and  C_19
REMARK   10  A    between atoms: C_21  and  N_26
REMARK   11  A    between atoms: S_29  and  N_32
REMARK                            x       y       z     vdW  Elec       q    Type
REMARK                         _______ _______ _______ _____ _____    ______ ____
ROOT
ATOM      1  N   UNL     1      -1.542   5.339  -4.672  0.00  0.00    -0.319 N 
ATOM      2  C   UNL     1      -1.649   4.339  -3.720  0.00  0.00    +0.070 A 
ATOM      3  C   UNL     1      -2.146   3.045  -3.737  0.00  0.00    +0.030 A 
ATOM      4  C   UNL     1      -2.106   2.279  -2.590  0.00  0.00    +0.030 A 
ATOM      5  C   UNL     1      -1.572   2.795  -1.419  0.00  0.00    +0.107 A 
ATOM      6  C   UNL     1      -1.078   4.080  -1.382  0.00  0.00    +0.058 A 
ATOM      7  C   UNL     1      -1.106   4.866  -2.537  0.00  0.00    +0.092 A 
ATOM      8  N   UNL     1      -0.703   6.134  -2.812  0.00  0.00    -0.222 NA
ATOM      9  C   UNL     1      -0.958   6.415  -4.066  0.00  0.00    +0.170 A 
ENDROOT
BRANCH   5  10
ATOM     10  S   UNL     1      -1.530   1.800   0.036  0.00  0.00    +0.056 S 
ATOM     11  O   UNL     1      -2.553   0.825  -0.109  0.00  0.00    -0.153 OA
ATOM     12  O   UNL     1      -1.481   2.696   1.138  0.00  0.00    -0.153 OA
BRANCH  10  13
ATOM     13  N   UNL     1      -0.091   0.981   0.027  0.00  0.00    -0.204 NA
ATOM     14  H   UNL     1      -0.085   0.011   0.024  0.00  0.00    +0.144 HD
ATOM     15  H   UNL     1       0.747   1.471   0.022  0.00  0.00    +0.144 HD
ENDBRANCH  10  13
ENDBRANCH   5  10
BRANCH   1  16
ATOM     16  C   UNL     1      -1.976   5.258  -6.069  0.00  0.00    +0.124 C 
BRANCH  16  17
ATOM     17  C   UNL     1      -3.428   5.726  -6.181  0.00  0.00    +0.021 C 
BRANCH  17  19
ATOM     18  C   UNL     1      -5.333   6.109  -7.751  0.00  0.00    +0.004 C 
ATOM     19  C   UNL     1      -3.881   5.641  -7.640  0.00  0.00    -0.002 C 
ENDBRANCH  17  19
ENDBRANCH  16  17
ENDBRANCH   1  16
BRANCH   9  20
ATOM     20  S   UNL     1      -0.599   7.950  -4.853  0.00  0.00    -0.078 S 
BRANCH  20  21
ATOM     21  C   UNL     1       0.142   8.848  -3.468  0.00  0.00    +0.173 C 
BRANCH  21  22
ATOM     22  C   UNL     1       0.539  10.230  -3.920  0.00  0.00    +0.228 C 
ATOM     23  O   UNL     1       0.340  10.574  -5.066  0.00  0.00    -0.275 OA
ATOM     24  N   UNL     1       1.115  11.084  -3.050  0.00  0.00    -0.284 N 
ATOM     25  H   UNL     1       1.215  10.834  -2.119  0.00  0.00    +0.155 HD
BRANCH  24  26
ATOM     26  C   UNL     1       1.568  12.333  -3.492  0.00  0.00    +0.054 A 
ATOM     27  C   UNL     1       0.879  13.011  -4.489  0.00  0.00    +0.057 A 
ATOM     28  C   UNL     1       1.327  14.244  -4.920  0.00  0.00    +0.128 A 
ATOM     29  C   UNL     1       2.465  14.800  -4.366  0.00  0.00    +0.034 A 
ATOM     30  C   UNL     1       3.157  14.127  -3.377  0.00  0.00    +0.024 A 
ATOM     31  C   UNL     1       2.712  12.894  -2.938  0.00  0.00    +0.062 A 
ATOM     32 CL   UNL     1       3.581  12.048  -1.696  0.00  0.00    -0.082 Cl
BRANCH  28  33
ATOM     33  N   UNL     1       0.589  14.969  -5.979  0.00  0.00    +0.056 N 
ATOM     34  O   UNL     1       0.986  16.055  -6.362  0.00  0.00    -0.126 OA
ATOM     35  O   UNL     1      -0.414  14.480  -6.466  0.00  0.00    -0.126 OA
ENDBRANCH  28  33
ENDBRANCH  24  26
ENDBRANCH  21  22
ENDBRANCH  20  21
ENDBRANCH   9  20
TORSDOF 10
