REMARK  Name = ZINC63530251
REMARK  10 active torsions:
REMARK  status: ('A' for Active; 'I' for Inactive)
REMARK    1  A    between atoms: C_1  and  C_2
REMARK    2  A    between atoms: C_2  and  C_3
REMARK    3  A    between atoms: C_3  and  O_4
REMARK    4  A    between atoms: O_4  and  C_5
REMARK    5  A    between atoms: C_8  and  C_11
REMARK    6  A    between atoms: C_11  and  N_12
REMARK    7  A    between atoms: C_13  and  C_15
REMARK    8  A    between atoms: C_17  and  S_25
REMARK    9  A    between atoms: S_25  and  C_26
REMARK   10  A    between atoms: C_29  and  C_32
REMARK                            x       y       z     vdW  Elec       q    Type
REMARK                         _______ _______ _______ _____ _____    ______ ____
ROOT
ATOM      1  C   UNL     1       6.759  -5.376  -6.057  0.00  0.00    +0.204 C 
ATOM      2  C   UNL     1       7.663  -4.170  -6.178  0.00  0.00    +0.030 C 
ATOM      3  C   UNL     1       8.676  -4.545  -7.055  0.00  0.00    +0.010 A 
ATOM      4  C   UNL     1       9.804  -3.858  -7.557  0.00  0.00    +0.011 A 
ATOM      5  C   UNL     1      10.644  -4.485  -8.420  0.00  0.00    +0.001 A 
ATOM      6  C   UNL     1      10.423  -5.801  -8.829  0.00  0.00    +0.002 A 
ATOM      7  C   UNL     1       9.361  -6.519  -8.386  0.00  0.00    +0.026 A 
ATOM      8  C   UNL     1       8.440  -5.932  -7.483  0.00  0.00    +0.044 A 
ATOM      9  N   UNL     1       7.346  -6.411  -6.915  0.00  0.00    -0.369 N 
ATOM     10  H   UNL     1       6.989  -7.303  -7.045  0.00  0.00    +0.161 HD
ENDROOT
BRANCH   1  12
ATOM     11  N   UNL     1       4.518  -4.389  -5.714  0.00  0.00    -0.309 N 
ATOM     12  C   UNL     1       5.371  -5.035  -6.533  0.00  0.00    +0.241 C 
ATOM     13  O   UNL     1       5.021  -5.340  -7.654  0.00  0.00    -0.273 OA
ATOM     14  H   UNL     1       4.797  -4.144  -4.818  0.00  0.00    +0.149 HD
BRANCH  11  15
ATOM     15  C   UNL     1       3.168  -4.056  -6.176  0.00  0.00    +0.139 C 
BRANCH  15  19
ATOM     16  C   UNL     1       1.053  -2.032  -3.063  0.00  0.00    +0.121 A 
ATOM     17  C   UNL     1       1.798  -1.308  -3.982  0.00  0.00    +0.046 A 
ATOM     18  C   UNL     1       2.481  -1.964  -4.987  0.00  0.00    +0.009 A 
ATOM     19  C   UNL     1       2.422  -3.343  -5.078  0.00  0.00    -0.030 A 
ATOM     20  C   UNL     1       1.680  -4.067  -4.164  0.00  0.00    +0.009 A 
ATOM     21  C   UNL     1       1.001  -3.416  -3.153  0.00  0.00    +0.046 A 
BRANCH  16  22
ATOM     22  O   UNL     1       0.381  -1.389  -2.073  0.00  0.00    -0.492 OA
BRANCH  22  23
ATOM     23  C   UNL     1       0.480   0.037  -2.042  0.00  0.00    +0.229 C 
BRANCH  23  25
ATOM     24  C   UNL     1      -0.230   2.105  -0.834  0.00  0.00    +0.007 C 
ATOM     25  C   UNL     1      -0.337   0.579  -0.867  0.00  0.00    +0.038 C 
ENDBRANCH  23  25
ENDBRANCH  22  23
ENDBRANCH  16  22
ENDBRANCH  15  19
ENDBRANCH  11  15
ENDBRANCH   1  12
BRANCH   2  26
ATOM     26  S   UNL     1       7.483  -2.703  -5.422  0.00  0.00    -0.091 S 
BRANCH  26  27
ATOM     27  C   UNL     1       7.768  -3.062  -3.721  0.00  0.00    +0.013 A 
ATOM     28  C   UNL     1       8.194  -4.328  -3.338  0.00  0.00    +0.015 A 
ATOM     29  C   UNL     1       8.416  -4.606  -2.004  0.00  0.00    +0.004 A 
ATOM     30  C   UNL     1       8.214  -3.627  -1.049  0.00  0.00    -0.050 A 
ATOM     31  C   UNL     1       7.789  -2.366  -1.426  0.00  0.00    +0.004 A 
ATOM     32  C   UNL     1       7.571  -2.079  -2.759  0.00  0.00    +0.015 A 
ATOM     33  C   UNL     1       8.456  -3.934   0.406  0.00  0.00    +0.044 C 
ENDBRANCH  26  27
ENDBRANCH   2  26
TORSDOF 8
