REMARK  Name = ZINC39464264
REMARK  4 active torsions:
REMARK  status: ('A' for Active; 'I' for Inactive)
REMARK    1  A    between atoms: C_4  and  C_7
REMARK    2  A    between atoms: C_7  and  C_8
REMARK    3  A    between atoms: P_19  and  C_25
REMARK    4  A    between atoms: C_30  and  O_31
REMARK                            x       y       z     vdW  Elec       q    Type
REMARK                         _______ _______ _______ _____ _____    ______ ____
ROOT
ATOM      1  C   UNL     1       4.164  -0.959   1.377  0.00  0.00    -0.024 A 
ATOM      2  C   UNL     1       3.974  -2.199   1.955  0.00  0.00    +0.009 A 
ATOM      3  C   UNL     1       4.388  -2.436   3.257  0.00  0.00    -0.041 A 
ATOM      4  C   UNL     1       4.994  -1.431   3.981  0.00  0.00    -0.022 A 
ATOM      5  C   UNL     1       5.185  -0.186   3.399  0.00  0.00    +0.025 A 
ATOM      6  C   UNL     1       4.778   0.048   2.100  0.00  0.00    +0.045 A 
ATOM      7 CL   UNL     1       5.030   1.607   1.377  0.00  0.00    -0.083 Cl
ATOM      8  C   UNL     1       5.460  -1.635   5.398  0.00  0.00    +0.129 C 
ATOM      9  C   UNL     1       6.834  -0.982   5.571  0.00  0.00    +0.194 C 
ATOM     10  O   UNL     1       7.220  -1.078   6.956  0.00  0.00    -0.311 OA
ATOM     11  P   UNL     1       7.122  -2.530   7.684  0.00  0.00    +0.318 P 
ATOM     12  O   UNL     1       7.008  -2.360   9.150  0.00  0.00    -0.266 OA
ATOM     13  N   UNL     1       5.755  -3.238   7.082  0.00  0.00    -0.175 NA
ATOM     14  N   UNL     1       5.527  -3.058   5.733  0.00  0.00    -0.225 NA
ATOM     15  C   UNL     1       4.281  -3.745   5.359  0.00  0.00    +0.108 C 
ATOM     16  C   UNL     1       4.161  -3.804   3.847  0.00  0.00    +0.052 C 
ATOM     17  H   UNL     1       5.159  -3.755   7.646  0.00  0.00    +0.151 HD
ENDROOT
BRANCH  11  18
ATOM     18  C   UNL     1       8.580  -3.531   7.282  0.00  0.00    +0.094 A 
ATOM     19  C   UNL     1       8.571  -4.351   6.170  0.00  0.00    +0.018 A 
ATOM     20  C   UNL     1       9.682  -5.115   5.864  0.00  0.00    +0.001 A 
ATOM     21  C   UNL     1      10.805  -5.061   6.670  0.00  0.00    +0.004 A 
ATOM     22  C   UNL     1      10.819  -4.244   7.783  0.00  0.00    +0.046 A 
ATOM     23  C   UNL     1       9.707  -3.472   8.089  0.00  0.00    +0.131 A 
BRANCH  23  24
ATOM     24  O   UNL     1       9.721  -2.662   9.181  0.00  0.00    -0.506 OA
ATOM     25  H   UNL     1       9.406  -3.088   9.990  0.00  0.00    +0.292 HD
ENDBRANCH  23  24
ENDBRANCH  11  18
BRANCH   1  26
ATOM     26  C   UNL     1       3.711  -0.707  -0.038  0.00  0.00    +0.071 C 
BRANCH  26  30
ATOM     27  C   UNL     1      -0.017   1.378   0.010  0.00  0.00    +0.000 A 
ATOM     28  C   UNL     1       1.171   2.086   0.002  0.00  0.00    +0.000 A 
ATOM     29  C   UNL     1       2.377   1.411  -0.013  0.00  0.00    +0.004 A 
ATOM     30  C   UNL     1       2.396   0.029  -0.020  0.00  0.00    -0.043 A 
ATOM     31  C   UNL     1       1.208  -0.679  -0.012  0.00  0.00    +0.004 A 
ATOM     32  C   UNL     1       0.002  -0.004   0.002  0.00  0.00    +0.000 A 
ENDBRANCH  26  30
ENDBRANCH   1  26
TORSDOF 4
