REMARK  Name = ZINC36157063
REMARK  8 active torsions:
REMARK  status: ('A' for Active; 'I' for Inactive)
REMARK    1  A    between atoms: C_4  and  N_7
REMARK    2  A    between atoms: N_7  and  C_8
REMARK    3  A    between atoms: N_7  and  C_24
REMARK    4  A    between atoms: C_8  and  C_9
REMARK    5  A    between atoms: C_24  and  C_25
REMARK    6  A    between atoms: C_25  and  C_27
REMARK    7  A    between atoms: C_25  and  O_34
REMARK    8  A    between atoms: C_27  and  N_28
REMARK                            x       y       z     vdW  Elec       q    Type
REMARK                         _______ _______ _______ _____ _____    ______ ____
ROOT
ATOM      1  N   UNL     1       2.651  -0.369  -2.298  0.00  0.00    +0.388 N 
ATOM      2  H   UNL     1       1.805   0.105  -2.577  0.00  0.00    -0.081 HD
ENDROOT
BRANCH   1   6
ATOM      3  C   UNL     1       2.825  -2.095   1.604  0.00  0.00    -0.000 C 
ATOM      4  C   UNL     1       1.533  -1.396   1.179  0.00  0.00    -0.002 C 
ATOM      5  C   UNL     1       1.490  -1.286  -0.346  0.00  0.00    -0.015 C 
ATOM      6  C   UNL     1       2.692  -0.475  -0.833  0.00  0.00    -0.068 C 
ATOM      7  C   UNL     1       3.985  -1.174  -0.409  0.00  0.00    -0.015 C 
ATOM      8  C   UNL     1       4.028  -1.284   1.117  0.00  0.00    -0.002 C 
ENDBRANCH   1   6
BRANCH   1   9
ATOM      9  C   UNL     1       2.675  -1.714  -2.887  0.00  0.00    -0.003 C 
BRANCH   9  10
ATOM     10  C   UNL     1       1.278  -2.281  -2.905  0.00  0.00    +0.094 A 
ATOM     11  N   UNL     1       1.088  -3.576  -3.266  0.00  0.00    -0.312 N 
ATOM     12  H   UNL     1       1.855  -4.119  -3.508  0.00  0.00    +0.170 HD
ATOM     13  C   UNL     1      -0.142  -4.121  -3.295  0.00  0.00    +0.260 A 
ATOM     14  O   UNL     1      -0.296  -5.286  -3.621  0.00  0.00    -0.267 OA
ATOM     15  C   UNL     1      -1.268  -3.310  -2.936  0.00  0.00    +0.075 A 
ATOM     16  C   UNL     1      -2.681  -3.684  -2.896  0.00  0.00    -0.023 A 
ATOM     17  C   UNL     1      -3.557  -2.729  -2.520  0.00  0.00    -0.004 A 
ATOM     18  S   UNL     1      -2.564  -1.295  -2.201  0.00  0.00    -0.073 S 
ATOM     19  C   UNL     1      -0.972  -1.986  -2.576  0.00  0.00    +0.116 A 
ATOM     20  N   UNL     1       0.273  -1.518  -2.567  0.00  0.00    -0.229 NA
ATOM     21  C   UNL     1      -5.045  -2.857  -2.400  0.00  0.00    +0.043 C 
ATOM     22  C   UNL     1      -5.480  -4.138  -3.128  0.00  0.00    +0.005 C 
ATOM     23  C   UNL     1      -4.569  -5.287  -2.686  0.00  0.00    +0.005 C 
ATOM     24  C   UNL     1      -3.165  -5.086  -3.259  0.00  0.00    +0.037 C 
ENDBRANCH   9  10
ENDBRANCH   1   9
BRANCH   1  25
ATOM     25  C   UNL     1       3.816   0.392  -2.767  0.00  0.00    -0.045 C 
BRANCH  25  26
ATOM     26  C   UNL     1       3.716   1.836  -2.271  0.00  0.00    +0.112 C 
BRANCH  26  27
ATOM     27  O   UNL     1       2.521   2.432  -2.778  0.00  0.00    -0.392 OA
ATOM     28  H   UNL     1       2.473   2.459  -3.743  0.00  0.00    +0.210 HD
ENDBRANCH  26  27
BRANCH  26  29
ATOM     29  C   UNL     1       4.929   2.629  -2.761  0.00  0.00    +0.114 C 
BRANCH  29  30
ATOM     30  N   UNL     1       4.822   4.020  -2.302  0.00  0.00    -0.296 NA
ATOM     31  C   UNL     1       5.682   4.906  -3.100  0.00  0.00    +0.112 C 
ATOM     32  C   UNL     1       5.496   6.351  -2.629  0.00  0.00    +0.175 C 
ATOM     33  O   UNL     1       5.785   6.432  -1.231  0.00  0.00    -0.377 OA
ATOM     34  C   UNL     1       4.965   5.583  -0.423  0.00  0.00    +0.175 C 
ATOM     35  C   UNL     1       5.146   4.130  -0.872  0.00  0.00    +0.112 C 
ENDBRANCH  29  30
ENDBRANCH  26  29
ENDBRANCH  25  26
ENDBRANCH   1  25
TORSDOF 8
