REMARK  Name = ZINC12191869
REMARK  7 active torsions:
REMARK  status: ('A' for Active; 'I' for Inactive)
REMARK    1  A    between atoms: C_1  and  C_2
REMARK    2  A    between atoms: C_2  and  C_4
REMARK    3  A    between atoms: C_2  and  S_16
REMARK    4  A    between atoms: N_9  and  C_10
REMARK    5  A    between atoms: S_16  and  C_17
REMARK    6  A    between atoms: C_21  and  C_24
REMARK    7  A    between atoms: N_32  and  C_33
REMARK                            x       y       z     vdW  Elec       q    Type
REMARK                         _______ _______ _______ _____ _____    ______ ____
ROOT
ATOM      1  S   UNL     1      -0.747   3.384   1.270  0.00  0.00    -0.075 S 
ENDROOT
BRANCH   1   2
ATOM      2  C   UNL     1       0.981   3.708   1.397  0.00  0.00    +0.173 A 
ATOM      3  N   UNL     1       1.829   2.701   1.448  0.00  0.00    -0.216 NA
ATOM      4  C   UNL     1       3.136   2.915   1.543  0.00  0.00    +0.117 A 
ATOM      5  C   UNL     1       3.678   4.211   1.594  0.00  0.00    +0.080 A 
ATOM      6  C   UNL     1       5.132   4.269   1.698  0.00  0.00    +0.004 A 
ATOM      7  C   UNL     1       5.829   3.109   1.737  0.00  0.00    +0.056 A 
ATOM      8  S   UNL     1       4.561   1.861   1.635  0.00  0.00    -0.076 S 
ATOM      9  C   UNL     1       2.734   5.283   1.536  0.00  0.00    +0.263 A 
ATOM     10  O   UNL     1       3.113   6.441   1.573  0.00  0.00    -0.267 OA
ATOM     11  N   UNL     1       1.423   4.998   1.434  0.00  0.00    -0.290 N 
ATOM     12  C   UNL     1       0.452   6.093   1.369  0.00  0.00    +0.154 C 
BRANCH   6  13
ATOM     13  C   UNL     1       5.834   5.573   1.760  0.00  0.00    -0.017 A 
ATOM     14  C   UNL     1       5.554   6.564   0.820  0.00  0.00    +0.008 A 
ATOM     15  C   UNL     1       6.207   7.778   0.886  0.00  0.00    +0.001 A 
ATOM     16  C   UNL     1       7.145   8.009   1.876  0.00  0.00    +0.000 A 
ATOM     17  C   UNL     1       7.430   7.028   2.809  0.00  0.00    +0.001 A 
ATOM     18  C   UNL     1       6.780   5.812   2.756  0.00  0.00    +0.008 A 
ENDBRANCH   6  13
ENDBRANCH   1   2
BRANCH   1  20
ATOM     19  C   UNL     1      -0.020   1.082  -0.009  0.00  0.00    +0.029 C 
ATOM     20  C   UNL     1      -0.727   1.574   1.255  0.00  0.00    +0.137 C 
BRANCH  20  21
ATOM     21  C   UNL     1      -2.142   1.056   1.274  0.00  0.00    +0.234 C 
ATOM     22  O   UNL     1      -3.045   1.745   0.850  0.00  0.00    -0.274 OA
ATOM     23  N   UNL     1      -2.403  -0.173   1.761  0.00  0.00    -0.239 N 
ATOM     24  C   UNL     1      -3.669  -0.636   1.778  0.00  0.00    +0.310 C 
ATOM     25  O   UNL     1      -4.574   0.054   1.353  0.00  0.00    -0.252 OA
ATOM     26  N   UNL     1      -3.930  -1.866   2.265  0.00  0.00    -0.269 N 
ATOM     27  H   UNL     1      -1.680  -0.724   2.100  0.00  0.00    +0.159 HD
ATOM     28  H   UNL     1      -3.201  -2.443   2.542  0.00  0.00    +0.156 HD
BRANCH  26  29
ATOM     29  C   UNL     1      -5.253  -2.309   2.372  0.00  0.00    +0.035 A 
ATOM     30  C   UNL     1      -5.628  -3.129   3.429  0.00  0.00    +0.023 A 
ATOM     31  C   UNL     1      -6.936  -3.562   3.534  0.00  0.00    +0.002 A 
ATOM     32  C   UNL     1      -7.868  -3.187   2.583  0.00  0.00    +0.000 A 
ATOM     33  C   UNL     1      -7.496  -2.375   1.528  0.00  0.00    +0.002 A 
ATOM     34  C   UNL     1      -6.191  -1.935   1.420  0.00  0.00    +0.023 A 
ENDBRANCH  26  29
ENDBRANCH  20  21
ENDBRANCH   1  20
TORSDOF 5
