REMARK  Name = ZINC41992389
REMARK  5 active torsions:
REMARK  status: ('A' for Active; 'I' for Inactive)
REMARK    1  A    between atoms: C_1  and  C_2
REMARK    2  A    between atoms: C_2  and  C_3
REMARK    3  A    between atoms: C_2  and  C_11
REMARK    4  A    between atoms: C_2  and  S_14
REMARK    5  A    between atoms: S_14  and  C_15
REMARK                            x       y       z     vdW  Elec       q    Type
REMARK                         _______ _______ _______ _____ _____    ______ ____
ROOT
ATOM      1  C   UNL     1      -0.019   1.526   0.010  0.00  0.00    +0.040 C 
ATOM      2  C   UNL     1       0.002  -0.004   0.002  0.00  0.00    +0.149 C 
ENDROOT
BRANCH   2   3
ATOM      3  C   UNL     1       0.731  -0.503   1.223  0.00  0.00    +0.017 A 
ATOM      4  C   UNL     1       0.081  -1.317   2.132  0.00  0.00    +0.046 A 
ATOM      5  C   UNL     1       0.750  -1.775   3.253  0.00  0.00    +0.124 A 
ATOM      6  C   UNL     1       2.072  -1.420   3.464  0.00  0.00    +0.041 A 
ATOM      7  C   UNL     1       2.722  -0.607   2.555  0.00  0.00    +0.041 A 
ATOM      8  C   UNL     1       2.054  -0.152   1.431  0.00  0.00    +0.129 A 
ATOM      9  F   UNL     1       2.691   0.639   0.540  0.00  0.00    -0.205 F 
ATOM     10  F   UNL     1       0.114  -2.570   4.141  0.00  0.00    -0.205 F 
ENDBRANCH   2   3
BRANCH   2  11
ATOM     11  C   UNL     1       0.707  -0.490  -1.238  0.00  0.00    +0.376 C 
ATOM     12  O   UNL     1       1.869  -0.179  -1.440  0.00  0.00    -0.244 OA
ATOM     13  O   UNL     1       0.117  -1.195  -2.039  0.00  0.00    -0.244 OA
ENDBRANCH   2  11
BRANCH   2  14
ATOM     14  S   UNL     1      -1.700  -0.632   0.015  0.00  0.00    -0.061 S 
BRANCH  14  15
ATOM     15  C   UNL     1      -2.410   0.030  -1.456  0.00  0.00    +0.211 A 
ATOM     16  N   UNL     1      -3.668  -0.163  -1.867  0.00  0.00    -0.188 NA
ATOM     17  C   UNL     1      -3.865   0.474  -3.002  0.00  0.00    +0.209 A 
ATOM     18  N   UNL     1      -2.715   1.095  -3.337  0.00  0.00    -0.246 N 
ATOM     19  H   UNL     1      -2.558   1.641  -4.122  0.00  0.00    +0.192 HD
ATOM     20  N   UNL     1      -1.792   0.798  -2.321  0.00  0.00    -0.144 NA
ATOM     21  N   UNL     1      -5.044   0.501  -3.724  0.00  0.00    -0.328 N 
ATOM     22  H   UNL     1      -5.822   0.021  -3.401  0.00  0.00    +0.145 HD
ATOM     23  H   UNL     1      -5.093   1.001  -4.554  0.00  0.00    +0.145 HD
ENDBRANCH  14  15
ENDBRANCH   2  14
TORSDOF 4
