REMARK  Name = ZINC14824280
REMARK  3 active torsions:
REMARK  status: ('A' for Active; 'I' for Inactive)
REMARK    1  A    between atoms: C_3  and  C_6
REMARK    2  A    between atoms: N_8  and  N_9
REMARK    3  A    between atoms: N_9  and  C_10
REMARK                            x       y       z     vdW  Elec       q    Type
REMARK                         _______ _______ _______ _____ _____    ______ ____
ROOT
ATOM      1  N   UNL     1      -2.457   3.824   0.046  0.00  0.00    -0.261 N 
ATOM      2  H   UNL     1      -2.492   4.745   0.349  0.00  0.00    +0.170 HD
ENDROOT
BRANCH   1   3
ATOM      3  C   UNL     1      -1.235   3.143   0.018  0.00  0.00    +0.081 A 
ATOM      4  C   UNL     1      -0.284   3.377   1.003  0.00  0.00    +0.066 A 
ATOM      5  C   UNL     1       0.924   2.708   0.969  0.00  0.00    +0.042 A 
ATOM      6  C   UNL     1       1.183   1.797  -0.040  0.00  0.00    +0.044 A 
ATOM      7  C   UNL     1       0.236   1.558  -1.020  0.00  0.00    +0.042 A 
ATOM      8  C   UNL     1      -0.972   2.228  -0.994  0.00  0.00    +0.066 A 
ATOM      9 CL   UNL     1      -2.159   1.928  -2.225  0.00  0.00    -0.081 Cl
ATOM     10 CL   UNL     1       2.700   0.952  -0.076  0.00  0.00    -0.083 Cl
ATOM     11 CL   UNL     1      -0.612   4.514   2.274  0.00  0.00    -0.081 Cl
ENDBRANCH   1   3
BRANCH   1  14
ATOM     12  C   UNL     1      -4.787   3.863  -0.442  0.00  0.00    +0.295 C 
ATOM     13  O   UNL     1      -4.812   5.047  -0.162  0.00  0.00    -0.265 OA
ATOM     14  N   UNL     1      -3.630   3.176  -0.361  0.00  0.00    -0.230 N 
ATOM     15  H   UNL     1      -3.610   2.232  -0.584  0.00  0.00    +0.173 HD
BRANCH  12  18
ATOM     16  C   UNL     1      -8.121   2.748  -1.424  0.00  0.00    +0.042 A 
ATOM     17  C   UNL     1      -7.247   3.758  -0.993  0.00  0.00    +0.054 A 
ATOM     18  C   UNL     1      -6.015   3.184  -0.868  0.00  0.00    +0.190 A 
ATOM     19  O   UNL     1      -6.123   1.884  -1.212  0.00  0.00    -0.458 OA
ATOM     20  C   UNL     1      -7.393   1.616  -1.542  0.00  0.00    +0.196 A 
ENDBRANCH  12  18
ENDBRANCH   1  14
TORSDOF 3
