REMARK  Name = ZINC00826256
REMARK  13 active torsions:
REMARK  status: ('A' for Active; 'I' for Inactive)
REMARK    1  A    between atoms: C_1  and  C_2
REMARK    2  A    between atoms: C_3  and  C_28
REMARK    3  A    between atoms: C_4  and  C_16
REMARK    4  A    between atoms: C_10  and  C_14
REMARK    5  A    between atoms: C_10  and  C_15
REMARK    6  A    between atoms: C_19  and  O_26
REMARK    7  A    between atoms: C_20  and  O_24
REMARK    8  A    between atoms: C_21  and  O_22
REMARK    9  A    between atoms: O_22  and  C_23
REMARK   10  A    between atoms: O_24  and  C_25
REMARK   11  A    between atoms: O_26  and  C_27
REMARK   12  A    between atoms: C_28  and  O_30
REMARK   13  A    between atoms: O_30  and  C_31
REMARK                            x       y       z     vdW  Elec       q    Type
REMARK                         _______ _______ _______ _____ _____    ______ ____
ROOT
ATOM      1  C   UNL     1      -2.522  -0.123  -0.478  0.00  0.00    +0.061 C 
ATOM      2  C   UNL     1      -1.363   0.830  -0.623  0.00  0.00    +0.016 C 
ATOM      3  C   UNL     1      -1.596   2.121  -0.908  0.00  0.00    +0.065 C 
ATOM      4  C   UNL     1      -0.469   3.097  -1.075  0.00  0.00    +0.096 C 
ATOM      5  C   UNL     1       0.804   2.562  -0.469  0.00  0.00    +0.024 C 
ATOM      6  C   UNL     1       0.938   1.247  -0.194  0.00  0.00    +0.016 C 
ATOM      7  N   UNL     1      -0.085   0.375  -0.458  0.00  0.00    -0.321 N 
ATOM      8  C   UNL     1       2.208   0.704   0.412  0.00  0.00    +0.058 C 
ATOM      9  C   UNL     1       3.398   1.550  -0.047  0.00  0.00    -0.023 C 
ATOM     10  C   UNL     1       3.154   3.002   0.376  0.00  0.00    +0.086 C 
ATOM     11  C   UNL     1       1.846   3.467  -0.204  0.00  0.00    +0.162 C 
ATOM     12  O   UNL     1       1.688   4.647  -0.447  0.00  0.00    -0.292 OA
ATOM     13  C   UNL     1       3.526   1.472  -1.570  0.00  0.00    +0.011 C 
ATOM     14  C   UNL     1       4.683   1.033   0.604  0.00  0.00    +0.011 C 
ATOM     15  H   UNL     1       0.131  -0.701  -0.536  0.00  0.00    +0.152 HD
ENDROOT
BRANCH   4  16
ATOM     16  C   UNL     1      -0.248   3.352  -2.544  0.00  0.00    +0.010 A 
ATOM     17  C   UNL     1      -0.098   2.288  -3.414  0.00  0.00    +0.012 A 
ATOM     18  C   UNL     1       0.100   2.517  -4.763  0.00  0.00    +0.050 A 
ATOM     19  C   UNL     1       0.159   3.815  -5.247  0.00  0.00    +0.165 A 
ATOM     20  C   UNL     1       0.013   4.887  -4.375  0.00  0.00    +0.204 A 
ATOM     21  C   UNL     1      -0.190   4.653  -3.020  0.00  0.00    +0.169 A 
BRANCH  21  22
ATOM     22  O   UNL     1      -0.333   5.698  -2.162  0.00  0.00    -0.491 OA
ATOM     23  C   UNL     1      -1.620   6.315  -2.098  0.00  0.00    +0.277 C 
ENDBRANCH  21  22
BRANCH  20  24
ATOM     24  O   UNL     1       0.071   6.162  -4.845  0.00  0.00    -0.488 OA
ATOM     25  C   UNL     1       1.354   6.792  -4.859  0.00  0.00    +0.277 C 
ENDBRANCH  20  24
BRANCH  19  26
ATOM     26  O   UNL     1       0.359   4.039  -6.573  0.00  0.00    -0.491 OA
ATOM     27  C   UNL     1       0.499   2.890  -7.411  0.00  0.00    +0.277 C 
ENDBRANCH  19  26
ENDBRANCH   4  16
BRANCH   3  28
ATOM     28  C   UNL     1      -2.929   2.569  -1.061  0.00  0.00    +0.337 C 
ATOM     29  O   UNL     1      -3.853   1.787  -0.928  0.00  0.00    -0.245 OA
BRANCH  28  30
ATOM     30  O   UNL     1      -3.177   3.863  -1.353  0.00  0.00    -0.465 OA
ATOM     31  C   UNL     1      -4.547   4.245  -1.493  0.00  0.00    +0.280 C 
ENDBRANCH  28  30
ENDBRANCH   3  28
TORSDOF 6
