REMARK  Name = ZINC25584009
REMARK  10 active torsions:
REMARK  status: ('A' for Active; 'I' for Inactive)
REMARK    1  A    between atoms: C_1  and  C_2
REMARK    2  A    between atoms: C_2  and  O_3
REMARK    3  A    between atoms: O_3  and  C_4
REMARK    4  A    between atoms: C_4  and  C_6
REMARK    5  A    between atoms: C_10  and  N_11
REMARK    6  A    between atoms: C_12  and  C_14
REMARK    7  A    between atoms: N_16  and  N_17
REMARK    8  A    between atoms: C_18  and  C_19
REMARK    9  A    between atoms: C_22  and  C_24
REMARK   10  A    between atoms: C_27  and  N_30
REMARK                            x       y       z     vdW  Elec       q    Type
REMARK                         _______ _______ _______ _____ _____    ______ ____
ROOT
ATOM      1  C   UNL     1      -5.086   5.177   0.080  0.00  0.00    +0.318 C 
ATOM      2  O   UNL     1      -5.530   4.049   0.077  0.00  0.00    -0.263 OA
ATOM      3  N   UNL     1      -3.753   5.377   0.068  0.00  0.00    -0.199 N 
ATOM      4  H   UNL     1      -3.350   6.401   0.070  0.00  0.00    +0.178 HD
ENDROOT
BRANCH   1   6
ATOM      5  N   UNL     1      -7.348   6.144   0.107  0.00  0.00    -0.271 N 
ATOM      6  C   UNL     1      -6.015   6.344   0.096  0.00  0.00    +0.305 C 
ATOM      7  O   UNL     1      -5.570   7.474   0.098  0.00  0.00    -0.265 OA
ATOM      8  H   UNL     1      -7.750   5.121   0.105  0.00  0.00    +0.156 HD
BRANCH   5  13
ATOM      9  C   UNL     1      -9.599   7.224   0.129  0.00  0.00    +0.091 A 
ATOM     10  C   UNL     1     -10.271   8.511   0.150  0.00  0.00    -0.021 A 
ATOM     11  C   UNL     1      -9.454   9.588   0.147  0.00  0.00    -0.004 A 
ATOM     12  S   UNL     1      -7.817   8.914   0.128  0.00  0.00    -0.077 S 
ATOM     13  C   UNL     1      -8.209   7.226   0.122  0.00  0.00    +0.087 A 
ATOM     14  C   UNL     1      -9.861  11.029   0.159  0.00  0.00    +0.043 C 
ATOM     15  C   UNL     1     -11.350  11.115  -0.205  0.00  0.00    +0.005 C 
ATOM     16  C   UNL     1     -12.122  10.092   0.634  0.00  0.00    +0.005 C 
ATOM     17  C   UNL     1     -11.786   8.675   0.166  0.00  0.00    +0.037 C 
BRANCH   9  18
ATOM     18  C   UNL     1     -10.357   5.970   0.121  0.00  0.00    +0.342 C 
ATOM     19  O   UNL     1     -10.666   5.440   1.171  0.00  0.00    -0.245 OA
BRANCH  18  20
ATOM     20  O   UNL     1     -10.711   5.404  -1.050  0.00  0.00    -0.461 OA
BRANCH  20  22
ATOM     21  C   UNL     1     -11.771   3.675  -2.399  0.00  0.00    +0.048 C 
ATOM     22  C   UNL     1     -11.461   4.162  -0.982  0.00  0.00    +0.229 C 
ENDBRANCH  20  22
ENDBRANCH  18  20
ENDBRANCH   9  18
ENDBRANCH   5  13
ENDBRANCH   1   6
BRANCH   3  23
ATOM     23  N   UNL     1      -2.950   4.368   0.054  0.00  0.00    -0.184 NA
ATOM     24  C   UNL     1      -1.637   4.564   0.043  0.00  0.00    +0.176 C 
BRANCH  24  25
ATOM     25  C   UNL     1      -0.772   3.478   0.028  0.00  0.00    +0.148 A 
ATOM     26  C   UNL     1       0.698   3.534   0.014  0.00  0.00    +0.051 A 
ATOM     27  C   UNL     1       1.129   2.247   0.003  0.00  0.00    +0.050 A 
ATOM     28  C   UNL     1      -0.017   1.413   0.010  0.00  0.00    +0.136 A 
ATOM     29  O   UNL     1      -1.125   2.174   0.019  0.00  0.00    -0.454 OA
BRANCH  28  30
ATOM     30  C   UNL     1       0.002  -0.004   0.002  0.00  0.00    +0.017 A 
ATOM     31  C   UNL     1       1.228  -0.697  -0.019  0.00  0.00    +0.014 A 
ATOM     32  C   UNL     1       1.235  -2.063  -0.021  0.00  0.00    +0.033 A 
ATOM     33  C   UNL     1       0.040  -2.768  -0.013  0.00  0.00    +0.126 A 
ATOM     34  C   UNL     1      -1.174  -2.095   0.002  0.00  0.00    +0.033 A 
ATOM     35  C   UNL     1      -1.205  -0.730   0.010  0.00  0.00    +0.014 A 
BRANCH  33  36
ATOM     36  N   UNL     1       0.060  -4.248  -0.020  0.00  0.00    +0.056 N 
ATOM     37  O   UNL     1      -1.072  -4.922  -0.013  0.00  0.00    -0.126 OA
ATOM     38  O   UNL     1       1.209  -4.891  -0.034  0.00  0.00    -0.126 OA
ENDBRANCH  33  36
ENDBRANCH  28  30
ENDBRANCH  24  25
ENDBRANCH   3  23
TORSDOF 9
