REMARK  Name = ZINC01382122
REMARK  1 active torsions:
REMARK  status: ('A' for Active; 'I' for Inactive)
REMARK    1  A    between atoms: C_8  and  C_9
REMARK                            x       y       z     vdW  Elec       q    Type
REMARK                         _______ _______ _______ _____ _____    ______ ____
ROOT
ATOM      1  C   UNL     1      -0.429  -2.141  -0.005  0.00  0.00    +0.141 A 
ATOM      2  N   UNL     1       0.935  -2.029  -0.018  0.00  0.00    -0.338 N 
ATOM      3  H   UNL     1       1.593  -2.783  -0.028  0.00  0.00    +0.167 HD
ATOM      4  C   UNL     1       1.235  -0.679  -0.013  0.00  0.00    +0.068 A 
ATOM      5  C   UNL     1       2.420   0.043  -0.021  0.00  0.00    +0.049 A 
ATOM      6  C   UNL     1       2.385   1.422  -0.014  0.00  0.00    +0.061 A 
ATOM      7  C   UNL     1       1.169   2.095   0.002  0.00  0.00    +0.061 A 
ATOM      8  C   UNL     1      -0.017   1.395   0.010  0.00  0.00    +0.051 A 
ATOM      9  C   UNL     1       0.002  -0.004   0.002  0.00  0.00    +0.091 A 
ATOM     10  N   UNL     1      -0.972  -0.948   0.006  0.00  0.00    -0.228 NA
ATOM     11 CL   UNL     1       1.144   3.830   0.011  0.00  0.00    -0.082 Cl
ATOM     12 CL   UNL     1       3.869   2.323  -0.024  0.00  0.00    -0.082 Cl
ENDROOT
BRANCH   1  20
ATOM     13  C   UNL     1      -0.484  -4.648  -0.022  0.00  0.00    +0.018 A 
ATOM     14  C   UNL     1      -1.198  -5.807  -0.015  0.00  0.00    +0.071 A 
ATOM     15  C   UNL     1      -2.603  -5.755  -0.001  0.00  0.00    +0.249 A 
ATOM     16  O   UNL     1      -3.248  -6.792   0.001  0.00  0.00    -0.268 OA
ATOM     17  N   UNL     1      -3.243  -4.571   0.010  0.00  0.00    -0.328 N 
ATOM     18  H   UNL     1      -4.242  -4.551   0.020  0.00  0.00    +0.168 HD
ATOM     19  C   UNL     1      -2.555  -3.411   0.009  0.00  0.00    +0.097 A 
ATOM     20  C   UNL     1      -1.177  -3.415  -0.004  0.00  0.00    +0.033 A 
ENDBRANCH   1  20
TORSDOF 1
