REMARK  Name = ZINC02084114
REMARK  12 active torsions:
REMARK  status: ('A' for Active; 'I' for Inactive)
REMARK    1  A    between atoms: C_1  and  C_2
REMARK    2  A    between atoms: C_2  and  C_3
REMARK    3  A    between atoms: C_3  and  C_4
REMARK    4  A    between atoms: C_4  and  C_5
REMARK    5  A    between atoms: C_5  and  C_6
REMARK    6  A    between atoms: N_8  and  C_9
REMARK    7  A    between atoms: C_10  and  C_24
REMARK    8  A    between atoms: C_15  and  C_19
REMARK    9  A    between atoms: C_19  and  C_20
REMARK   10  A    between atoms: C_19  and  C_21
REMARK   11  A    between atoms: C_19  and  C_22
REMARK   12  A    between atoms: C_22  and  C_23
REMARK                            x       y       z     vdW  Elec       q    Type
REMARK                         _______ _______ _______ _____ _____    ______ ____
ROOT
ATOM      1  C   UNL     1      -1.113  -6.631  -1.952  0.00  0.00    +0.084 A 
ATOM      2  C   UNL     1       0.139  -6.139  -2.296  0.00  0.00    +0.068 A 
ATOM      3  C   UNL     1       0.381  -4.720  -2.095  0.00  0.00    -0.023 A 
ATOM      4  C   UNL     1      -0.659  -4.026  -1.585  0.00  0.00    -0.004 A 
ATOM      5  S   UNL     1      -1.944  -5.225  -1.372  0.00  0.00    -0.077 S 
ATOM      6  C   UNL     1      -0.701  -2.562  -1.272  0.00  0.00    +0.046 C 
ATOM      7  C   UNL     1       0.739  -2.027  -1.265  0.00  0.00    -0.000 C 
ATOM      8  C   UNL     1       1.455  -2.524  -2.524  0.00  0.00    +0.009 C 
ATOM      9  C   UNL     1       1.699  -4.031  -2.424  0.00  0.00    +0.037 C 
ENDROOT
BRANCH   2  10
ATOM     10  C   UNL     1       1.177  -7.018  -2.842  0.00  0.00    +0.244 C 
ATOM     11  O   UNL     1       1.954  -7.580  -2.092  0.00  0.00    -0.270 OA
ATOM     12  N   UNL     1       1.272  -7.203  -4.173  0.00  0.00    -0.325 N 
ATOM     13  H   UNL     1       0.653  -6.755  -4.771  0.00  0.00    +0.145 HD
ATOM     14  H   UNL     1       1.959  -7.785  -4.534  0.00  0.00    +0.145 HD
ENDBRANCH   2  10
BRANCH   1  17
ATOM     15  C   UNL     1      -2.841  -8.223  -1.661  0.00  0.00    +0.218 C 
ATOM     16  O   UNL     1      -3.561  -7.348  -1.228  0.00  0.00    -0.275 OA
ATOM     17  N   UNL     1      -1.583  -7.931  -2.049  0.00  0.00    -0.279 N 
ATOM     18  H   UNL     1      -1.008  -8.631  -2.395  0.00  0.00    +0.155 HD
BRANCH  15  19
ATOM     19  C   UNL     1      -3.353  -9.637  -1.766  0.00  0.00    +0.096 C 
BRANCH  19  20
ATOM     20  C   UNL     1      -4.797  -9.695  -1.265  0.00  0.00    +0.009 C 
BRANCH  20  21
ATOM     21  C   UNL     1      -5.317 -11.130  -1.372  0.00  0.00    +0.000 C 
BRANCH  21  23
ATOM     22  C   UNL     1      -7.281 -12.623  -0.978  0.00  0.00    +0.004 C 
ATOM     23  C   UNL     1      -6.761 -11.188  -0.871  0.00  0.00    -0.003 C 
ENDBRANCH  21  23
ENDBRANCH  20  21
ENDBRANCH  19  20
ENDBRANCH  15  19
ENDBRANCH   1  17
BRANCH   7  24
ATOM     24  C   UNL     1       0.718  -0.497  -1.257  0.00  0.00    -0.032 C 
ATOM     25  C   UNL     1      -0.022   0.009  -2.496  0.00  0.00    +0.011 C 
ATOM     26  C   UNL     1       2.154   0.032  -1.268  0.00  0.00    +0.011 C 
BRANCH  24  27
ATOM     27  C   UNL     1       0.002  -0.004   0.002  0.00  0.00    +0.003 C 
ATOM     28  C   UNL     1      -0.019   1.526   0.010  0.00  0.00    +0.004 C 
ENDBRANCH  24  27
ENDBRANCH   7  24
TORSDOF 8
