REMARK  Name = ZINC54751885
REMARK  2 active torsions:
REMARK  status: ('A' for Active; 'I' for Inactive)
REMARK    1  A    between atoms: C_4  and  C_7
REMARK    2  A    between atoms: C_20  and  C_22
REMARK                            x       y       z     vdW  Elec       q    Type
REMARK                         _______ _______ _______ _____ _____    ______ ____
ROOT
ATOM      1  C   UNL     1       3.711  -0.707  -0.038  0.00  0.00    +0.024 C 
ATOM      2  C   UNL     1       3.791  -1.587  -1.288  0.00  0.00    +0.013 C 
ATOM      3  C   UNL     1       5.208  -2.140  -1.445  0.00  0.00    +0.037 C 
ATOM      4  C   UNL     1       5.621  -2.818  -0.141  0.00  0.00    -0.023 A 
ATOM      5  C   UNL     1       4.966  -2.544   1.014  0.00  0.00    -0.004 A 
ATOM      6  S   UNL     1       5.768  -3.538   2.248  0.00  0.00    -0.073 S 
ATOM      7  C   UNL     1       6.972  -4.314   1.218  0.00  0.00    +0.116 A 
ATOM      8  C   UNL     1       6.710  -3.771  -0.062  0.00  0.00    +0.075 A 
ATOM      9  C   UNL     1       7.543  -4.216  -1.146  0.00  0.00    +0.260 A 
ATOM     10  O   UNL     1       7.397  -3.807  -2.284  0.00  0.00    -0.267 OA
ATOM     11  N   UNL     1       8.500  -5.117  -0.822  0.00  0.00    -0.304 N 
ATOM     12  H   UNL     1       9.085  -5.445  -1.523  0.00  0.00    +0.170 HD
ATOM     13  C   UNL     1       8.678  -5.585   0.447  0.00  0.00    +0.180 A 
ATOM     14  N   UNL     1       7.930  -5.197   1.466  0.00  0.00    -0.219 NA
ATOM     15  C   UNL     1       3.817  -1.602   1.205  0.00  0.00    +0.051 C 
ENDROOT
BRANCH   1  19
ATOM     16  C   UNL     1      -0.017   1.378   0.010  0.00  0.00    +0.000 A 
ATOM     17  C   UNL     1       1.171   2.086   0.002  0.00  0.00    +0.000 A 
ATOM     18  C   UNL     1       2.377   1.411  -0.013  0.00  0.00    +0.004 A 
ATOM     19  C   UNL     1       2.396   0.029  -0.020  0.00  0.00    -0.044 A 
ATOM     20  C   UNL     1       1.208  -0.679  -0.012  0.00  0.00    +0.004 A 
ATOM     21  C   UNL     1       0.002  -0.004   0.002  0.00  0.00    +0.000 A 
ENDBRANCH   1  19
BRANCH  13  22
ATOM     22  C   UNL     1       9.756  -6.571   0.694  0.00  0.00    +0.196 A 
ATOM     23  N   UNL     1      10.517  -6.965  -0.318  0.00  0.00    -0.233 NA
ATOM     24  C   UNL     1      11.487  -7.842  -0.131  0.00  0.00    +0.115 A 
ATOM     25  C   UNL     1      11.704  -8.351   1.141  0.00  0.00    +0.039 A 
ATOM     26  C   UNL     1      10.889  -7.917   2.177  0.00  0.00    +0.115 A 
ATOM     27  N   UNL     1       9.940  -7.034   1.924  0.00  0.00    -0.233 NA
ENDBRANCH  13  22
TORSDOF 2
