REMARK  Name = ZINC21266044
REMARK  6 active torsions:
REMARK  status: ('A' for Active; 'I' for Inactive)
REMARK    1  A    between atoms: C_1  and  C_2
REMARK    2  A    between atoms: C_10  and  C_11
REMARK    3  A    between atoms: C_11  and  O_13
REMARK    4  A    between atoms: O_13  and  C_14
REMARK    5  A    between atoms: C_14  and  C_15
REMARK    6  A    between atoms: C_15  and  C_17
REMARK                            x       y       z     vdW  Elec       q    Type
REMARK                         _______ _______ _______ _____ _____    ______ ____
ROOT
ATOM      1  C   UNL     1      -2.513   5.811   0.055  0.00  0.00    +0.312 C 
ENDROOT
BRANCH   1   2
ATOM      2  C   UNL     1      -2.504   4.304   0.048  0.00  0.00    +0.200 C 
ATOM      3  O   UNL     1      -3.551   3.692   0.056  0.00  0.00    -0.288 OA
BRANCH   2   4
ATOM      4  C   UNL     1      -1.228   3.577   0.033  0.00  0.00    +0.021 A 
ATOM      5  C   UNL     1      -0.018   4.282   0.024  0.00  0.00    +0.013 A 
ATOM      6  C   UNL     1       1.167   3.604   0.010  0.00  0.00    +0.024 A 
ATOM      7  C   UNL     1       1.180   2.212   0.003  0.00  0.00    +0.037 A 
ATOM      8  C   UNL     1      -0.018   1.503   0.010  0.00  0.00    -0.025 A 
ATOM      9  C   UNL     1      -1.218   2.176   0.020  0.00  0.00    +0.017 A 
ATOM     10  C   UNL     1       0.002  -0.004   0.002  0.00  0.00    +0.046 C 
ATOM     11  C   UNL     1       1.197  -0.493  -0.817  0.00  0.00    +0.101 C 
ATOM     12  C   UNL     1       2.443   0.235  -0.389  0.00  0.00    +0.218 C 
ATOM     13  O   UNL     1       3.506  -0.348  -0.384  0.00  0.00    -0.275 OA
ATOM     14  N   UNL     1       2.392   1.526  -0.013  0.00  0.00    -0.285 N 
ATOM     15  H   UNL     1       3.318   2.039   0.284  0.00  0.00    +0.155 HD
ENDBRANCH   2   4
ENDBRANCH   1   2
BRANCH   1  16
ATOM     16  O   UNL     1      -3.884   6.287   0.070  0.00  0.00    -0.451 OA
BRANCH  16  17
ATOM     17  C   UNL     1      -4.068   7.623   0.078  0.00  0.00    +0.376 C 
ATOM     18  O   UNL     1      -3.108   8.369   0.072  0.00  0.00    -0.241 OA
BRANCH  17  28
ATOM     19  C   UNL     1      -4.764  10.654   0.111  0.00  0.00    +0.048 C 
ATOM     20  C   UNL     1      -5.734   9.501   0.108  0.00  0.00    +0.010 A 
ATOM     21  C   UNL     1      -7.194   9.579   0.117  0.00  0.00    +0.025 A 
ATOM     22  C   UNL     1      -8.112  10.633   0.130  0.00  0.00    +0.012 A 
ATOM     23  C   UNL     1      -9.451  10.364   0.142  0.00  0.00    +0.002 A 
ATOM     24  C   UNL     1      -9.905   9.052   0.142  0.00  0.00    +0.024 A 
ATOM     25  C   UNL     1      -9.016   7.998   0.128  0.00  0.00    +0.084 A 
ATOM     26  C   UNL     1      -7.647   8.247   0.116  0.00  0.00    +0.154 A 
ATOM     27  O   UNL     1      -6.564   7.447   0.102  0.00  0.00    -0.446 OA
ATOM     28  C   UNL     1      -5.428   8.177   0.093  0.00  0.00    +0.216 A 
ATOM     29 CL   UNL     1      -9.603   6.364   0.128  0.00  0.00    -0.080 Cl
ENDBRANCH  17  28
ENDBRANCH  16  17
ENDBRANCH   1  16
TORSDOF 5
