REMARK  Name = ZINC41106901
REMARK  7 active torsions:
REMARK  status: ('A' for Active; 'I' for Inactive)
REMARK    1  A    between atoms: C_1  and  C_2
REMARK    2  A    between atoms: C_6  and  C_8
REMARK    3  A    between atoms: C_10  and  C_18
REMARK    4  A    between atoms: C_11  and  C_17
REMARK    5  A    between atoms: N_12  and  C_16
REMARK    6  A    between atoms: N_20  and  C_21
REMARK    7  A    between atoms: C_26  and  C_27
REMARK                            x       y       z     vdW  Elec       q    Type
REMARK                         _______ _______ _______ _____ _____    ______ ____
ROOT
ATOM      1  C   UNL     1      -0.073  -3.331   3.009  0.00  0.00    +0.142 C 
ATOM      2  C   UNL     1      -1.515  -3.761   3.188  0.00  0.00    +0.056 C 
ATOM      3  C   UNL     1      -1.774  -5.084   3.249  0.00  0.00    +0.022 C 
ATOM      4  N   UNL     1      -0.768  -6.004   3.153  0.00  0.00    -0.262 N 
ATOM      5  C   UNL     1       0.521  -5.681   2.995  0.00  0.00    +0.307 C 
ATOM      6  O   UNL     1       1.346  -6.571   2.919  0.00  0.00    -0.252 OA
ATOM      7  N   UNL     1       0.934  -4.401   2.916  0.00  0.00    -0.288 N 
ATOM      8  C   UNL     1      -1.121  -7.424   3.228  0.00  0.00    +0.139 C 
ATOM      9  C   UNL     1      -3.195  -5.554   3.427  0.00  0.00    +0.061 C 
ATOM     10  H   UNL     1       1.874  -4.190   2.801  0.00  0.00    +0.151 HD
ENDROOT
BRANCH   1  16
ATOM     11  C   UNL     1       0.095   1.143   0.774  0.00  0.00    +0.044 C 
ATOM     12  C   UNL     1       0.092  -0.361   0.684  0.00  0.00    -0.050 A 
ATOM     13  C   UNL     1       0.169  -0.981  -0.549  0.00  0.00    +0.003 A 
ATOM     14  C   UNL     1       0.166  -2.361  -0.631  0.00  0.00    +0.001 A 
ATOM     15  C   UNL     1       0.088  -3.121   0.520  0.00  0.00    +0.006 A 
ATOM     16  C   UNL     1       0.013  -2.502   1.754  0.00  0.00    -0.022 A 
ATOM     17  C   UNL     1       0.019  -1.122   1.836  0.00  0.00    +0.009 A 
ENDBRANCH   1  16
BRANCH   2  18
ATOM     18  C   UNL     1      -2.557  -2.806   3.288  0.00  0.00    +0.248 C 
ATOM     19  O   UNL     1      -2.761  -2.236   4.344  0.00  0.00    -0.270 OA
ATOM     20  N   UNL     1      -3.321  -2.527   2.213  0.00  0.00    -0.281 N 
ATOM     21  H   UNL     1      -3.205  -3.031   1.392  0.00  0.00    +0.155 HD
BRANCH  20  22
ATOM     22  C   UNL     1      -4.282  -1.513   2.282  0.00  0.00    +0.045 A 
ATOM     23  C   UNL     1      -4.204  -0.547   3.277  0.00  0.00    +0.024 A 
ATOM     24  C   UNL     1      -5.153   0.453   3.341  0.00  0.00    +0.002 A 
ATOM     25  C   UNL     1      -6.181   0.494   2.417  0.00  0.00    +0.001 A 
ATOM     26  C   UNL     1      -6.262  -0.467   1.426  0.00  0.00    +0.014 A 
ATOM     27  C   UNL     1      -5.312  -1.466   1.352  0.00  0.00    +0.076 A 
BRANCH  27  28
ATOM     28  C   UNL     1      -5.397  -2.509   0.267  0.00  0.00    +0.419 C 
ATOM     29  F   UNL     1      -6.506  -2.248  -0.544  0.00  0.00    -0.166 F 
ATOM     30  F   UNL     1      -4.233  -2.472  -0.508  0.00  0.00    -0.166 F 
ATOM     31  F   UNL     1      -5.531  -3.775   0.847  0.00  0.00    -0.166 F 
ENDBRANCH  27  28
ENDBRANCH  20  22
ENDBRANCH   2  18
TORSDOF 4
