REMARK  Name = ZINC35807343
REMARK  3 active torsions:
REMARK  status: ('A' for Active; 'I' for Inactive)
REMARK    1  A    between atoms: C_1  and  C_2
REMARK    2  A    between atoms: C_23  and  C_31
REMARK    3  A    between atoms: C_31  and  C_33
REMARK                            x       y       z     vdW  Elec       q    Type
REMARK                         _______ _______ _______ _____ _____    ______ ____
ROOT
ATOM      1  C   UNL     1      -0.105   1.387   0.118  0.00  0.00    +0.044 C 
ATOM      2  C   UNL     1      -0.039  -0.118   0.068  0.00  0.00    -0.049 A 
ATOM      3  C   UNL     1      -0.024  -0.771  -1.152  0.00  0.00    +0.008 A 
ATOM      4  C   UNL     1       0.037  -2.146  -1.196  0.00  0.00    -0.025 A 
ATOM      5  C   UNL     1       0.084  -2.893  -0.024  0.00  0.00    +0.054 A 
ATOM      6  C   UNL     1       0.069  -2.228   1.201  0.00  0.00    +0.063 A 
ATOM      7  C   UNL     1       0.014  -0.849   1.241  0.00  0.00    +0.025 A 
ATOM      8 CL   UNL     1       0.127  -3.135   2.680  0.00  0.00    -0.082 Cl
ATOM      9  N   UNL     1       0.142  -4.256  -0.322  0.00  0.00    -0.285 N 
ATOM     10  C   UNL     1       0.140  -4.487  -1.648  0.00  0.00    +0.212 C 
ATOM     11  O   UNL     1       0.184  -5.569  -2.193  0.00  0.00    -0.277 OA
ATOM     12  C   UNL     1       0.071  -3.141  -2.326  0.00  0.00    +0.060 C 
ATOM     13  C   UNL     1      -1.171  -3.028  -3.201  0.00  0.00    +0.085 C 
ATOM     14  C   UNL     1      -1.780  -4.370  -3.495  0.00  0.00    -0.011 A 
ATOM     15  C   UNL     1      -1.305  -5.517  -4.090  0.00  0.00    +0.006 A 
ATOM     16  C   UNL     1      -2.128  -6.621  -4.223  0.00  0.00    +0.000 A 
ATOM     17  C   UNL     1      -3.429  -6.570  -3.755  0.00  0.00    +0.002 A 
ATOM     18  C   UNL     1      -3.909  -5.424  -3.157  0.00  0.00    +0.023 A 
ATOM     19  C   UNL     1      -3.087  -4.307  -3.020  0.00  0.00    +0.038 A 
ATOM     20  N   UNL     1      -3.337  -3.052  -2.461  0.00  0.00    -0.285 N 
ATOM     21  C   UNL     1      -2.264  -2.242  -2.529  0.00  0.00    +0.228 C 
ATOM     22  O   UNL     1      -2.191  -1.101  -2.125  0.00  0.00    -0.275 OA
ATOM     23  C   UNL     1      -0.699  -2.336  -4.489  0.00  0.00    +0.066 C 
ATOM     24  C   UNL     1       0.795  -2.698  -4.565  0.00  0.00    -0.055 C 
ATOM     25  N   UNL     1       1.253  -2.925  -3.175  0.00  0.00    +0.395 N 
ATOM     26  C   UNL     1       1.910  -1.663  -2.745  0.00  0.00    -0.076 C 
ATOM     27  C   UNL     1       2.604  -1.146  -4.028  0.00  0.00    -0.020 C 
ATOM     28  C   UNL     1       1.597  -1.532  -5.157  0.00  0.00    -0.016 C 
ATOM     29  H   UNL     1       0.180  -4.955   0.349  0.00  0.00    +0.155 HD
ATOM     30  H   UNL     1      -4.186  -2.794  -2.069  0.00  0.00    +0.155 HD
ATOM     31  H   UNL     1       1.883  -3.711  -3.126  0.00  0.00    -0.079 HD
ENDROOT
BRANCH  23  32
ATOM     32  C   UNL     1      -1.441  -2.876  -5.684  0.00  0.00    +0.166 C 
ATOM     33  O   UNL     1      -0.975  -3.795  -6.323  0.00  0.00    -0.292 OA
BRANCH  32  34
ATOM     34  C   UNL     1      -2.732  -2.288  -6.076  0.00  0.00    +0.018 A 
ATOM     35  C   UNL     1      -3.214  -1.150  -5.420  0.00  0.00    +0.011 A 
ATOM     36  C   UNL     1      -4.424  -0.605  -5.794  0.00  0.00    +0.001 A 
ATOM     37  C   UNL     1      -5.162  -1.181  -6.814  0.00  0.00    +0.000 A 
ATOM     38  C   UNL     1      -4.691  -2.307  -7.467  0.00  0.00    +0.001 A 
ATOM     39  C   UNL     1      -3.480  -2.860  -7.109  0.00  0.00    +0.011 A 
ENDBRANCH  32  34
ENDBRANCH  23  32
TORSDOF 2
