REMARK  Name = ZINC61887838
REMARK  4 active torsions:
REMARK  status: ('A' for Active; 'I' for Inactive)
REMARK    1  A    between atoms: C_4  and  N_7
REMARK    2  A    between atoms: N_10  and  C_11
REMARK    3  A    between atoms: C_16  and  C_18
REMARK    4  A    between atoms: N_19  and  O_20
REMARK                            x       y       z     vdW  Elec       q    Type
REMARK                         _______ _______ _______ _____ _____    ______ ____
ROOT
ATOM      1  N   UNL     1       3.265  -0.229  -2.520  0.00  0.00    -0.297 N 
ATOM      2  C   UNL     1       3.766  -1.480  -2.517  0.00  0.00    +0.300 C 
ATOM      3  O   UNL     1       3.744  -2.141  -1.496  0.00  0.00    -0.253 OA
ATOM      4  N   UNL     1       4.291  -1.999  -3.644  0.00  0.00    -0.296 N 
ATOM      5  H   UNL     1       3.282   0.298  -3.334  0.00  0.00    +0.151 HD
ATOM      6  H   UNL     1       4.308  -1.472  -4.459  0.00  0.00    +0.151 HD
ENDROOT
BRANCH   1  10
ATOM      7  C   UNL     1       0.717   2.023   0.056  0.00  0.00    +0.000 C 
ATOM      8  C   UNL     1       2.180   2.451  -0.069  0.00  0.00    +0.002 C 
ATOM      9  C   UNL     1       2.776   1.862  -1.349  0.00  0.00    +0.022 C 
ATOM     10  C   UNL     1       2.694   0.335  -1.294  0.00  0.00    +0.074 C 
ATOM     11  C   UNL     1       1.231  -0.093  -1.169  0.00  0.00    +0.022 C 
ATOM     12  C   UNL     1       0.635   0.496   0.111  0.00  0.00    +0.002 C 
ENDBRANCH   1  10
BRANCH   4  13
ATOM     13  C   UNL     1       4.835  -3.359  -3.641  0.00  0.00    +0.085 C 
ATOM     14  C   UNL     1       6.346  -3.323  -3.335  0.00  0.00    +0.023 C 
ATOM     15  C   UNL     1       6.942  -4.439  -4.228  0.00  0.00    +0.003 C 
ATOM     16  C   UNL     1       6.109  -4.316  -5.529  0.00  0.00    +0.013 C 
ATOM     17  C   UNL     1       4.683  -3.991  -5.035  0.00  0.00    +0.076 C 
BRANCH  17  18
ATOM     18  C   UNL     1       4.021  -3.016  -5.975  0.00  0.00    +0.136 C 
ATOM     19  N   UNL     1       2.747  -3.080  -6.180  0.00  0.00    -0.076 NA
ATOM     20  N   UNL     1       4.775  -2.058  -6.615  0.00  0.00    -0.344 N 
ATOM     21  H   UNL     1       5.731  -2.010  -6.462  0.00  0.00    +0.144 HD
ATOM     22  H   UNL     1       4.349  -1.430  -7.220  0.00  0.00    +0.144 HD
BRANCH  19  23
ATOM     23  O   UNL     1       1.955  -3.989  -5.438  0.00  0.00    -0.408 OA
ATOM     24  H   UNL     1       1.006  -3.912  -5.605  0.00  0.00    +0.328 HD
ENDBRANCH  19  23
ENDBRANCH  17  18
ENDBRANCH   4  13
TORSDOF 4
