REMARK  Name = ZINC66682139
REMARK  11 active torsions:
REMARK  status: ('A' for Active; 'I' for Inactive)
REMARK    1  A    between atoms: C_1  and  C_2
REMARK    2  A    between atoms: C_2  and  C_3
REMARK    3  A    between atoms: C_8  and  N_9
REMARK    4  A    between atoms: C_10  and  C_12
REMARK    5  A    between atoms: C_12  and  N_13
REMARK    6  A    between atoms: N_16  and  C_17
REMARK    7  A    between atoms: C_20  and  C_24
REMARK    8  A    between atoms: C_21  and  C_23
REMARK    9  A    between atoms: N_26  and  C_27
REMARK   10  A    between atoms: C_27  and  C_28
REMARK   11  A    between atoms: C_27  and  C_29
REMARK                            x       y       z     vdW  Elec       q    Type
REMARK                         _______ _______ _______ _____ _____    ______ ____
ROOT
ATOM      1  N   UNL     1      -1.912   0.146  -6.005  0.00  0.00    -0.291 N 
ATOM      2  C   UNL     1      -1.608   0.106  -7.318  0.00  0.00    +0.304 C 
ATOM      3  O   UNL     1      -0.484   0.382  -7.690  0.00  0.00    -0.252 OA
ATOM      4  N   UNL     1      -2.550  -0.241  -8.217  0.00  0.00    -0.269 N 
ATOM      5  H   UNL     1      -2.809  -0.075  -5.708  0.00  0.00    +0.151 HD
ATOM      6  H   UNL     1      -3.468  -0.368  -7.933  0.00  0.00    +0.156 HD
ENDROOT
BRANCH   4   7
ATOM      7  C   UNL     1      -2.203  -0.418  -9.556  0.00  0.00    +0.035 A 
ATOM      8  C   UNL     1      -0.943  -0.907  -9.889  0.00  0.00    +0.024 A 
ATOM      9  C   UNL     1      -0.598  -1.082 -11.209  0.00  0.00    +0.015 A 
ATOM     10  C   UNL     1      -1.515  -0.770 -12.217  0.00  0.00    +0.040 A 
ATOM     11  C   UNL     1      -2.779  -0.280 -11.880  0.00  0.00    -0.037 A 
ATOM     12  C   UNL     1      -3.120  -0.111 -10.556  0.00  0.00    +0.027 A 
ATOM     13  C   UNL     1      -3.771   0.058 -12.963  0.00  0.00    +0.044 C 
BRANCH  10  14
ATOM     14  C   UNL     1      -1.148  -0.957 -13.634  0.00  0.00    +0.245 C 
ATOM     15  O   UNL     1      -1.937  -0.661 -14.511  0.00  0.00    -0.270 OA
ATOM     16  N   UNL     1       0.062  -1.455 -13.957  0.00  0.00    -0.309 N 
ATOM     17  H   UNL     1       0.692  -1.691 -13.258  0.00  0.00    +0.149 HD
BRANCH  16  18
ATOM     18  C   UNL     1       0.426  -1.640 -15.364  0.00  0.00    +0.067 C 
ATOM     19  C   UNL     1       1.949  -1.603 -15.506  0.00  0.00    +0.027 C 
ATOM     20  C   UNL     1      -0.098  -2.992 -15.853  0.00  0.00    +0.027 C 
ENDBRANCH  16  18
ENDBRANCH  10  14
ENDBRANCH   4   7
BRANCH   1  21
ATOM     21  C   UNL     1      -0.888   0.523  -5.027  0.00  0.00    +0.202 C 
BRANCH  21  23
ATOM     22  N   UNL     1      -0.718   0.804  -2.576  0.00  0.00    -0.284 N 
ATOM     23  C   UNL     1      -1.481   0.491  -3.642  0.00  0.00    +0.234 C 
ATOM     24  O   UNL     1      -2.643   0.183  -3.487  0.00  0.00    -0.274 OA
ATOM     25  H   UNL     1       0.189   1.121  -2.705  0.00  0.00    +0.155 HD
BRANCH  22  31
ATOM     26  C   UNL     1      -0.404   0.308  -0.233  0.00  0.00    -0.026 A 
ATOM     27  C   UNL     1      -0.917   0.185   1.043  0.00  0.00    +0.005 A 
ATOM     28  C   UNL     1      -2.260   0.418   1.276  0.00  0.00    +0.000 A 
ATOM     29  C   UNL     1      -3.093   0.777   0.232  0.00  0.00    +0.002 A 
ATOM     30  C   UNL     1      -2.586   0.902  -1.047  0.00  0.00    +0.023 A 
ATOM     31  C   UNL     1      -1.236   0.673  -1.282  0.00  0.00    +0.037 A 
BRANCH  26  33
ATOM     32  C   UNL     1       1.824   1.378  -0.438  0.00  0.00    +0.009 C 
ATOM     33  C   UNL     1       1.060   0.053  -0.485  0.00  0.00    +0.033 C 
ENDBRANCH  26  33
ENDBRANCH  22  31
ENDBRANCH  21  23
ENDBRANCH   1  21
TORSDOF 7
