REMARK  Name = ZINC35130555
REMARK  14 active torsions:
REMARK  status: ('A' for Active; 'I' for Inactive)
REMARK    1  A    between atoms: C_1  and  C_2
REMARK    2  A    between atoms: C_2  and  C_3
REMARK    3  A    between atoms: C_3  and  C_4
REMARK    4  A    between atoms: C_4  and  N_5
REMARK    5  A    between atoms: N_5  and  C_6
REMARK    6  A    between atoms: C_6  and  C_7
REMARK    7  A    between atoms: N_9  and  C_10
REMARK    8  A    between atoms: C_12  and  C_22
REMARK    9  A    between atoms: N_14  and  C_15
REMARK   10  A    between atoms: C_20  and  C_21
REMARK   11  A    between atoms: C_22  and  C_23
REMARK   12  A    between atoms: C_22  and  C_24
REMARK   13  A    between atoms: C_22  and  C_25
REMARK   14  A    between atoms: C_26  and  C_28
REMARK                            x       y       z     vdW  Elec       q    Type
REMARK                         _______ _______ _______ _____ _____    ______ ____
ROOT
ATOM      1  C   UNL     1      -3.068  -3.651  -2.341  0.00  0.00    +0.236 C 
ATOM      2  O   UNL     1      -2.474  -4.584  -1.843  0.00  0.00    -0.274 OA
ATOM      3  N   UNL     1      -3.749  -3.823  -3.491  0.00  0.00    -0.269 N 
ATOM      4  H   UNL     1      -4.225  -3.077  -3.889  0.00  0.00    +0.156 HD
ENDROOT
BRANCH   3   5
ATOM      5  C   UNL     1      -3.772  -5.073  -4.108  0.00  0.00    +0.129 A 
ATOM      6  C   UNL     1      -3.061  -6.171  -3.730  0.00  0.00    +0.069 A 
ATOM      7  C   UNL     1      -3.373  -7.209  -4.612  0.00  0.00    +0.071 A 
ATOM      8  N   UNL     1      -4.236  -6.763  -5.489  0.00  0.00    -0.169 NA
ATOM      9  N   UNL     1      -4.513  -5.421  -5.195  0.00  0.00    -0.218 N 
BRANCH   9  10
ATOM     10  C   UNL     1      -5.393  -4.586  -5.897  0.00  0.00    +0.070 A 
ATOM     11  C   UNL     1      -6.326  -3.823  -5.208  0.00  0.00    +0.028 A 
ATOM     12  C   UNL     1      -7.191  -3.001  -5.902  0.00  0.00    +0.002 A 
ATOM     13  C   UNL     1      -7.129  -2.937  -7.283  0.00  0.00    +0.000 A 
ATOM     14  C   UNL     1      -6.202  -3.696  -7.971  0.00  0.00    +0.005 A 
ATOM     15  C   UNL     1      -5.329  -4.516  -7.282  0.00  0.00    -0.025 A 
ATOM     16  C   UNL     1      -4.314  -5.338  -8.033  0.00  0.00    +0.046 C 
ENDBRANCH   9  10
BRANCH   7  17
ATOM     17  C   UNL     1      -2.810  -8.606  -4.563  0.00  0.00    +0.006 C 
ATOM     18  C   UNL     1      -3.463  -9.378  -3.415  0.00  0.00    +0.017 C 
ATOM     19  C   UNL     1      -3.097  -9.319  -5.886  0.00  0.00    +0.017 C 
ATOM     20  C   UNL     1      -1.298  -8.539  -4.337  0.00  0.00    +0.017 C 
ENDBRANCH   7  17
ENDBRANCH   3   5
BRANCH   1  21
ATOM     21  C   UNL     1      -3.044  -2.300  -1.674  0.00  0.00    +0.204 C 
BRANCH  21  22
ATOM     22  N   UNL     1      -2.242  -2.374  -0.450  0.00  0.00    -0.289 N 
ATOM     23  C   UNL     1      -2.846  -2.562   0.741  0.00  0.00    +0.247 C 
ATOM     24  O   UNL     1      -2.192  -2.529   1.765  0.00  0.00    -0.270 OA
BRANCH  23  25
ATOM     25  C   UNL     1      -4.302  -2.808   0.800  0.00  0.00    +0.037 A 
ATOM     26  C   UNL     1      -4.893  -3.728  -0.068  0.00  0.00    +0.014 A 
ATOM     27  C   UNL     1      -6.252  -3.953  -0.007  0.00  0.00    +0.016 A 
ATOM     28  C   UNL     1      -7.030  -3.270   0.912  0.00  0.00    +0.018 A 
ATOM     29  C   UNL     1      -6.449  -2.356   1.776  0.00  0.00    +0.016 A 
ATOM     30  C   UNL     1      -5.090  -2.126   1.729  0.00  0.00    +0.014 A 
ATOM     31 BR   UNL     1      -8.893  -3.584   0.988  0.00  0.00    -0.050 Br
ENDBRANCH  23  25
BRANCH  22  32
ATOM     32  C   UNL     1      -0.785  -2.243  -0.520  0.00  0.00    +0.108 C 
BRANCH  32  33
ATOM     33  C   UNL     1      -0.404  -0.762  -0.493  0.00  0.00    +0.019 C 
BRANCH  33  35
ATOM     34  C   UNL     1       1.500   0.856  -0.540  0.00  0.00    +0.004 C 
ATOM     35  C   UNL     1       1.119  -0.625  -0.567  0.00  0.00    -0.002 C 
ENDBRANCH  33  35
ENDBRANCH  32  33
ENDBRANCH  22  32
ENDBRANCH  21  22
ENDBRANCH   1  21
TORSDOF 9
