REMARK  Name = ZINC06276276
REMARK  8 active torsions:
REMARK  status: ('A' for Active; 'I' for Inactive)
REMARK    1  A    between atoms: C_1  and  C_2
REMARK    2  A    between atoms: C_6  and  N_8
REMARK    3  A    between atoms: C_9  and  C_23
REMARK    4  A    between atoms: C_12  and  S_13
REMARK    5  A    between atoms: S_13  and  C_14
REMARK    6  A    between atoms: C_14  and  C_15
REMARK    7  A    between atoms: C_15  and  C_16
REMARK    8  A    between atoms: C_16  and  C_17
REMARK                            x       y       z     vdW  Elec       q    Type
REMARK                         _______ _______ _______ _____ _____    ______ ____
ROOT
ATOM      1  N   UNL     1       0.040   1.064   6.587  0.00  0.00    -0.270 N 
ATOM      2  C   UNL     1       1.076   0.346   7.144  0.00  0.00    +0.169 A 
ATOM      3  N   UNL     1       1.785  -0.141   6.151  0.00  0.00    -0.128 NA
ATOM      4  N   UNL     1       1.269   0.212   5.029  0.00  0.00    -0.122 NA
ATOM      5  C   UNL     1       0.198   0.947   5.234  0.00  0.00    +0.196 A 
ENDROOT
BRANCH   1  11
ATOM      6  C   UNL     1      -4.715   1.603   7.722  0.00  0.00    +0.044 C 
ATOM      7  C   UNL     1      -3.279   2.047   7.832  0.00  0.00    -0.048 A 
ATOM      8  C   UNL     1      -2.954   3.147   8.604  0.00  0.00    +0.003 A 
ATOM      9  C   UNL     1      -1.638   3.557   8.709  0.00  0.00    +0.002 A 
ATOM     10  C   UNL     1      -0.643   2.866   8.045  0.00  0.00    +0.026 A 
ATOM     11  C   UNL     1      -0.967   1.764   7.265  0.00  0.00    +0.051 A 
ATOM     12  C   UNL     1      -2.289   1.355   7.163  0.00  0.00    +0.029 A 
ENDBRANCH   1  11
BRANCH   2  13
ATOM     13  C   UNL     1       1.343   0.164   8.586  0.00  0.00    +0.022 A 
ATOM     14  C   UNL     1       0.366   0.466   9.542  0.00  0.00    +0.031 A 
ATOM     15  C   UNL     1       0.656   0.276  10.877  0.00  0.00    +0.111 A 
ATOM     16  N   UNL     1       1.837  -0.173  11.257  0.00  0.00    -0.263 NA
ATOM     17  C   UNL     1       2.788  -0.465  10.389  0.00  0.00    +0.111 A 
ATOM     18  C   UNL     1       2.582  -0.310   9.034  0.00  0.00    +0.031 A 
ENDBRANCH   2  13
BRANCH   5  19
ATOM     19  S   UNL     1      -0.836   1.656   3.995  0.00  0.00    -0.086 S 
BRANCH  19  20
ATOM     20  C   UNL     1       0.011   1.072   2.506  0.00  0.00    +0.078 C 
BRANCH  20  21
ATOM     21  C   UNL     1      -0.729   1.579   1.267  0.00  0.00    +0.016 C 
BRANCH  21  22
ATOM     22  C   UNL     1      -0.013   1.086   0.008  0.00  0.00    +0.036 C 
BRANCH  22  23
ATOM     23  C   UNL     1      -0.742   1.585  -1.213  0.00  0.00    -0.047 A 
ATOM     24  C   UNL     1      -1.750   0.825  -1.775  0.00  0.00    +0.003 A 
ATOM     25  C   UNL     1      -2.422   1.285  -2.892  0.00  0.00    +0.000 A 
ATOM     26  C   UNL     1      -2.079   2.501  -3.453  0.00  0.00    +0.000 A 
ATOM     27  C   UNL     1      -1.066   3.259  -2.894  0.00  0.00    +0.000 A 
ATOM     28  C   UNL     1      -0.398   2.801  -1.774  0.00  0.00    +0.003 A 
ENDBRANCH  22  23
ENDBRANCH  21  22
ENDBRANCH  20  21
ENDBRANCH  19  20
ENDBRANCH   5  19
TORSDOF 7
