REMARK  Name = ZINC32944364
REMARK  11 active torsions:
REMARK  status: ('A' for Active; 'I' for Inactive)
REMARK    1  A    between atoms: C_1  and  C_2
REMARK    2  A    between atoms: C_2  and  C_3
REMARK    3  A    between atoms: C_2  and  C_4
REMARK    4  A    between atoms: C_4  and  N_5
REMARK    5  A    between atoms: C_6  and  C_8
REMARK    6  A    between atoms: C_15  and  S_26
REMARK    7  A    between atoms: N_16  and  C_19
REMARK    8  A    between atoms: C_19  and  C_20
REMARK    9  A    between atoms: S_26  and  C_27
REMARK   10  A    between atoms: C_27  and  C_28
REMARK   11  A    between atoms: C_28  and  C_30
REMARK                            x       y       z     vdW  Elec       q    Type
REMARK                         _______ _______ _______ _____ _____    ______ ____
ROOT
ATOM      1  C   UNL     1      -3.170   3.579   7.622  0.00  0.00    +0.039 A 
ATOM      2  C   UNL     1      -1.869   4.073   7.457  0.00  0.00    +0.014 A 
ATOM      3  C   UNL     1      -1.085   3.636   6.428  0.00  0.00    +0.016 A 
ATOM      4  C   UNL     1      -1.580   2.691   5.530  0.00  0.00    +0.065 A 
ATOM      5  C   UNL     1      -2.890   2.182   5.683  0.00  0.00    +0.080 A 
ATOM      6  C   UNL     1      -3.683   2.637   6.740  0.00  0.00    +0.041 A 
ATOM      7  N   UNL     1      -3.348   1.264   4.800  0.00  0.00    -0.223 NA
ATOM      8  C   UNL     1      -2.606   0.836   3.808  0.00  0.00    +0.173 A 
ATOM      9  N   UNL     1      -1.332   1.274   3.588  0.00  0.00    -0.285 N 
ATOM     10  C   UNL     1      -0.768   2.188   4.411  0.00  0.00    +0.262 A 
ATOM     11  O   UNL     1       0.369   2.584   4.229  0.00  0.00    -0.267 OA
ENDROOT
BRANCH   1  13
ATOM     12  N   UNL     1      -3.511   4.981   9.603  0.00  0.00    -0.311 N 
ATOM     13  C   UNL     1      -4.003   4.066   8.744  0.00  0.00    +0.244 C 
ATOM     14  O   UNL     1      -5.132   3.641   8.892  0.00  0.00    -0.270 OA
ATOM     15  H   UNL     1      -2.489   5.366   9.469  0.00  0.00    +0.149 HD
BRANCH  12  16
ATOM     16  C   UNL     1      -4.336   5.462  10.713  0.00  0.00    +0.107 C 
BRANCH  16  18
ATOM     17  C   UNL     1      -3.267   7.720  10.668  0.00  0.00    +0.009 C 
ATOM     18  C   UNL     1      -3.545   6.487  11.529  0.00  0.00    -0.000 C 
ATOM     19  C   UNL     1      -4.358   6.897  12.759  0.00  0.00    +0.009 C 
ENDBRANCH  16  18
ENDBRANCH  12  16
ENDBRANCH   1  13
BRANCH   9  20
ATOM     20  C   UNL     1      -0.568   0.746   2.455  0.00  0.00    +0.159 C 
BRANCH  20  21
ATOM     21  C   UNL     1      -0.810   1.621   1.224  0.00  0.00    +0.138 C 
ATOM     22  C   UNL     1      -0.013   1.086   0.008  0.00  0.00    +0.035 C 
ATOM     23  C   UNL     1      -0.833   1.634  -1.185  0.00  0.00    +0.031 C 
ATOM     24  C   UNL     1      -2.223   1.924  -0.587  0.00  0.00    +0.160 C 
ATOM     25  O   UNL     1      -2.186   1.524   0.793  0.00  0.00    -0.375 OA
ENDBRANCH  20  21
ENDBRANCH   9  20
BRANCH   8  26
ATOM     26  S   UNL     1      -3.285  -0.361   2.707  0.00  0.00    -0.080 S 
BRANCH  26  27
ATOM     27  C   UNL     1      -4.926  -0.569   3.442  0.00  0.00    +0.157 C 
BRANCH  27  28
ATOM     28  C   UNL     1      -5.710  -1.577   2.643  0.00  0.00    +0.173 C 
ATOM     29  O   UNL     1      -5.209  -2.104   1.672  0.00  0.00    -0.291 OA
BRANCH  28  30
ATOM     30  C   UNL     1      -7.083  -1.924   3.040  0.00  0.00    +0.018 A 
ATOM     31  C   UNL     1      -7.663  -1.323   4.162  0.00  0.00    +0.013 A 
ATOM     32  C   UNL     1      -8.952  -1.648   4.525  0.00  0.00    +0.020 A 
ATOM     33  C   UNL     1      -9.670  -2.576   3.788  0.00  0.00    +0.041 A 
ATOM     34  C   UNL     1      -9.100  -3.179   2.679  0.00  0.00    +0.020 A 
ATOM     35  C   UNL     1      -7.814  -2.860   2.300  0.00  0.00    +0.013 A 
ATOM     36 CL   UNL     1     -11.291  -2.985   4.257  0.00  0.00    -0.084 Cl
ENDBRANCH  28  30
ENDBRANCH  27  28
ENDBRANCH  26  27
ENDBRANCH   8  26
TORSDOF 9
