REMARK  Name = ZINC35052794
REMARK  7 active torsions:
REMARK  status: ('A' for Active; 'I' for Inactive)
REMARK    1  A    between atoms: C_1  and  C_2
REMARK    2  A    between atoms: C_4  and  O_5
REMARK    3  A    between atoms: C_14  and  C_16
REMARK    4  A    between atoms: C_28  and  C_30
REMARK    5  A    between atoms: C_28  and  C_31
REMARK    6  A    between atoms: C_33  and  C_35
REMARK    7  A    between atoms: C_33  and  C_36
REMARK                            x       y       z     vdW  Elec       q    Type
REMARK                         _______ _______ _______ _____ _____    ______ ____
ROOT
ATOM      1  C   UNL     1      -0.086   1.411  -0.089  0.00  0.00    +0.045 C 
ATOM      2  C   UNL     1      -0.324  -0.077  -0.051  0.00  0.00    -0.033 A 
ATOM      3  C   UNL     1      -0.599  -0.777  -1.209  0.00  0.00    +0.091 A 
ATOM      4  C   UNL     1      -0.815  -2.147  -1.155  0.00  0.00    +0.285 A 
ATOM      5  O   UNL     1      -0.762  -2.814   0.003  0.00  0.00    -0.425 OA
ATOM      6  C   UNL     1      -0.497  -2.180   1.164  0.00  0.00    +0.141 A 
ATOM      7  C   UNL     1      -0.264  -0.786   1.167  0.00  0.00    +0.021 A 
ATOM      8  C   UNL     1       0.018  -0.122   2.374  0.00  0.00    +0.013 A 
ATOM      9  C   UNL     1       0.071  -0.822   3.537  0.00  0.00    +0.024 A 
ATOM     10  C   UNL     1      -0.155  -2.210   3.543  0.00  0.00    +0.037 A 
ATOM     11  C   UNL     1      -0.447  -2.882   2.354  0.00  0.00    +0.070 A 
ATOM     12  N   UNL     1      -0.099  -2.901   4.715  0.00  0.00    -0.283 N 
ATOM     13  C   UNL     1       0.004  -4.215   4.701  0.00  0.00    +0.249 C 
ATOM     14  O   UNL     1       0.173  -4.802   3.647  0.00  0.00    -0.273 OA
ATOM     15  H   UNL     1      -0.135  -2.426   5.559  0.00  0.00    +0.155 HD
ENDROOT
BRANCH  13  16
ATOM     16  C   UNL     1      -0.086  -4.992   5.989  0.00  0.00    +0.238 C 
ATOM     17  C   UNL     1      -1.436  -4.762   6.627  0.00  0.00    +0.191 C 
ATOM     18  C   UNL     1      -2.552  -5.261   5.655  0.00  0.00    +0.187 C 
ATOM     19  C   UNL     1      -2.344  -6.747   5.566  0.00  0.00    +0.209 C 
ATOM     20  C   UNL     1      -0.952  -6.906   4.880  0.00  0.00    +0.286 C 
ATOM     21  O   UNL     1       0.062  -6.408   5.717  0.00  0.00    -0.333 OA
ATOM     22  O   UNL     1      -0.953  -8.271   4.503  0.00  0.00    -0.318 OA
ATOM     23  C   UNL     1      -2.342  -8.618   4.294  0.00  0.00    +0.168 C 
ATOM     24  O   UNL     1      -3.172  -7.473   4.652  0.00  0.00    -0.338 OA
ATOM     25  C   UNL     1      -2.717  -9.803   5.186  0.00  0.00    +0.074 C 
ATOM     26  C   UNL     1      -2.565  -8.988   2.827  0.00  0.00    +0.074 C 
ATOM     27  O   UNL     1      -3.719  -4.757   6.288  0.00  0.00    -0.341 OA
ATOM     28  C   UNL     1      -3.304  -3.554   6.976  0.00  0.00    +0.166 C 
ATOM     29  O   UNL     1      -1.870  -3.420   6.829  0.00  0.00    -0.340 OA
ATOM     30  C   UNL     1      -3.676  -3.653   8.457  0.00  0.00    +0.074 C 
ATOM     31  C   UNL     1      -3.994  -2.339   6.353  0.00  0.00    +0.074 C 
ENDBRANCH  13  16
BRANCH   4  32
ATOM     32  O   UNL     1      -1.082  -2.817  -2.291  0.00  0.00    -0.480 OA
ATOM     33  H   UNL     1      -1.220  -3.766  -2.165  0.00  0.00    +0.295 HD
ENDBRANCH   4  32
TORSDOF 2
