REMARK  Name = ZINC36575726
REMARK  13 active torsions:
REMARK  status: ('A' for Active; 'I' for Inactive)
REMARK    1  A    between atoms: C_1  and  C_2
REMARK    2  A    between atoms: C_2  and  C_3
REMARK    3  A    between atoms: C_3  and  N_4
REMARK    4  A    between atoms: N_4  and  C_5
REMARK    5  A    between atoms: C_5  and  C_7
REMARK    6  A    between atoms: C_5  and  C_16
REMARK    7  A    between atoms: C_7  and  C_9
REMARK    8  A    between atoms: C_7  and  C_10
REMARK    9  A    between atoms: N_18  and  C_19
REMARK   10  A    between atoms: C_19  and  S_20
REMARK   11  A    between atoms: S_20  and  C_23
REMARK   12  A    between atoms: C_26  and  C_29
REMARK   13  A    between atoms: C_30  and  C_32
REMARK                            x       y       z     vdW  Elec       q    Type
REMARK                         _______ _______ _______ _____ _____    ______ ____
ROOT
ATOM      1  C   UNL     1       1.864  -2.690   0.585  0.00  0.00    +0.169 C 
ENDROOT
BRANCH   1   2
ATOM      2  C   UNL     1       3.165  -2.312   1.245  0.00  0.00    +0.235 C 
ATOM      3  O   UNL     1       3.171  -1.523   2.167  0.00  0.00    -0.274 OA
ATOM      4  N   UNL     1       4.322  -2.850   0.811  0.00  0.00    -0.295 N 
ATOM      5  H   UNL     1       4.318  -3.480   0.074  0.00  0.00    +0.150 HD
BRANCH   4   6
ATOM      6  C   UNL     1       5.587  -2.482   1.453  0.00  0.00    +0.278 C 
BRANCH   6   7
ATOM      7  S   UNL     1       5.997  -3.707   2.726  0.00  0.00    +0.013 S 
ATOM      8  O   UNL     1       7.254  -3.399   3.315  0.00  0.00    -0.168 OA
ATOM      9  O   UNL     1       4.861  -3.968   3.538  0.00  0.00    -0.168 OA
BRANCH   7  10
ATOM     10  C   UNL     1       6.271  -5.206   1.841  0.00  0.00    +0.090 A 
ATOM     11  C   UNL     1       5.218  -6.067   1.597  0.00  0.00    +0.027 A 
ATOM     12  C   UNL     1       5.432  -7.243   0.903  0.00  0.00    +0.005 A 
ATOM     13  C   UNL     1       6.700  -7.557   0.452  0.00  0.00    -0.050 A 
ATOM     14  C   UNL     1       7.754  -6.696   0.695  0.00  0.00    +0.005 A 
ATOM     15  C   UNL     1       7.538  -5.518   1.385  0.00  0.00    +0.027 A 
ATOM     16  C   UNL     1       6.935  -8.840  -0.304  0.00  0.00    +0.044 C 
ENDBRANCH   7  10
ENDBRANCH   6   7
ENDBRANCH   4   6
ENDBRANCH   1   2
BRANCH   1  17
ATOM     17  N   UNL     1       0.762  -1.976   1.234  0.00  0.00    -0.288 N 
ATOM     18  C   UNL     1      -0.234  -2.667   1.823  0.00  0.00    +0.237 C 
ATOM     19  O   UNL     1      -0.218  -3.879   1.816  0.00  0.00    -0.274 OA
BRANCH  18  20
ATOM     20  C   UNL     1      -1.368  -1.932   2.490  0.00  0.00    +0.159 C 
ATOM     21  C   UNL     1      -0.950  -1.475   3.906  0.00  0.00    +0.041 C 
ATOM     22  C   UNL     1      -1.458  -2.647   4.778  0.00  0.00    +0.098 C 
ATOM     23  C   UNL     1      -2.580  -3.254   3.965  0.00  0.00    +0.214 C 
ATOM     24  O   UNL     1      -3.422  -4.011   4.401  0.00  0.00    -0.276 OA
ATOM     25  N   UNL     1      -2.510  -2.833   2.689  0.00  0.00    -0.304 N 
ATOM     26  H   UNL     1      -3.132  -3.090   1.990  0.00  0.00    +0.149 HD
ENDBRANCH  18  20
BRANCH  17  27
ATOM     27  C   UNL     1       0.742  -0.511   1.242  0.00  0.00    +0.108 C 
BRANCH  27  29
ATOM     28  C   UNL     1      -0.019   1.526   0.010  0.00  0.00    +0.005 C 
ATOM     29  C   UNL     1       0.002  -0.004   0.002  0.00  0.00    +0.016 C 
ENDBRANCH  27  29
ENDBRANCH  17  27
ENDBRANCH   1  17
BRANCH   1  30
ATOM     30  C   UNL     1       1.915  -2.311  -0.897  0.00  0.00    +0.045 C 
ATOM     31  C   UNL     1       0.595  -2.695  -1.567  0.00  0.00    +0.015 C 
BRANCH  30  32
ATOM     32  C   UNL     1       3.050  -3.046  -1.564  0.00  0.00    -0.042 A 
ATOM     33  C   UNL     1       3.065  -4.428  -1.577  0.00  0.00    +0.004 A 
ATOM     34  C   UNL     1       4.106  -5.102  -2.189  0.00  0.00    +0.000 A 
ATOM     35  C   UNL     1       5.130  -4.393  -2.789  0.00  0.00    +0.000 A 
ATOM     36  C   UNL     1       5.114  -3.011  -2.777  0.00  0.00    +0.000 A 
ATOM     37  C   UNL     1       4.071  -2.337  -2.169  0.00  0.00    +0.004 A 
ENDBRANCH  30  32
ENDBRANCH   1  30
TORSDOF 10
