REMARK  Name = ZINC49032291
REMARK  6 active torsions:
REMARK  status: ('A' for Active; 'I' for Inactive)
REMARK    1  A    between atoms: C_1  and  C_2
REMARK    2  A    between atoms: C_4  and  C_29
REMARK    3  A    between atoms: C_11  and  C_14
REMARK    4  A    between atoms: N_16  and  C_17
REMARK    5  A    between atoms: C_17  and  C_18
REMARK    6  A    between atoms: C_18  and  C_19
REMARK                            x       y       z     vdW  Elec       q    Type
REMARK                         _______ _______ _______ _____ _____    ______ ____
ROOT
ATOM      1  C   UNL     1       0.076  -2.107   7.196  0.00  0.00    +0.263 C 
ATOM      2  O   UNL     1       0.068  -1.338   8.138  0.00  0.00    -0.269 OA
ATOM      3  N   UNL     1       0.102  -3.438   7.412  0.00  0.00    -0.310 N 
ATOM      4  H   UNL     1       0.108  -4.051   6.660  0.00  0.00    +0.149 HD
ENDROOT
BRANCH   1  15
ATOM      5  C   UNL     1      -0.018   1.503   0.010  0.00  0.00    +0.066 C 
ATOM      6  C   UNL     1       0.002  -0.004   0.002  0.00  0.00    +0.044 A 
ATOM      7  C   UNL     1       0.006  -0.699  -1.197  0.00  0.00    +0.046 A 
ATOM      8  C   UNL     1       0.025  -2.084  -1.160  0.00  0.00    +0.044 A 
ATOM      9  N   UNL     1       0.040  -2.698   0.011  0.00  0.00    -0.219 NA
ATOM     10  C   UNL     1       0.035  -2.004   1.140  0.00  0.00    +0.221 A 
ATOM     11  N   UNL     1       0.022  -0.679   1.139  0.00  0.00    -0.219 NA
ATOM     12  N   UNL     1       0.051  -2.680   2.350  0.00  0.00    -0.263 N 
ATOM     13  C   UNL     1       0.046  -1.970   3.541  0.00  0.00    +0.165 A 
ATOM     14  N   UNL     1       0.064  -2.421   4.779  0.00  0.00    -0.220 NA
ATOM     15  C   UNL     1       0.057  -1.586   5.819  0.00  0.00    +0.135 A 
ATOM     16  C   UNL     1       0.030  -0.233   5.588  0.00  0.00    +0.081 A 
ATOM     17  S   UNL     1       0.024  -0.202   3.800  0.00  0.00    -0.060 S 
ATOM     18  C   UNL     1       0.030  -2.882  -2.439  0.00  0.00    +0.066 C 
ATOM     19  H   UNL     1       0.064  -3.650   2.364  0.00  0.00    +0.157 HD
ENDBRANCH   1  15
BRANCH   3  20
ATOM     20  C   UNL     1       0.122  -3.957   8.782  0.00  0.00    +0.109 C 
BRANCH  20  21
ATOM     21  C   UNL     1       0.150  -5.486   8.747  0.00  0.00    +0.056 C 
BRANCH  21  22
ATOM     22  C   UNL     1       0.170  -6.020  10.156  0.00  0.00    -0.021 A 
ATOM     23  C   UNL     1       1.257  -6.366  10.864  0.00  0.00    +0.087 A 
ATOM     24  N   UNL     1       0.885  -6.808  12.104  0.00  0.00    -0.360 N 
ATOM     25  H   UNL     1       1.496  -7.112  12.793  0.00  0.00    +0.165 HD
ATOM     26  C   UNL     1      -0.485  -6.756  12.228  0.00  0.00    +0.047 A 
ATOM     27  C   UNL     1      -0.993  -6.255  11.016  0.00  0.00    +0.003 A 
ATOM     28  C   UNL     1      -2.369  -6.087  10.853  0.00  0.00    +0.010 A 
ATOM     29  C   UNL     1      -3.217  -6.408  11.876  0.00  0.00    +0.001 A 
ATOM     30  C   UNL     1      -2.721  -6.899  13.075  0.00  0.00    +0.002 A 
ATOM     31  C   UNL     1      -1.367  -7.081  13.254  0.00  0.00    +0.026 A 
ENDBRANCH  21  22
ENDBRANCH  20  21
ENDBRANCH   3  20
TORSDOF 4
