REMARK  Name = ZINC22367059
REMARK  10 active torsions:
REMARK  status: ('A' for Active; 'I' for Inactive)
REMARK    1  A    between atoms: C_1  and  C_2
REMARK    2  A    between atoms: C_2  and  C_4
REMARK    3  A    between atoms: C_2  and  N_15
REMARK    4  A    between atoms: C_7  and  N_10
REMARK    5  A    between atoms: C_16  and  C_18
REMARK    6  A    between atoms: C_18  and  N_19
REMARK    7  A    between atoms: N_19  and  C_20
REMARK    8  A    between atoms: N_19  and  S_36
REMARK    9  A    between atoms: C_23  and  C_26
REMARK   10  A    between atoms: S_36  and  C_39
REMARK                            x       y       z     vdW  Elec       q    Type
REMARK                         _______ _______ _______ _____ _____    ______ ____
ROOT
ATOM      1  N   UNL     1      -6.408   0.544   2.891  0.00  0.00    -0.199 N 
ENDROOT
BRANCH   1   2
ATOM      2  C   UNL     1      -7.532   0.256   2.113  0.00  0.00    +0.051 A 
ATOM      3  C   UNL     1      -7.847  -1.062   1.806  0.00  0.00    +0.025 A 
ATOM      4  C   UNL     1      -8.961  -1.343   1.040  0.00  0.00    +0.006 A 
ATOM      5  C   UNL     1      -9.757  -0.314   0.570  0.00  0.00    -0.041 A 
ATOM      6  C   UNL     1      -9.443   0.999   0.869  0.00  0.00    +0.006 A 
ATOM      7  C   UNL     1      -8.333   1.287   1.639  0.00  0.00    +0.025 A 
BRANCH   5   8
ATOM      8  C   UNL     1     -10.968  -0.625  -0.271  0.00  0.00    -0.003 C 
ATOM      9  C   UNL     1     -10.824   0.043  -1.640  0.00  0.00    +0.015 C 
ATOM     10  C   UNL     1     -12.054  -0.273  -2.493  0.00  0.00    -0.010 C 
ATOM     11  C   UNL     1     -12.174  -1.787  -2.674  0.00  0.00    +0.007 C 
ATOM     12  C   UNL     1     -12.319  -2.454  -1.305  0.00  0.00    -0.010 C 
ATOM     13  C   UNL     1     -11.089  -2.139  -0.452  0.00  0.00    +0.015 C 
ATOM     14  C   UNL     1     -13.573  -1.923  -0.609  0.00  0.00    +0.007 C 
ATOM     15  C   UNL     1     -13.452  -0.408  -0.427  0.00  0.00    -0.010 C 
ATOM     16  C   UNL     1     -13.308   0.259  -1.797  0.00  0.00    +0.007 C 
ATOM     17  C   UNL     1     -12.222  -0.093   0.426  0.00  0.00    +0.015 C 
ENDBRANCH   5   8
ENDBRANCH   1   2
BRANCH   1  18
ATOM     18  S   UNL     1      -6.307  -0.028   4.442  0.00  0.00    +0.043 S 
ATOM     19  O   UNL     1      -7.033  -1.249   4.426  0.00  0.00    -0.155 OA
ATOM     20  O   UNL     1      -4.918  -0.014   4.744  0.00  0.00    -0.155 OA
ATOM     21  C   UNL     1      -7.177   1.204   5.450  0.00  0.00    +0.218 C 
ENDBRANCH   1  18
BRANCH   1  22
ATOM     22  C   UNL     1      -5.319   1.351   2.335  0.00  0.00    +0.226 C 
BRANCH  22  24
ATOM     23  N   UNL     1      -3.295   0.990   0.960  0.00  0.00    -0.307 N 
ATOM     24  C   UNL     1      -4.378   0.462   1.564  0.00  0.00    +0.233 C 
ATOM     25  O   UNL     1      -4.595  -0.729   1.486  0.00  0.00    -0.274 OA
ATOM     26  H   UNL     1      -3.098   2.070   1.031  0.00  0.00    +0.149 HD
BRANCH  23  28
ATOM     27  C   UNL     1      -2.904  -0.055  -1.216  0.00  0.00    +0.033 C 
ATOM     28  C   UNL     1      -2.380   0.126   0.210  0.00  0.00    +0.100 C 
BRANCH  28  29
ATOM     29  C   UNL     1      -1.013   0.760   0.167  0.00  0.00    -0.027 A 
ATOM     30  C   UNL     1       0.116  -0.026   0.309  0.00  0.00    +0.007 A 
ATOM     31  C   UNL     1       1.370   0.551   0.263  0.00  0.00    +0.023 A 
ATOM     32  C   UNL     1       1.496   1.922   0.080  0.00  0.00    +0.030 A 
ATOM     33  C   UNL     1       0.360   2.709  -0.058  0.00  0.00    +0.023 A 
ATOM     34  C   UNL     1      -0.891   2.126  -0.011  0.00  0.00    +0.007 A 
BRANCH  32  35
ATOM     35  N   UNL     1       2.763   2.508   0.032  0.00  0.00    -0.330 N 
ATOM     36  C   UNL     1       3.476   2.341   1.325  0.00  0.00    +0.105 C 
ATOM     37  C   UNL     1       4.962   2.547   0.939  0.00  0.00    +0.020 C 
ATOM     38  C   UNL     1       5.057   1.872  -0.448  0.00  0.00    +0.020 C 
ATOM     39  C   UNL     1       3.613   1.852  -0.985  0.00  0.00    +0.105 C 
ENDBRANCH  32  35
ENDBRANCH  28  29
ENDBRANCH  23  28
ENDBRANCH  22  24
ENDBRANCH   1  22
TORSDOF 8
