REMARK  Name = ZINC06944428
REMARK  0 active torsions:
REMARK  status: ('A' for Active; 'I' for Inactive)
REMARK                            x       y       z     vdW  Elec       q    Type
REMARK                         _______ _______ _______ _____ _____    ______ ____
ROOT
ATOM      1  C   UNL     1      -0.016   1.315  -0.006  0.00  0.00    +0.223 A 
ATOM      2  N   UNL     1       1.069   2.050  -0.024  0.00  0.00    -0.234 NA
ATOM      3  C   UNL     1       2.299   1.490  -0.004  0.00  0.00    +0.092 A 
ATOM      4  C   UNL     1       3.608   2.169  -0.019  0.00  0.00    +0.035 A 
ATOM      5  C   UNL     1       3.851   3.568  -0.060  0.00  0.00    -0.029 A 
ATOM      6  C   UNL     1       5.130   4.021  -0.066  0.00  0.00    -0.005 A 
ATOM      7  C   UNL     1       6.193   3.108  -0.041  0.00  0.00    +0.103 A 
ATOM      8  N   UNL     1       5.964   1.806  -0.005  0.00  0.00    -0.337 N 
ATOM      9  C   UNL     1       4.735   1.333   0.007  0.00  0.00    +0.089 A 
ATOM     10  S   UNL     1       4.063  -0.311   0.055  0.00  0.00    -0.066 S 
ATOM     11  C   UNL     1       2.337   0.090   0.038  0.00  0.00    +0.073 A 
ATOM     12  C   UNL     1       1.167  -0.655   0.056  0.00  0.00    +0.125 A 
ATOM     13  N   UNL     1       0.003  -0.004   0.034  0.00  0.00    -0.227 NA
ATOM     14  S   UNL     1       1.217  -2.416   0.108  0.00  0.00    -0.029 SA
ATOM     15  N   UNL     1       7.500   3.575  -0.055  0.00  0.00    -0.312 N 
ATOM     16  C   UNL     1       8.195   3.918   1.196  0.00  0.00    +0.134 C 
ATOM     17  C   UNL     1       9.554   3.209   1.204  0.00  0.00    +0.178 C 
ATOM     18  O   UNL     1      10.248   3.507  -0.010  0.00  0.00    -0.377 OA
ATOM     19  C   UNL     1       9.589   3.040  -1.190  0.00  0.00    +0.178 C 
ATOM     20  C   UNL     1       8.234   3.735  -1.320  0.00  0.00    +0.134 C 
ATOM     21  C   UNL     1       5.469   5.489  -0.090  0.00  0.00    +0.039 C 
ATOM     22  C   UNL     1       4.265   6.311  -0.549  0.00  0.00    +0.005 C 
ATOM     23  C   UNL     1       3.050   5.901   0.292  0.00  0.00    +0.005 C 
ATOM     24  C   UNL     1       2.654   4.478  -0.098  0.00  0.00    +0.036 C 
ATOM     25  H   UNL     1       6.713   1.190   0.011  0.00  0.00    +0.168 HD
ENDROOT
TORSDOF 0
