REMARK  Name = ZINC09101529
REMARK  10 active torsions:
REMARK  status: ('A' for Active; 'I' for Inactive)
REMARK    1  A    between atoms: C_1  and  C_2
REMARK    2  A    between atoms: C_5  and  C_31
REMARK    3  A    between atoms: C_6  and  S_8
REMARK    4  A    between atoms: S_8  and  C_11
REMARK    5  A    between atoms: C_11  and  C_13
REMARK    6  A    between atoms: C_11  and  C_26
REMARK    7  A    between atoms: C_13  and  N_14
REMARK    8  A    between atoms: N_14  and  S_15
REMARK    9  A    between atoms: S_15  and  C_18
REMARK   10  A    between atoms: C_18  and  C_19
REMARK                            x       y       z     vdW  Elec       q    Type
REMARK                         _______ _______ _______ _____ _____    ______ ____
ROOT
ATOM      1  C   UNL     1      -1.200   3.872   0.614  0.00  0.00    +0.217 C 
ENDROOT
BRANCH   1   2
ATOM      2  C   UNL     1      -2.374   4.772   0.897  0.00  0.00    +0.131 A 
ATOM      3  C   UNL     1      -2.713   5.268   2.101  0.00  0.00    +0.046 A 
ATOM      4  C   UNL     1      -3.869   6.059   1.908  0.00  0.00    +0.041 A 
ATOM      5  C   UNL     1      -4.173   5.992   0.599  0.00  0.00    +0.195 A 
ATOM      6  O   UNL     1      -3.264   5.211  -0.008  0.00  0.00    -0.466 OA
ENDBRANCH   1   2
BRANCH   1   7
ATOM      7  S   UNL     1      -0.105   4.667  -0.595  0.00  0.00    +0.008 S 
ATOM      8  O   UNL     1       1.147   3.998  -0.636  0.00  0.00    -0.169 OA
ATOM      9  O   UNL     1      -0.818   4.945  -1.792  0.00  0.00    -0.169 OA
BRANCH   7  15
ATOM     10  C   UNL     1      -0.557   9.874  -0.585  0.00  0.00    +0.044 C 
ATOM     11  C   UNL     1       0.012   8.632   0.049  0.00  0.00    -0.049 A 
ATOM     12  C   UNL     1       0.815   8.733   1.170  0.00  0.00    +0.004 A 
ATOM     13  C   UNL     1       1.337   7.593   1.752  0.00  0.00    +0.005 A 
ATOM     14  C   UNL     1       1.052   6.351   1.216  0.00  0.00    -0.026 A 
ATOM     15  C   UNL     1       0.253   6.250   0.092  0.00  0.00    +0.092 A 
ATOM     16  C   UNL     1      -0.269   7.390  -0.490  0.00  0.00    +0.030 A 
ATOM     17  C   UNL     1       1.615   5.107   1.854  0.00  0.00    +0.046 C 
ENDBRANCH   7  15
ENDBRANCH   1   7
BRANCH   1  18
ATOM     18  C   UNL     1      -1.702   2.541   0.049  0.00  0.00    +0.140 C 
BRANCH  18  19
ATOM     19  N   UNL     1      -0.560   1.666  -0.227  0.00  0.00    -0.192 NA
ATOM     20  H   UNL     1       0.337   2.034  -0.259  0.00  0.00    +0.148 HD
BRANCH  19  21
ATOM     21  S   UNL     1      -0.801   0.049  -0.488  0.00  0.00    +0.034 S 
ATOM     22  O   UNL     1       0.500  -0.482  -0.701  0.00  0.00    -0.158 OA
ATOM     23  O   UNL     1      -1.588  -0.384   0.612  0.00  0.00    -0.158 OA
BRANCH  21  24
ATOM     24  C   UNL     1      -1.768  -0.036  -2.021  0.00  0.00    +0.223 C 
BRANCH  24  25
ATOM     25  C   UNL     1      -2.049  -1.478  -2.358  0.00  0.00    +0.010 A 
ATOM     26  C   UNL     1      -1.168  -2.186  -3.155  0.00  0.00    +0.008 A 
ATOM     27  C   UNL     1      -1.421  -3.510  -3.460  0.00  0.00    +0.000 A 
ATOM     28  C   UNL     1      -2.563  -4.125  -2.979  0.00  0.00    +0.003 A 
ATOM     29  C   UNL     1      -3.447  -3.418  -2.187  0.00  0.00    +0.038 A 
ATOM     30  C   UNL     1      -3.191  -2.093  -1.876  0.00  0.00    +0.128 A 
ATOM     31  F   UNL     1      -4.056  -1.401  -1.103  0.00  0.00    -0.205 F 
ENDBRANCH  24  25
ENDBRANCH  21  24
ENDBRANCH  19  21
ENDBRANCH  18  19
ENDBRANCH   1  18
TORSDOF 8
