REMARK  Name = ZINC21231308
REMARK  8 active torsions:
REMARK  status: ('A' for Active; 'I' for Inactive)
REMARK    1  A    between atoms: C_1  and  C_2
REMARK    2  A    between atoms: C_2  and  C_3
REMARK    3  A    between atoms: C_2  and  C_4
REMARK    4  A    between atoms: C_4  and  C_6
REMARK    5  A    between atoms: C_4  and  S_12
REMARK    6  A    between atoms: S_12  and  C_13
REMARK    7  A    between atoms: C_17  and  C_20
REMARK    8  A    between atoms: N_27  and  C_28
REMARK                            x       y       z     vdW  Elec       q    Type
REMARK                         _______ _______ _______ _____ _____    ______ ____
ROOT
ATOM      1  C   UNL     1      -5.165   0.737  -0.553  0.00  0.00    +0.173 A 
ATOM      2  N   UNL     1      -4.962  -0.489  -0.114  0.00  0.00    -0.216 NA
ATOM      3  C   UNL     1      -5.969  -1.345   0.007  0.00  0.00    +0.117 A 
ATOM      4  C   UNL     1      -7.288  -0.997  -0.332  0.00  0.00    +0.080 A 
ATOM      5  C   UNL     1      -8.275  -2.057  -0.144  0.00  0.00    +0.010 A 
ATOM      6  C   UNL     1      -7.858  -3.257   0.329  0.00  0.00    +0.057 A 
ATOM      7  S   UNL     1      -6.104  -3.030   0.549  0.00  0.00    -0.076 S 
ATOM      8  C   UNL     1      -7.478   0.336  -0.810  0.00  0.00    +0.263 A 
ATOM      9  O   UNL     1      -8.588   0.726  -1.128  0.00  0.00    -0.267 OA
ATOM     10  N   UNL     1      -6.415   1.156  -0.905  0.00  0.00    -0.290 N 
ATOM     11  C   UNL     1      -6.604   2.524  -1.395  0.00  0.00    +0.154 C 
ENDROOT
BRANCH   5  12
ATOM     12  C   UNL     1      -9.699  -1.827  -0.462  0.00  0.00    +0.021 A 
ATOM     13  C   UNL     1     -10.546  -2.585  -1.226  0.00  0.00    +0.016 A 
ATOM     14  C   UNL     1     -11.851  -2.166  -1.380  0.00  0.00    +0.008 A 
ATOM     15  C   UNL     1     -12.252  -1.016  -0.783  0.00  0.00    +0.046 A 
ATOM     16  S   UNL     1     -10.761  -0.483   0.042  0.00  0.00    -0.097 S 
ENDBRANCH   5  12
BRANCH   1  17
ATOM     17  S   UNL     1      -3.803   1.847  -0.695  0.00  0.00    -0.075 S 
BRANCH  17  18
ATOM     18  C   UNL     1      -2.493   0.831   0.030  0.00  0.00    +0.143 C 
BRANCH  18  19
ATOM     19  C   UNL     1      -1.161   1.506  -0.177  0.00  0.00    +0.234 C 
ATOM     20  O   UNL     1      -1.107   2.708  -0.325  0.00  0.00    -0.274 OA
ATOM     21  N   UNL     1      -0.030   0.773  -0.198  0.00  0.00    -0.239 N 
ATOM     22  C   UNL     1       1.160   1.375  -0.389  0.00  0.00    +0.303 C 
ATOM     23  O   UNL     1       1.214   2.581  -0.537  0.00  0.00    -0.253 OA
ATOM     24  N   UNL     1       2.290   0.642  -0.415  0.00  0.00    -0.313 N 
ATOM     25  H   UNL     1      -0.079  -0.317  -0.059  0.00  0.00    +0.159 HD
ATOM     26  H   UNL     1       3.262   1.134  -0.571  0.00  0.00    +0.146 HD
ATOM     27  H   UNL     1       2.241  -0.449  -0.281  0.00  0.00    +0.146 HD
ENDBRANCH  18  19
BRANCH  18  29
ATOM     28  C   UNL     1      -1.723  -0.311   2.115  0.00  0.00    +0.009 C 
ATOM     29  C   UNL     1      -2.750   0.660   1.529  0.00  0.00    +0.005 C 
ATOM     30  C   UNL     1      -2.625   2.016   2.226  0.00  0.00    +0.009 C 
ENDBRANCH  18  29
ENDBRANCH  17  18
ENDBRANCH   1  17
TORSDOF 5
