REMARK  Name = ZINC14470508
REMARK  7 active torsions:
REMARK  status: ('A' for Active; 'I' for Inactive)
REMARK    1  A    between atoms: C_1  and  O_2
REMARK    2  A    between atoms: O_2  and  C_3
REMARK    3  A    between atoms: C_6  and  N_9
REMARK    4  A    between atoms: N_9  and  S_10
REMARK    5  A    between atoms: S_10  and  C_13
REMARK    6  A    between atoms: C_26  and  C_29
REMARK    7  A    between atoms: C_33  and  N_35
REMARK                            x       y       z     vdW  Elec       q    Type
REMARK                         _______ _______ _______ _____ _____    ______ ____
ROOT
ATOM      1  C   UNL     1       4.311   0.307  -2.614  0.00  0.00    +0.109 A 
ATOM      2  C   UNL     1       3.819   0.054  -3.881  0.00  0.00    +0.030 A 
ATOM      3  C   UNL     1       2.502   0.334  -4.182  0.00  0.00    +0.025 A 
ATOM      4  C   UNL     1       1.660   0.871  -3.216  0.00  0.00    +0.031 A 
ATOM      5  C   UNL     1       2.169   1.137  -1.940  0.00  0.00    -0.018 A 
ATOM      6  C   UNL     1       3.484   0.848  -1.647  0.00  0.00    +0.034 A 
ATOM      7  C   UNL     1       1.247   1.732  -0.948  0.00  0.00    +0.049 C 
ATOM      8  C   UNL     1       1.440   1.553   0.513  0.00  0.00    -0.023 C 
ATOM      9  C   UNL     1       0.251   1.561   1.103  0.00  0.00    -0.030 C 
ATOM     10  C   UNL     1      -0.852   1.715   0.053  0.00  0.00    +0.033 C 
ATOM     11  C   UNL     1      -0.172   1.138  -1.196  0.00  0.00    +0.029 C 
ATOM     12  C   UNL     1      -0.604   1.671  -2.551  0.00  0.00    +0.105 C 
ATOM     13  N   UNL     1       0.318   1.112  -3.534  0.00  0.00    -0.336 N 
ATOM     14  H   UNL     1      -0.007   0.896  -4.422  0.00  0.00    +0.147 HD
ENDROOT
BRANCH  12  15
ATOM     15  C   UNL     1      -2.016   1.242  -2.853  0.00  0.00    -0.025 A 
ATOM     16  C   UNL     1      -2.264  -0.034  -3.325  0.00  0.00    +0.007 A 
ATOM     17  C   UNL     1      -3.559  -0.429  -3.603  0.00  0.00    +0.022 A 
ATOM     18  C   UNL     1      -4.607   0.453  -3.409  0.00  0.00    +0.071 A 
ATOM     19  C   UNL     1      -4.359   1.730  -2.936  0.00  0.00    +0.145 A 
ATOM     20  C   UNL     1      -3.063   2.121  -2.654  0.00  0.00    +0.039 A 
ATOM     21 CL   UNL     1      -6.235  -0.042  -3.756  0.00  0.00    -0.081 Cl
BRANCH  19  22
ATOM     22  N   UNL     1      -5.480   2.673  -2.728  0.00  0.00    +0.058 N 
ATOM     23  O   UNL     1      -5.260   3.797  -2.312  0.00  0.00    -0.126 OA
ATOM     24  O   UNL     1      -6.621   2.326  -2.972  0.00  0.00    -0.126 OA
ENDBRANCH  19  22
ENDBRANCH  12  15
BRANCH   1  25
ATOM     25  S   UNL     1       5.991  -0.062  -2.230  0.00  0.00    +0.072 S 
ATOM     26  O   UNL     1       6.675  -0.176  -3.471  0.00  0.00    -0.150 OA
ATOM     27  O   UNL     1       6.389   0.858  -1.223  0.00  0.00    -0.150 OA
BRANCH  25  28
ATOM     28  N   UNL     1       6.016  -1.565  -1.535  0.00  0.00    -0.216 N 
ATOM     29  H   UNL     1       6.311  -1.669  -0.617  0.00  0.00    +0.174 HD
BRANCH  28  33
ATOM     30  C   UNL     1       4.815  -4.897  -3.732  0.00  0.00    +0.120 A 
ATOM     31  C   UNL     1       6.040  -4.301  -3.991  0.00  0.00    +0.047 A 
ATOM     32  C   UNL     1       6.439  -3.197  -3.264  0.00  0.00    +0.028 A 
ATOM     33  C   UNL     1       5.613  -2.683  -2.273  0.00  0.00    +0.048 A 
ATOM     34  C   UNL     1       4.389  -3.284  -2.010  0.00  0.00    +0.028 A 
ATOM     35  C   UNL     1       3.989  -4.385  -2.742  0.00  0.00    +0.047 A 
BRANCH  30  37
ATOM     36  C   UNL     1       3.149  -6.548  -4.128  0.00  0.00    +0.277 C 
ATOM     37  O   UNL     1       4.423  -5.985  -4.448  0.00  0.00    -0.495 OA
ENDBRANCH  30  37
ENDBRANCH  28  33
ENDBRANCH  25  28
ENDBRANCH   1  25
TORSDOF 6
