REMARK  Name = ZINC39280081
REMARK  8 active torsions:
REMARK  status: ('A' for Active; 'I' for Inactive)
REMARK    1  A    between atoms: C_1  and  C_2
REMARK    2  A    between atoms: C_6  and  S_15
REMARK    3  A    between atoms: N_8  and  C_9
REMARK    4  A    between atoms: S_15  and  C_16
REMARK    5  A    between atoms: C_16  and  C_17
REMARK    6  A    between atoms: N_19  and  N_20
REMARK    7  A    between atoms: C_21  and  C_22
REMARK    8  A    between atoms: C_27  and  C_28
REMARK                            x       y       z     vdW  Elec       q    Type
REMARK                         _______ _______ _______ _____ _____    ______ ____
ROOT
ATOM      1  C   UNL     1       2.006  -4.865   1.597  0.00  0.00    +0.242 C 
ATOM      2  O   UNL     1       2.006  -5.191   2.765  0.00  0.00    -0.273 OA
ATOM      3  N   UNL     1       2.646  -5.624   0.686  0.00  0.00    -0.207 N 
ATOM      4  H   UNL     1       2.646  -5.364  -0.249  0.00  0.00    +0.177 HD
ENDROOT
BRANCH   3   5
ATOM      5  N   UNL     1       3.312  -6.790   1.088  0.00  0.00    -0.192 NA
ATOM      6  C   UNL     1       3.920  -7.511   0.222  0.00  0.00    +0.118 C 
BRANCH   6   7
ATOM      7  C   UNL     1       4.636  -8.764   0.655  0.00  0.00    +0.125 C 
ATOM      8  C   UNL     1       6.092  -8.718   0.238  0.00  0.00    +0.123 C 
ATOM      9  N   UNL     1       6.267  -9.714  -0.567  0.00  0.00    -0.161 NA
ATOM     10  N   UNL     1       5.104 -10.452  -0.762  0.00  0.00    -0.153 NA
ATOM     11  C   UNL     1       4.094  -9.971  -0.084  0.00  0.00    +0.084 C 
BRANCH  11  12
ATOM     12  C   UNL     1       2.718 -10.491  -0.046  0.00  0.00    +0.000 A 
ATOM     13  C   UNL     1       1.746  -9.851   0.730  0.00  0.00    +0.011 A 
ATOM     14  C   UNL     1       0.459 -10.343   0.761  0.00  0.00    +0.022 A 
ATOM     15  C   UNL     1       0.126 -11.469   0.026  0.00  0.00    +0.059 A 
ATOM     16  C   UNL     1       1.083 -12.108  -0.746  0.00  0.00    +0.060 A 
ATOM     17  C   UNL     1       2.374 -11.624  -0.791  0.00  0.00    +0.031 A 
ATOM     18 CL   UNL     1       0.655 -13.519  -1.664  0.00  0.00    -0.082 Cl
ATOM     19 CL   UNL     1      -1.498 -12.081   0.072  0.00  0.00    -0.082 Cl
ENDBRANCH  11  12
ENDBRANCH   6   7
ENDBRANCH   3   5
BRANCH   1  20
ATOM     20  C   UNL     1       1.290  -3.612   1.164  0.00  0.00    +0.169 C 
BRANCH  20  21
ATOM     21  S   UNL     1       0.533  -2.818   2.610  0.00  0.00    -0.112 S 
BRANCH  21  26
ATOM     22  C   UNL     1      -0.040   1.552   0.070  0.00  0.00    +0.046 C 
ATOM     23  C   UNL     1      -0.008   0.023   0.020  0.00  0.00    +0.155 C 
ATOM     24  N   UNL     1      -1.386  -0.515   0.073  0.00  0.00    -0.235 NA
ATOM     25  N   UNL     1      -1.272  -1.732   0.893  0.00  0.00    -0.226 NA
ATOM     26  C   UNL     1      -0.277  -1.345   1.927  0.00  0.00    +0.217 C 
ATOM     27  N   UNL     1       0.698  -0.506   1.200  0.00  0.00    -0.288 N 
ATOM     28  H   UNL     1      -1.726  -0.732  -0.852  0.00  0.00    +0.143 HD
ATOM     29  H   UNL     1      -2.158  -1.969   1.313  0.00  0.00    +0.143 HD
BRANCH  27  30
ATOM     30  C   UNL     1       2.025  -0.262   1.560  0.00  0.00    +0.033 A 
ATOM     31  C   UNL     1       2.860   0.445   0.704  0.00  0.00    +0.023 A 
ATOM     32  C   UNL     1       4.171   0.685   1.062  0.00  0.00    +0.002 A 
ATOM     33  C   UNL     1       4.655   0.222   2.273  0.00  0.00    +0.000 A 
ATOM     34  C   UNL     1       3.826  -0.482   3.127  0.00  0.00    +0.002 A 
ATOM     35  C   UNL     1       2.512  -0.721   2.777  0.00  0.00    +0.023 A 
ENDBRANCH  27  30
ENDBRANCH  21  26
ENDBRANCH  20  21
ENDBRANCH   1  20
TORSDOF 7
