REMARK  Name = ZINC63258757
REMARK  10 active torsions:
REMARK  status: ('A' for Active; 'I' for Inactive)
REMARK    1  A    between atoms: C_1  and  C_2
REMARK    2  A    between atoms: C_7  and  C_18
REMARK    3  A    between atoms: C_9  and  C_12
REMARK    4  A    between atoms: N_20  and  N_21
REMARK    5  A    between atoms: C_22  and  C_23
REMARK    6  A    between atoms: C_26  and  O_34
REMARK    7  A    between atoms: C_27  and  O_32
REMARK    8  A    between atoms: C_28  and  C_29
REMARK    9  A    between atoms: O_32  and  C_33
REMARK   10  A    between atoms: O_34  and  C_35
REMARK                            x       y       z     vdW  Elec       q    Type
REMARK                         _______ _______ _______ _____ _____    ______ ____
ROOT
ATOM      1  C   UNL     1      -1.160  -5.275   1.885  0.00  0.00    +0.259 C 
ATOM      2  O   UNL     1      -2.156  -5.243   1.195  0.00  0.00    -0.271 OA
ATOM      3  N   UNL     1      -1.149  -6.003   3.019  0.00  0.00    -0.205 N 
ATOM      4  H   UNL     1      -0.379  -5.971   3.608  0.00  0.00    +0.177 HD
ENDROOT
BRANCH   1  11
ATOM      5  C   UNL     1       0.005   1.331  -0.204  0.00  0.00    +0.044 C 
ATOM      6  C   UNL     1       0.019  -0.176  -0.173  0.00  0.00    -0.050 A 
ATOM      7  C   UNL     1       0.019  -0.883  -1.380  0.00  0.00    +0.005 A 
ATOM      8  C   UNL     1       0.032  -2.236  -1.417  0.00  0.00    +0.026 A 
ATOM      9  C   UNL     1       0.044  -2.976  -0.204  0.00  0.00    +0.044 A 
ATOM     10  N   UNL     1       0.057  -4.270   0.027  0.00  0.00    -0.370 N 
ATOM     11  C   UNL     1       0.066  -4.500   1.475  0.00  0.00    +0.199 C 
ATOM     12  C   UNL     1       0.057  -3.130   2.116  0.00  0.00    -0.000 C 
ATOM     13  C   UNL     1       0.044  -2.226   1.067  0.00  0.00    +0.004 A 
ATOM     14  C   UNL     1       0.036  -0.811   1.024  0.00  0.00    +0.013 A 
ATOM     15  H   UNL     1       0.060  -4.963  -0.652  0.00  0.00    +0.161 HD
BRANCH  12  16
ATOM     16  C   UNL     1       0.061  -2.824   3.548  0.00  0.00    -0.019 A 
ATOM     17  C   UNL     1      -0.647  -1.715   4.034  0.00  0.00    +0.008 A 
ATOM     18  C   UNL     1      -0.638  -1.435   5.383  0.00  0.00    +0.001 A 
ATOM     19  C   UNL     1       0.068  -2.243   6.258  0.00  0.00    +0.000 A 
ATOM     20  C   UNL     1       0.771  -3.340   5.787  0.00  0.00    +0.001 A 
ATOM     21  C   UNL     1       0.769  -3.640   4.442  0.00  0.00    +0.008 A 
ENDBRANCH  12  16
ENDBRANCH   1  11
BRANCH   3  22
ATOM     22  N   UNL     1      -2.250  -6.805   3.348  0.00  0.00    -0.188 NA
ATOM     23  C   UNL     1      -2.239  -7.506   4.441  0.00  0.00    +0.139 C 
BRANCH  23  24
ATOM     24  C   UNL     1      -3.395  -8.348   4.786  0.00  0.00    +0.012 A 
ATOM     25  C   UNL     1      -4.550  -8.306   4.006  0.00  0.00    +0.014 A 
ATOM     26  C   UNL     1      -5.635  -9.097   4.329  0.00  0.00    +0.050 A 
ATOM     27  C   UNL     1      -5.592  -9.939   5.429  0.00  0.00    +0.162 A 
ATOM     28  C   UNL     1      -4.450  -9.999   6.224  0.00  0.00    +0.176 A 
ATOM     29  C   UNL     1      -3.339  -9.209   5.906  0.00  0.00    +0.117 A 
BRANCH  29  30
ATOM     30  C   UNL     1      -2.127  -9.268   6.733  0.00  0.00    +0.391 C 
ATOM     31  O   UNL     1      -1.201  -8.497   6.519  0.00  0.00    -0.240 OA
ATOM     32  O   UNL     1      -2.043 -10.089   7.637  0.00  0.00    -0.240 OA
ENDBRANCH  29  30
BRANCH  28  33
ATOM     33  O   UNL     1      -4.413 -10.825   7.300  0.00  0.00    -0.491 OA
ATOM     34  C   UNL     1      -3.934 -12.154   7.081  0.00  0.00    +0.277 C 
ENDBRANCH  28  33
BRANCH  27  35
ATOM     35  O   UNL     1      -6.670 -10.710   5.734  0.00  0.00    -0.491 OA
ATOM     36  C   UNL     1      -7.809 -10.600   4.878  0.00  0.00    +0.277 C 
ENDBRANCH  27  35
ENDBRANCH  23  24
ENDBRANCH   3  22
TORSDOF 7
