REMARK  Name = ZINC63752561
REMARK  10 active torsions:
REMARK  status: ('A' for Active; 'I' for Inactive)
REMARK    1  A    between atoms: C_1  and  C_2
REMARK    2  A    between atoms: C_2  and  N_3
REMARK    3  A    between atoms: C_4  and  C_34
REMARK    4  A    between atoms: C_5  and  C_9
REMARK    5  A    between atoms: C_6  and  C_8
REMARK    6  A    between atoms: C_9  and  N_10
REMARK    7  A    between atoms: C_11  and  C_13
REMARK    8  A    between atoms: C_15  and  N_24
REMARK    9  A    between atoms: C_18  and  C_23
REMARK   10  A    between atoms: C_25  and  C_27
REMARK                            x       y       z     vdW  Elec       q    Type
REMARK                         _______ _______ _______ _____ _____    ______ ____
ROOT
ATOM      1  C   UNL     1      -7.417   0.105   2.844  0.00  0.00    +0.211 C 
ATOM      2  C   UNL     1      -8.218   0.873   1.816  0.00  0.00    +0.051 C 
ATOM      3  C   UNL     1      -9.368   1.286   2.469  0.00  0.00    +0.018 A 
ATOM      4  C   UNL     1     -10.491   2.035   2.043  0.00  0.00    +0.015 A 
ATOM      5  C   UNL     1     -11.494   2.297   2.916  0.00  0.00    -0.050 A 
ATOM      6  C   UNL     1     -11.452   1.845   4.238  0.00  0.00    +0.005 A 
ATOM      7  C   UNL     1     -10.409   1.123   4.714  0.00  0.00    +0.026 A 
ATOM      8  C   UNL     1      -9.319   0.808   3.861  0.00  0.00    +0.045 A 
ATOM      9  N   UNL     1      -8.206   0.134   4.079  0.00  0.00    -0.369 N 
ATOM     10  C   UNL     1     -12.684   3.095   2.450  0.00  0.00    +0.044 C 
ATOM     11  H   UNL     1      -7.951  -0.276   4.920  0.00  0.00    +0.161 HD
ENDROOT
BRANCH   1  13
ATOM     12  N   UNL     1      -6.247  -1.612   1.501  0.00  0.00    -0.309 N 
ATOM     13  C   UNL     1      -7.218  -1.318   2.389  0.00  0.00    +0.241 C 
ATOM     14  O   UNL     1      -7.931  -2.199   2.821  0.00  0.00    -0.273 OA
ATOM     15  H   UNL     1      -5.677  -0.908   1.155  0.00  0.00    +0.149 HD
BRANCH  12  16
ATOM     16  C   UNL     1      -6.054  -2.995   1.058  0.00  0.00    +0.143 C 
BRANCH  16  19
ATOM     17  N   UNL     1      -2.914  -3.235  -0.780  0.00  0.00    -0.268 N 
ATOM     18  C   UNL     1      -3.610  -3.248   0.376  0.00  0.00    +0.041 A 
ATOM     19  C   UNL     1      -4.915  -3.053   0.074  0.00  0.00    +0.013 A 
ATOM     20  C   UNL     1      -5.019  -2.915  -1.314  0.00  0.00    +0.065 A 
ATOM     21  N   UNL     1      -3.819  -3.018  -1.827  0.00  0.00    -0.176 NA
ATOM     22  C   UNL     1      -6.292  -2.682  -2.086  0.00  0.00    +0.068 C 
ATOM     23  C   UNL     1      -3.038  -3.447   1.756  0.00  0.00    +0.065 C 
BRANCH  17  25
ATOM     24  C   UNL     1      -0.777  -2.046  -0.828  0.00  0.00    +0.029 C 
ATOM     25  C   UNL     1      -1.465  -3.409  -0.916  0.00  0.00    +0.140 C 
ENDBRANCH  17  25
ENDBRANCH  16  19
ENDBRANCH  12  16
ENDBRANCH   1  13
BRANCH   2  26
ATOM     26  N   UNL     1      -7.879   1.110   0.520  0.00  0.00    -0.282 N 
ATOM     27  C   UNL     1      -8.839   1.216  -0.419  0.00  0.00    +0.248 C 
ATOM     28  O   UNL     1     -10.010   1.132  -0.103  0.00  0.00    -0.270 OA
ATOM     29  H   UNL     1      -6.946   1.203   0.272  0.00  0.00    +0.155 HD
BRANCH  27  30
ATOM     30  C   UNL     1      -8.470   1.433  -1.833  0.00  0.00    +0.037 A 
ATOM     31  C   UNL     1      -7.125   1.524  -2.200  0.00  0.00    +0.014 A 
ATOM     32  C   UNL     1      -6.786   1.726  -3.521  0.00  0.00    +0.021 A 
ATOM     33  C   UNL     1      -7.776   1.841  -4.483  0.00  0.00    +0.041 A 
ATOM     34  C   UNL     1      -9.111   1.752  -4.125  0.00  0.00    +0.021 A 
ATOM     35  C   UNL     1      -9.463   1.543  -2.808  0.00  0.00    +0.014 A 
ATOM     36 CL   UNL     1      -7.341   2.096  -6.144  0.00  0.00    -0.084 Cl
ENDBRANCH  27  30
ENDBRANCH   2  26
TORSDOF 6
