REMARK  Name = ZINC21240365
REMARK  8 active torsions:
REMARK  status: ('A' for Active; 'I' for Inactive)
REMARK    1  A    between atoms: C_1  and  N_2
REMARK    2  A    between atoms: N_2  and  C_3
REMARK    3  A    between atoms: C_3  and  C_4
REMARK    4  A    between atoms: C_7  and  O_10
REMARK    5  A    between atoms: O_10  and  C_11
REMARK    6  A    between atoms: C_14  and  C_16
REMARK    7  A    between atoms: C_16  and  S_17
REMARK    8  A    between atoms: S_17  and  C_18
REMARK                            x       y       z     vdW  Elec       q    Type
REMARK                         _______ _______ _______ _____ _____    ______ ____
ROOT
ATOM      1  S   UNL     1      -1.674  -4.014  -3.899  0.00  0.00    -0.077 S 
ENDROOT
BRANCH   1   2
ATOM      2  C   UNL     1      -1.391  -4.356  -5.604  0.00  0.00    +0.191 A 
ATOM      3  N   UNL     1      -0.145  -4.478  -6.046  0.00  0.00    -0.207 NA
ATOM      4  C   UNL     1       0.129  -4.739  -7.313  0.00  0.00    +0.129 A 
ATOM      5  C   UNL     1      -0.941  -4.883  -8.241  0.00  0.00    +0.051 A 
ATOM      6  C   UNL     1      -0.875  -5.165  -9.677  0.00  0.00    -0.025 A 
ATOM      7  C   UNL     1      -2.047  -5.254 -10.336  0.00  0.00    -0.004 A 
ATOM      8  S   UNL     1      -3.293  -4.972  -9.107  0.00  0.00    -0.073 S 
ATOM      9  C   UNL     1      -2.235  -4.735  -7.704  0.00  0.00    +0.115 A 
ATOM     10  N   UNL     1      -2.427  -4.480  -6.424  0.00  0.00    -0.214 NA
ATOM     11  C   UNL     1      -2.248  -5.531 -11.795  0.00  0.00    +0.043 C 
ATOM     12  C   UNL     1      -0.907  -5.336 -12.516  0.00  0.00    +0.005 C 
ATOM     13  C   UNL     1       0.183  -6.073 -11.733  0.00  0.00    +0.005 C 
ATOM     14  C   UNL     1       0.450  -5.353 -10.410  0.00  0.00    +0.037 C 
ATOM     15  N   UNL     1       1.440  -4.865  -7.734  0.00  0.00    -0.343 N 
ATOM     16  H   UNL     1       1.661  -5.082  -8.789  0.00  0.00    +0.144 HD
ATOM     17  H   UNL     1       2.263  -4.748  -7.013  0.00  0.00    +0.144 HD
ENDBRANCH   1   2
BRANCH   1  18
ATOM     18  C   UNL     1       0.034  -3.956  -3.303  0.00  0.00    +0.173 C 
BRANCH  18  21
ATOM     19  C   UNL     1       2.474  -3.762  -1.875  0.00  0.00    +0.132 C 
ATOM     20  N   UNL     1       1.209  -3.579  -1.159  0.00  0.00    -0.300 N 
ATOM     21  C   UNL     1       0.040  -3.669  -1.823  0.00  0.00    +0.226 C 
ATOM     22  O   UNL     1      -1.007  -3.518  -1.231  0.00  0.00    -0.275 OA
BRANCH  20  23
ATOM     23  C   UNL     1       1.215  -3.300   0.279  0.00  0.00    +0.142 C 
BRANCH  23  24
ATOM     24  C   UNL     1       1.264  -1.810   0.501  0.00  0.00    -0.030 A 
ATOM     25  C   UNL     1       0.090  -1.087   0.600  0.00  0.00    +0.009 A 
ATOM     26  C   UNL     1       0.133   0.278   0.803  0.00  0.00    +0.046 A 
ATOM     27  C   UNL     1       1.355   0.925   0.909  0.00  0.00    +0.127 A 
ATOM     28  C   UNL     1       2.533   0.197   0.810  0.00  0.00    +0.046 A 
ATOM     29  C   UNL     1       2.485  -1.168   0.606  0.00  0.00    +0.009 A 
BRANCH  27  30
ATOM     30  O   UNL     1       1.400   2.268   1.109  0.00  0.00    -0.434 OA
BRANCH  30  31
ATOM     31  C   UNL     1       2.694   2.866   1.208  0.00  0.00    +0.541 C 
ATOM     32  F   UNL     1       3.387   2.303   2.285  0.00  0.00    -0.166 F 
ATOM     33  F   UNL     1       3.405   2.639   0.025  0.00  0.00    -0.166 F 
ENDBRANCH  30  31
ENDBRANCH  27  30
ENDBRANCH  23  24
ENDBRANCH  20  23
ENDBRANCH  18  21
ENDBRANCH   1  18
TORSDOF 7
