REMARK  Name = ZINC67410210
REMARK  6 active torsions:
REMARK  status: ('A' for Active; 'I' for Inactive)
REMARK    1  A    between atoms: C_1  and  C_2
REMARK    2  A    between atoms: C_2  and  C_3
REMARK    3  A    between atoms: C_3  and  C_5
REMARK    4  A    between atoms: C_3  and  N_15
REMARK    5  A    between atoms: N_18  and  C_19
REMARK    6  A    between atoms: C_19  and  C_20
REMARK                            x       y       z     vdW  Elec       q    Type
REMARK                         _______ _______ _______ _____ _____    ______ ____
ROOT
ATOM      1  C   UNL     1      -1.433  -0.534   0.013  0.00  0.00    +0.140 C 
ENDROOT
BRANCH   1   2
ATOM      2  C   UNL     1      -1.416  -2.035  -0.119  0.00  0.00    +0.129 A 
ATOM      3  N   UNL     1      -2.014  -2.900   0.743  0.00  0.00    -0.340 N 
ATOM      4  H   UNL     1      -2.518  -2.663   1.538  0.00  0.00    +0.167 HD
ATOM      5  C   UNL     1      -1.771  -4.177   0.279  0.00  0.00    +0.066 A 
ATOM      6  C   UNL     1      -2.115  -5.448   0.719  0.00  0.00    +0.028 A 
ATOM      7  C   UNL     1      -1.702  -6.553   0.006  0.00  0.00    +0.002 A 
ATOM      8  C   UNL     1      -0.947  -6.402  -1.149  0.00  0.00    +0.002 A 
ATOM      9  C   UNL     1      -0.599  -5.160  -1.597  0.00  0.00    +0.030 A 
ATOM     10  C   UNL     1      -1.007  -4.025  -0.890  0.00  0.00    +0.089 A 
ATOM     11  N   UNL     1      -0.831  -2.692  -1.078  0.00  0.00    -0.231 NA
ENDBRANCH   1   2
BRANCH   1  12
ATOM     12  N   UNL     1      -2.082  -0.162   1.273  0.00  0.00    -0.290 N 
ATOM     13  C   UNL     1      -2.664   1.047   1.400  0.00  0.00    +0.300 C 
ATOM     14  O   UNL     1      -2.651   1.829   0.469  0.00  0.00    -0.253 OA
ATOM     15  N   UNL     1      -3.260   1.389   2.559  0.00  0.00    -0.299 N 
ATOM     16  H   UNL     1      -2.092  -0.785   2.016  0.00  0.00    +0.151 HD
ATOM     17  H   UNL     1      -3.270   0.765   3.302  0.00  0.00    +0.150 HD
BRANCH  15  18
ATOM     18  C   UNL     1      -3.893   2.703   2.698  0.00  0.00    +0.109 C 
BRANCH  18  19
ATOM     19  C   UNL     1      -4.490   2.837   4.100  0.00  0.00    +0.010 C 
ATOM     20  C   UNL     1      -5.252   4.163   4.212  0.00  0.00    +0.009 C 
ATOM     21  C   UNL     1      -5.985   4.189   5.555  0.00  0.00    +0.027 C 
ATOM     22  C   UNL     1      -5.044   3.820   6.664  0.00  0.00    -0.031 C 
ATOM     23  C   UNL     1      -3.908   3.227   6.484  0.00  0.00    -0.031 C 
ATOM     24  C   UNL     1      -3.368   2.829   5.140  0.00  0.00    +0.032 C 
ENDBRANCH  18  19
ENDBRANCH  15  18
ENDBRANCH   1  12
BRANCH   1  26
ATOM     25  C   UNL     1      -0.019   1.526   0.010  0.00  0.00    +0.006 C 
ATOM     26  C   UNL     1       0.002  -0.004   0.002  0.00  0.00    +0.027 C 
ENDBRANCH   1  26
TORSDOF 5
