REMARK  Name = ZINC04931698
REMARK  4 active torsions:
REMARK  status: ('A' for Active; 'I' for Inactive)
REMARK    1  A    between atoms: C_6  and  N_7
REMARK    2  A    between atoms: N_24  and  C_25
REMARK    3  A    between atoms: C_25  and  C_26
REMARK    4  A    between atoms: C_26  and  O_27
REMARK                            x       y       z     vdW  Elec       q    Type
REMARK                         _______ _______ _______ _____ _____    ______ ____
ROOT
ATOM      1  N   UNL     1       1.161   3.485   0.009  0.00  0.00    -0.327 N 
ATOM      2  C   UNL     1       0.381   4.008  -1.121  0.00  0.00    +0.124 C 
ATOM      3  C   UNL     1       0.320   5.535  -1.032  0.00  0.00    +0.127 C 
ATOM      4  N   UNL     1       1.686   6.078  -1.042  0.00  0.00    -0.297 N 
ATOM      5  C   UNL     1       2.466   5.554   0.088  0.00  0.00    +0.127 C 
ATOM      6  C   UNL     1       2.526   4.028  -0.001  0.00  0.00    +0.124 C 
ATOM      7  C   UNL     1       1.669   7.458  -1.035  0.00  0.00    +0.224 A 
ATOM      8  N   UNL     1       2.311   8.125  -0.081  0.00  0.00    -0.181 NA
ATOM      9  C   UNL     1       2.295   9.454  -0.074  0.00  0.00    +0.221 A 
ATOM     10  N   UNL     1       1.638  10.116  -1.022  0.00  0.00    -0.181 NA
ATOM     11  C   UNL     1       0.997   9.449  -1.976  0.00  0.00    +0.224 A 
ATOM     12  N   UNL     1       1.017   8.120  -1.986  0.00  0.00    -0.181 NA
ATOM     13  N   UNL     1       0.314  10.136  -2.959  0.00  0.00    -0.299 N 
ATOM     14  C   UNL     1      -1.139   9.831  -2.910  0.00  0.00    +0.108 C 
ATOM     15  C   UNL     1      -1.776  11.024  -3.667  0.00  0.00    +0.020 C 
ATOM     16  C   UNL     1      -0.903  12.220  -3.225  0.00  0.00    +0.020 C 
ATOM     17  C   UNL     1       0.427  11.597  -2.760  0.00  0.00    +0.108 C 
ATOM     18  N   UNL     1       2.961  10.147   0.916  0.00  0.00    -0.311 N 
ATOM     19  H   UNL     1       2.949  11.117   0.921  0.00  0.00    +0.149 HD
ENDROOT
BRANCH   1  25
ATOM     20  C   UNL     1      -0.017   1.377   0.010  0.00  0.00    +0.026 A 
ATOM     21  C   UNL     1       0.002  -0.004   0.002  0.00  0.00    +0.040 A 
ATOM     22  C   UNL     1       1.210  -0.681  -0.013  0.00  0.00    +0.124 A 
ATOM     23  C   UNL     1       2.401   0.025  -0.021  0.00  0.00    +0.040 A 
ATOM     24  C   UNL     1       2.387   1.406  -0.013  0.00  0.00    +0.026 A 
ATOM     25  C   UNL     1       1.177   2.087   0.002  0.00  0.00    +0.030 A 
ATOM     26  F   UNL     1       1.226  -2.032  -0.020  0.00  0.00    -0.205 F 
ENDBRANCH   1  25
BRANCH  18  27
ATOM     27  C   UNL     1       3.685   9.418   1.961  0.00  0.00    +0.132 C 
BRANCH  27  28
ATOM     28  C   UNL     1       4.328  10.415   2.926  0.00  0.00    +0.174 C 
BRANCH  28  29
ATOM     29  O   UNL     1       3.307  11.142   3.612  0.00  0.00    -0.393 OA
ATOM     30  H   UNL     1       3.643  11.793   4.242  0.00  0.00    +0.209 HD
ENDBRANCH  28  29
ENDBRANCH  27  28
ENDBRANCH  18  27
TORSDOF 4
