REMARK  Name = ZINC04684028
REMARK  6 active torsions:
REMARK  status: ('A' for Active; 'I' for Inactive)
REMARK    1  A    between atoms: C_1  and  C_2
REMARK    2  A    between atoms: C_2  and  C_3
REMARK    3  A    between atoms: C_3  and  N_4
REMARK    4  A    between atoms: N_4  and  C_5
REMARK    5  A    between atoms: C_8  and  N_14
REMARK    6  A    between atoms: C_10  and  N_11
REMARK                            x       y       z     vdW  Elec       q    Type
REMARK                         _______ _______ _______ _____ _____    ______ ____
ROOT
ATOM      1  C   UNL     1      -2.615  -2.759   0.269  0.00  0.00    +0.058 A 
ATOM      2  C   UNL     1      -3.823  -2.084   0.383  0.00  0.00    +0.027 A 
ATOM      3  C   UNL     1      -5.009  -2.746   0.136  0.00  0.00    +0.026 A 
ATOM      4  C   UNL     1      -4.994  -4.086  -0.227  0.00  0.00    +0.046 A 
ATOM      5  C   UNL     1      -3.787  -4.761  -0.341  0.00  0.00    +0.058 A 
ATOM      6  C   UNL     1      -2.599  -4.098  -0.100  0.00  0.00    +0.149 A 
ENDROOT
BRANCH   4   7
ATOM      7  N   UNL     1      -6.200  -4.759  -0.477  0.00  0.00    -0.210 N 
ATOM      8  C   UNL     1      -6.263  -6.069  -0.830  0.00  0.00    +0.230 C 
ATOM      9  O   UNL     1      -5.364  -6.881  -0.778  0.00  0.00    -0.274 OA
ATOM     10  C   UNL     1      -7.666  -6.311  -1.298  0.00  0.00    +0.092 C 
ATOM     11  C   UNL     1      -8.295  -7.659  -1.014  0.00  0.00    +0.040 C 
ATOM     12  C   UNL     1      -9.781  -7.512  -1.264  0.00  0.00    -0.030 C 
ATOM     13  C   UNL     1     -10.407  -6.375  -1.315  0.00  0.00    -0.030 C 
ATOM     14  C   UNL     1      -9.750  -5.027  -1.107  0.00  0.00    +0.040 C 
ATOM     15  C   UNL     1      -8.429  -5.268  -0.423  0.00  0.00    +0.092 C 
ATOM     16  C   UNL     1      -7.418  -4.164  -0.385  0.00  0.00    +0.230 C 
ATOM     17  O   UNL     1      -7.643  -2.976  -0.292  0.00  0.00    -0.274 OA
ENDBRANCH   4   7
BRANCH   6  18
ATOM     18  N   UNL     1      -1.312  -4.816  -0.228  0.00  0.00    +0.058 N 
ATOM     19  O   UNL     1      -0.346  -4.249  -0.684  0.00  0.00    -0.126 OA
ATOM     20  O   UNL     1      -1.225  -5.970   0.124  0.00  0.00    -0.126 OA
ENDBRANCH   6  18
BRANCH   1  21
ATOM     21  N   UNL     1      -1.413  -2.089   0.519  0.00  0.00    -0.342 N 
ATOM     22  H   UNL     1      -0.576  -2.580   0.523  0.00  0.00    +0.146 HD
BRANCH  21  23
ATOM     23  C   UNL     1      -1.418  -0.647   0.776  0.00  0.00    +0.101 C 
BRANCH  23  25
ATOM     24  C   UNL     1       0.009   1.339   1.286  0.00  0.00    +0.005 C 
ATOM     25  C   UNL     1       0.014  -0.167   1.018  0.00  0.00    +0.015 C 
ENDBRANCH  23  25
ENDBRANCH  21  23
ENDBRANCH   1  21
TORSDOF 5
