REMARK  Name = ZINC33068607
REMARK  9 active torsions:
REMARK  status: ('A' for Active; 'I' for Inactive)
REMARK    1  A    between atoms: C_1  and  N_2
REMARK    2  A    between atoms: N_2  and  C_3
REMARK    3  A    between atoms: N_2  and  C_29
REMARK    4  A    between atoms: C_3  and  C_4
REMARK    5  A    between atoms: C_4  and  N_5
REMARK    6  A    between atoms: C_6  and  C_8
REMARK    7  A    between atoms: C_8  and  N_9
REMARK    8  A    between atoms: N_16  and  C_21
REMARK    9  A    between atoms: C_21  and  C_22
REMARK                            x       y       z     vdW  Elec       q    Type
REMARK                         _______ _______ _______ _____ _____    ______ ____
ROOT
ATOM      1  N   UNL     1      -0.016   1.344   0.009  0.00  0.00    -0.293 N 
ATOM      2  C   UNL     1       1.179   2.059   0.002  0.00  0.00    +0.069 A 
ATOM      3  C   UNL     1       1.150   3.449   0.009  0.00  0.00    +0.028 A 
ATOM      4  C   UNL     1       2.330   4.164   0.001  0.00  0.00    +0.002 A 
ATOM      5  C   UNL     1       3.546   3.502  -0.015  0.00  0.00    +0.002 A 
ATOM      6  C   UNL     1       3.587   2.123  -0.022  0.00  0.00    +0.028 A 
ATOM      7  C   UNL     1       2.405   1.392  -0.014  0.00  0.00    +0.069 A 
ATOM      8  N   UNL     1       2.454   0.001  -0.021  0.00  0.00    -0.298 N 
ATOM      9  C   UNL     1       1.312  -0.717  -0.014  0.00  0.00    +0.317 A 
ATOM     10  O   UNL     1       1.350  -1.931  -0.021  0.00  0.00    -0.262 OA
ATOM     11  C   UNL     1       0.002  -0.004   0.002  0.00  0.00    +0.317 A 
ATOM     12  O   UNL     1      -1.038  -0.632   0.008  0.00  0.00    -0.262 OA
ENDROOT
BRANCH   1  13
ATOM     13  C   UNL     1      -1.295   2.058   0.019  0.00  0.00    +0.221 C 
BRANCH  13  15
ATOM     14  N   UNL     1      -2.883   2.940   1.699  0.00  0.00    -0.316 N 
ATOM     15  C   UNL     1      -1.727   2.296   1.444  0.00  0.00    +0.233 C 
ATOM     16  O   UNL     1      -1.035   1.906   2.360  0.00  0.00    -0.274 OA
ATOM     17  H   UNL     1      -3.511   3.293   0.868  0.00  0.00    +0.149 HD
BRANCH  14  18
ATOM     18  C   UNL     1      -3.303   3.171   3.083  0.00  0.00    +0.086 C 
BRANCH  18  19
ATOM     19  C   UNL     1      -4.639   3.917   3.094  0.00  0.00    -0.060 C 
BRANCH  19  21
ATOM     20  C   UNL     1      -5.362   2.879   5.159  0.00  0.00    -0.096 C 
ATOM     21  N   UNL     1      -5.060   4.148   4.482  0.00  0.00    +0.381 N 
ATOM     22  H   UNL     1      -4.223   4.623   5.014  0.00  0.00    -0.082 HD
BRANCH  21  23
ATOM     23  C   UNL     1      -6.208   5.062   4.538  0.00  0.00    -0.069 C 
ATOM     24  C   UNL     1      -5.824   6.404   3.913  0.00  0.00    -0.015 C 
ATOM     25  C   UNL     1      -7.020   7.356   3.971  0.00  0.00    -0.002 C 
ATOM     26  C   UNL     1      -7.428   7.572   5.430  0.00  0.00    -0.000 C 
ATOM     27  C   UNL     1      -7.813   6.229   6.056  0.00  0.00    -0.002 C 
ATOM     28  C   UNL     1      -6.617   5.278   5.997  0.00  0.00    -0.015 C 
ENDBRANCH  21  23
ENDBRANCH  19  21
ENDBRANCH  18  19
ENDBRANCH  14  18
ENDBRANCH  13  15
ENDBRANCH   1  13
BRANCH   8  29
ATOM     29  C   UNL     1       3.749  -0.685  -0.037  0.00  0.00    +0.160 C 
BRANCH  29  30
ATOM     30  C   UNL     1       4.179  -0.913  -1.464  0.00  0.00    -0.028 A 
ATOM     31  C   UNL     1       3.820  -2.078  -2.116  0.00  0.00    +0.007 A 
ATOM     32  C   UNL     1       4.210  -2.284  -3.426  0.00  0.00    +0.020 A 
ATOM     33  C   UNL     1       4.968  -1.330  -4.081  0.00  0.00    +0.041 A 
ATOM     34  C   UNL     1       5.332  -0.167  -3.425  0.00  0.00    +0.020 A 
ATOM     35  C   UNL     1       4.937   0.041  -2.117  0.00  0.00    +0.007 A 
ATOM     36 CL   UNL     1       5.463  -1.592  -5.724  0.00  0.00    -0.084 Cl
ENDBRANCH  29  30
ENDBRANCH   8  29
TORSDOF 8
