REMARK  Name = ZINC62553569
REMARK  4 active torsions:
REMARK  status: ('A' for Active; 'I' for Inactive)
REMARK    1  A    between atoms: C_1  and  C_2
REMARK    2  A    between atoms: N_5  and  C_9
REMARK    3  A    between atoms: C_12  and  N_15
REMARK    4  A    between atoms: C_16  and  C_18
REMARK                            x       y       z     vdW  Elec       q    Type
REMARK                         _______ _______ _______ _____ _____    ______ ____
ROOT
ATOM      1  N   UNL     1      -4.201  -5.396  -3.203  0.00  0.00    -0.285 N 
ATOM      2  C   UNL     1      -4.149  -6.730  -3.016  0.00  0.00    +0.223 C 
ATOM      3  O   UNL     1      -3.565  -7.185  -2.055  0.00  0.00    -0.275 OA
ATOM      4  H   UNL     1      -4.733  -5.028  -3.926  0.00  0.00    +0.155 HD
ENDROOT
BRANCH   2   5
ATOM      5  C   UNL     1      -4.816  -7.655  -4.000  0.00  0.00    +0.048 C 
ATOM      6  C   UNL     1      -4.203  -7.452  -5.387  0.00  0.00    +0.019 C 
ATOM      7  C   UNL     1      -4.881  -8.392  -6.387  0.00  0.00    -0.009 C 
ATOM      8  C   UNL     1      -4.674  -9.842  -5.944  0.00  0.00    +0.007 C 
ATOM      9  C   UNL     1      -5.287 -10.045  -4.557  0.00  0.00    -0.009 C 
ATOM     10  C   UNL     1      -4.609  -9.105  -3.558  0.00  0.00    +0.019 C 
ATOM     11  C   UNL     1      -6.785  -9.737  -4.612  0.00  0.00    +0.007 C 
ATOM     12  C   UNL     1      -6.992  -8.287  -5.054  0.00  0.00    -0.009 C 
ATOM     13  C   UNL     1      -6.379  -8.085  -6.441  0.00  0.00    +0.007 C 
ATOM     14  C   UNL     1      -6.314  -7.348  -4.054  0.00  0.00    +0.019 C 
ENDBRANCH   2   5
BRANCH   1  18
ATOM     15  C   UNL     1      -2.074  -2.851  -0.674  0.00  0.00    +0.030 A 
ATOM     16  C   UNL     1      -1.551  -4.093  -1.009  0.00  0.00    +0.025 A 
ATOM     17  C   UNL     1      -2.256  -4.936  -1.845  0.00  0.00    +0.025 A 
ATOM     18  C   UNL     1      -3.486  -4.541  -2.353  0.00  0.00    +0.034 A 
ATOM     19  C   UNL     1      -4.008  -3.298  -2.019  0.00  0.00    +0.025 A 
ATOM     20  C   UNL     1      -3.308  -2.458  -1.177  0.00  0.00    +0.025 A 
BRANCH  15  24
ATOM     21  C   UNL     1      -1.091   1.742   0.684  0.00  0.00    +0.039 C 
ATOM     22  C   UNL     1      -0.683   0.344   0.216  0.00  0.00    +0.132 C 
ATOM     23  C   UNL     1      -1.839  -0.634   0.454  0.00  0.00    +0.136 C 
ATOM     24  N   UNL     1      -1.360  -1.997   0.173  0.00  0.00    -0.325 N 
ATOM     25  C   UNL     1      -0.109  -2.435   0.811  0.00  0.00    +0.133 C 
ATOM     26  C   UNL     1       0.963  -1.370   0.555  0.00  0.00    +0.179 C 
ATOM     27  O   UNL     1       0.462  -0.091   0.953  0.00  0.00    -0.374 OA
ENDBRANCH  15  24
ENDBRANCH   1  18
TORSDOF 3
