REMARK  Name = ZINC57329229
REMARK  9 active torsions:
REMARK  status: ('A' for Active; 'I' for Inactive)
REMARK    1  A    between atoms: C_1  and  C_2
REMARK    2  A    between atoms: C_2  and  C_3
REMARK    3  A    between atoms: C_4  and  C_19
REMARK    4  A    between atoms: C_11  and  N_12
REMARK    5  A    between atoms: N_12  and  N_13
REMARK    6  A    between atoms: N_14  and  C_15
REMARK    7  A    between atoms: C_15  and  C_16
REMARK    8  A    between atoms: C_16  and  O_17
REMARK    9  A    between atoms: O_17  and  C_18
REMARK                            x       y       z     vdW  Elec       q    Type
REMARK                         _______ _______ _______ _____ _____    ______ ____
ROOT
ATOM      1  C   UNL     1       0.708  -0.493  -1.238  0.00  0.00    +0.014 A 
ATOM      2  C   UNL     1      -0.006  -0.737  -2.408  0.00  0.00    +0.049 A 
ATOM      3  N   UNL     1       0.611  -1.179  -3.485  0.00  0.00    -0.215 NA
ATOM      4  C   UNL     1       1.929  -1.404  -3.487  0.00  0.00    +0.256 A 
ATOM      5  N   UNL     1       2.761  -1.839  -4.428  0.00  0.00    -0.176 NA
ATOM      6  C   UNL     1       3.999  -1.897  -3.940  0.00  0.00    +0.237 A 
ATOM      7  N   UNL     1       3.994  -1.504  -2.684  0.00  0.00    -0.126 NA
ATOM      8  N   UNL     1       2.671  -1.178  -2.361  0.00  0.00    -0.179 N 
ATOM      9  C   UNL     1       2.072  -0.716  -1.227  0.00  0.00    +0.142 A 
ATOM     10  N   UNL     1       5.124  -2.311  -4.649  0.00  0.00    -0.310 N 
ATOM     11  C   UNL     1      -1.493  -0.496  -2.443  0.00  0.00    +0.066 C 
ATOM     12  H   UNL     1       5.992  -2.324  -4.217  0.00  0.00    +0.149 HD
ENDROOT
BRANCH   1  14
ATOM     13  C   UNL     1      -0.110   1.536  -0.071  0.00  0.00    +0.009 C 
ATOM     14  C   UNL     1       0.005   0.012  -0.005  0.00  0.00    +0.037 C 
ENDBRANCH   1  14
BRANCH   9  15
ATOM     15  N   UNL     1       2.812  -0.479  -0.089  0.00  0.00    -0.267 N 
ATOM     16  H   UNL     1       2.367  -0.229   0.736  0.00  0.00    +0.167 HD
BRANCH  15  17
ATOM     17  N   UNL     1       4.172  -0.598  -0.122  0.00  0.00    -0.255 NA
ATOM     18  H   UNL     1       4.577   0.059  -0.773  0.00  0.00    +0.140 HD
ATOM     19  H   UNL     1       4.568  -0.484   0.799  0.00  0.00    +0.140 HD
ENDBRANCH  15  17
ENDBRANCH   9  15
BRANCH  10  20
ATOM     20  C   UNL     1       4.997  -2.726  -6.048  0.00  0.00    +0.132 C 
BRANCH  20  21
ATOM     21  C   UNL     1       6.370  -3.129  -6.588  0.00  0.00    +0.178 C 
BRANCH  21  22
ATOM     22  O   UNL     1       6.835  -4.287  -5.891  0.00  0.00    -0.381 OA
ATOM     23  C   UNL     1       8.117  -4.748  -6.321  0.00  0.00    +0.194 C 
ENDBRANCH  21  22
ENDBRANCH  20  21
ENDBRANCH  10  20
TORSDOF 6
