REMARK  Name = ZINC67473811
REMARK  5 active torsions:
REMARK  status: ('A' for Active; 'I' for Inactive)
REMARK    1  A    between atoms: C_6  and  C_7
REMARK    2  A    between atoms: C_7  and  C_12
REMARK    3  A    between atoms: C_12  and  N_13
REMARK    4  A    between atoms: C_14  and  C_16
REMARK    5  A    between atoms: C_16  and  N_17
REMARK                            x       y       z     vdW  Elec       q    Type
REMARK                         _______ _______ _______ _____ _____    ______ ____
ROOT
ATOM      1  C   UNL     1      -2.057  -0.501   1.308  0.00  0.00    +0.115 C 
ENDROOT
BRANCH   1   2
ATOM      2  C   UNL     1      -1.466  -0.819  -0.067  0.00  0.00    +0.011 C 
ATOM      3  C   UNL     1      -2.477  -0.465  -1.172  0.00  0.00    +0.013 C 
ATOM      4  C   UNL     1      -2.784  -1.776  -1.925  0.00  0.00    +0.001 C 
ATOM      5  C   UNL     1      -2.450  -2.889  -0.901  0.00  0.00    +0.001 C 
ATOM      6  C   UNL     1      -1.193  -2.332  -0.188  0.00  0.00    +0.013 C 
BRANCH   2  12
ATOM      7  C   UNL     1       0.441  -0.063  -1.502  0.00  0.00    +0.005 A 
ATOM      8  C   UNL     1       1.613   0.646  -1.689  0.00  0.00    +0.020 A 
ATOM      9  C   UNL     1       2.155   1.373  -0.644  0.00  0.00    +0.041 A 
ATOM     10  C   UNL     1       1.525   1.390   0.587  0.00  0.00    +0.020 A 
ATOM     11  C   UNL     1       0.354   0.680   0.773  0.00  0.00    +0.005 A 
ATOM     12  C   UNL     1      -0.188  -0.046  -0.271  0.00  0.00    -0.040 A 
ATOM     13 CL   UNL     1       3.627   2.264  -0.879  0.00  0.00    -0.084 Cl
ENDBRANCH   2  12
ENDBRANCH   1   2
BRANCH   1  14
ATOM     14  N   UNL     1      -2.438   0.913   1.360  0.00  0.00    -0.313 N 
ATOM     15  C   UNL     1      -3.034   1.409   2.462  0.00  0.00    +0.230 C 
ATOM     16  O   UNL     1      -3.256   0.686   3.410  0.00  0.00    -0.274 OA
ATOM     17  H   UNL     1      -2.260   1.492   0.602  0.00  0.00    +0.149 HD
BRANCH  15  18
ATOM     18  C   UNL     1      -3.426   2.864   2.517  0.00  0.00    +0.201 C 
BRANCH  18  19
ATOM     19  N   UNL     1      -4.052   3.153   3.809  0.00  0.00    -0.291 N 
ATOM     20  C   UNL     1      -4.485   4.399   4.084  0.00  0.00    +0.297 C 
ATOM     21  O   UNL     1      -4.357   5.283   3.260  0.00  0.00    -0.253 OA
ATOM     22  N   UNL     1      -5.061   4.665   5.274  0.00  0.00    -0.313 N 
ATOM     23  H   UNL     1      -4.154   2.447   4.467  0.00  0.00    +0.151 HD
ATOM     24  H   UNL     1      -5.163   3.960   5.931  0.00  0.00    +0.146 HD
ATOM     25  H   UNL     1      -5.373   5.562   5.472  0.00  0.00    +0.146 HD
ENDBRANCH  18  19
ENDBRANCH  15  18
ENDBRANCH   1  14
TORSDOF 5
