REMARK  Name = ZINC16609877
REMARK  12 active torsions:
REMARK  status: ('A' for Active; 'I' for Inactive)
REMARK    1  A    between atoms: C_1  and  C_2
REMARK    2  A    between atoms: C_2  and  N_3
REMARK    3  A    between atoms: C_4  and  C_36
REMARK    4  A    between atoms: C_5  and  C_29
REMARK    5  A    between atoms: C_6  and  C_11
REMARK    6  A    between atoms: C_15  and  N_17
REMARK    7  A    between atoms: C_18  and  C_20
REMARK    8  A    between atoms: C_29  and  O_31
REMARK    9  A    between atoms: O_31  and  C_32
REMARK   10  A    between atoms: C_32  and  C_33
REMARK   11  A    between atoms: C_33  and  O_34
REMARK   12  A    between atoms: O_34  and  C_35
REMARK                            x       y       z     vdW  Elec       q    Type
REMARK                         _______ _______ _______ _____ _____    ______ ____
ROOT
ATOM      1  C   UNL     1      -1.505   1.398  -0.596  0.00  0.00    -0.021 A 
ATOM      2  C   UNL     1      -0.605   1.980   0.279  0.00  0.00    +0.006 A 
ATOM      3  C   UNL     1       0.448   1.240   0.785  0.00  0.00    +0.002 A 
ATOM      4  C   UNL     1       0.598  -0.086   0.426  0.00  0.00    +0.023 A 
ATOM      5  C   UNL     1      -0.307  -0.674  -0.448  0.00  0.00    +0.034 A 
ATOM      6  C   UNL     1      -1.361   0.074  -0.958  0.00  0.00    +0.029 A 
ENDROOT
BRANCH   1  10
ATOM      7  N   UNL     1      -4.489   1.361  -3.031  0.00  0.00    -0.286 N 
ATOM      8  C   UNL     1      -3.354   1.963  -3.488  0.00  0.00    +0.021 C 
ATOM      9  C   UNL     1      -2.406   2.406  -2.633  0.00  0.00    +0.078 C 
ATOM     10  C   UNL     1      -2.648   2.210  -1.150  0.00  0.00    +0.141 C 
ATOM     11  N   UNL     1      -3.905   1.548  -0.761  0.00  0.00    -0.315 N 
ATOM     12  C   UNL     1      -4.754   1.161  -1.733  0.00  0.00    +0.138 C 
ATOM     13  S   UNL     1      -6.219   0.391  -1.296  0.00  0.00    -0.018 S 
ATOM     14  C   UNL     1      -3.154   2.139  -4.971  0.00  0.00    +0.061 C 
ATOM     15  H   UNL     1      -4.117   1.394   0.173  0.00  0.00    +0.149 HD
BRANCH   7  17
ATOM     16  C   UNL     1      -5.059  -0.464  -4.557  0.00  0.00    +0.025 C 
ATOM     17  C   UNL     1      -5.475   0.905  -4.015  0.00  0.00    +0.109 C 
ENDBRANCH   7  17
BRANCH   9  18
ATOM     18  C   UNL     1      -1.229   3.031  -3.105  0.00  0.00    +0.339 C 
ATOM     19  O   UNL     1      -1.063   3.192  -4.300  0.00  0.00    -0.245 OA
BRANCH  18  20
ATOM     20  O   UNL     1      -0.290   3.450  -2.231  0.00  0.00    -0.459 OA
BRANCH  20  21
ATOM     21  C   UNL     1       0.826   4.161  -2.770  0.00  0.00    +0.260 C 
BRANCH  21  22
ATOM     22  C   UNL     1       1.833   4.449  -1.655  0.00  0.00    +0.200 C 
BRANCH  22  23
ATOM     23  O   UNL     1       2.267   3.218  -1.075  0.00  0.00    -0.380 OA
ATOM     24  C   UNL     1       3.164   3.378   0.026  0.00  0.00    +0.194 C 
ENDBRANCH  22  23
ENDBRANCH  21  22
ENDBRANCH  20  21
ENDBRANCH  18  20
ENDBRANCH   9  18
ENDBRANCH   1  10
BRANCH   5  25
ATOM     25  N   UNL     1      -0.158  -2.016  -0.812  0.00  0.00    -0.281 N 
ATOM     26  C   UNL     1       1.066  -2.579  -0.825  0.00  0.00    +0.248 C 
ATOM     27  O   UNL     1       2.035  -1.934  -0.472  0.00  0.00    -0.270 OA
ATOM     28  H   UNL     1      -0.936  -2.541  -1.056  0.00  0.00    +0.155 HD
BRANCH  26  29
ATOM     29  C   UNL     1       1.231  -3.977  -1.267  0.00  0.00    +0.041 A 
ATOM     30  C   UNL     1       0.139  -4.684  -1.775  0.00  0.00    +0.017 A 
ATOM     31  C   UNL     1       0.295  -5.988  -2.192  0.00  0.00    +0.050 A 
ATOM     32  C   UNL     1       1.535  -6.607  -2.099  0.00  0.00    +0.166 A 
ATOM     33  C   UNL     1       2.629  -5.908  -1.587  0.00  0.00    +0.167 A 
ATOM     34  C   UNL     1       2.479  -4.599  -1.172  0.00  0.00    +0.062 A 
ATOM     35  O   UNL     1       3.717  -6.732  -1.601  0.00  0.00    -0.453 OA
ATOM     36  C   UNL     1       3.188  -8.064  -1.743  0.00  0.00    +0.466 C 
ATOM     37  O   UNL     1       1.941  -7.865  -2.433  0.00  0.00    -0.453 OA
ENDBRANCH  26  29
ENDBRANCH   5  25
TORSDOF 9
