REMARK  Name = ZINC09186969
REMARK  11 active torsions:
REMARK  status: ('A' for Active; 'I' for Inactive)
REMARK    1  A    between atoms: C_1  and  C_2
REMARK    2  A    between atoms: C_5  and  N_8
REMARK    3  A    between atoms: C_9  and  C_11
REMARK    4  A    between atoms: C_11  and  C_13
REMARK    5  A    between atoms: C_11  and  N_14
REMARK    6  A    between atoms: C_15  and  C_17
REMARK    7  A    between atoms: C_28  and  O_30
REMARK    8  A    between atoms: O_30  and  C_31
REMARK    9  A    between atoms: C_31  and  C_32
REMARK   10  A    between atoms: C_31  and  C_33
REMARK   11  A    between atoms: C_31  and  C_34
REMARK                            x       y       z     vdW  Elec       q    Type
REMARK                         _______ _______ _______ _____ _____    ______ ____
ROOT
ATOM      1  N   UNL     1      -1.027  -0.573   0.445  0.00  0.00    -0.303 N 
ATOM      2  C   UNL     1      -1.403  -1.189  -0.694  0.00  0.00    +0.235 C 
ATOM      3  O   UNL     1      -1.668  -0.533  -1.679  0.00  0.00    -0.274 OA
ATOM      4  H   UNL     1      -0.815  -1.098   1.233  0.00  0.00    +0.149 HD
ENDROOT
BRANCH   2   5
ATOM      5  C   UNL     1      -1.495  -2.693  -0.742  0.00  0.00    +0.170 C 
ATOM      6  C   UNL     1      -0.853  -3.208  -2.029  0.00  0.00    +0.067 C 
ATOM      7  C   UNL     1      -1.203  -4.655  -2.260  0.00  0.00    -0.040 A 
ATOM      8  C   UNL     1      -0.392  -5.383  -3.123  0.00  0.00    +0.004 A 
ATOM      9  C   UNL     1      -0.661  -6.710  -3.385  0.00  0.00    +0.000 A 
ATOM     10  C   UNL     1      -1.746  -7.324  -2.787  0.00  0.00    +0.000 A 
ATOM     11  C   UNL     1      -2.550  -6.604  -1.928  0.00  0.00    +0.005 A 
ATOM     12  C   UNL     1      -2.278  -5.269  -1.659  0.00  0.00    -0.027 A 
ATOM     13  C   UNL     1      -3.189  -4.545  -0.700  0.00  0.00    +0.147 C 
ATOM     14  N   UNL     1      -2.908  -3.106  -0.744  0.00  0.00    -0.251 N 
ATOM     15  C   UNL     1      -3.904  -2.198  -0.785  0.00  0.00    +0.404 C 
ATOM     16  O   UNL     1      -3.645  -1.018  -0.916  0.00  0.00    -0.226 OA
BRANCH  15  17
ATOM     17  O   UNL     1      -5.185  -2.599  -0.680  0.00  0.00    -0.445 OA
BRANCH  17  18
ATOM     18  C   UNL     1      -6.205  -1.567  -0.732  0.00  0.00    +0.107 C 
ATOM     19  C   UNL     1      -6.114  -0.827  -2.068  0.00  0.00    +0.055 C 
ATOM     20  C   UNL     1      -7.587  -2.209  -0.598  0.00  0.00    +0.055 C 
ATOM     21  C   UNL     1      -5.989  -0.578   0.415  0.00  0.00    +0.055 C 
ENDBRANCH  17  18
ENDBRANCH  15  17
ENDBRANCH   2   5
BRANCH   1  22
ATOM     22  C   UNL     1      -0.938   0.888   0.492  0.00  0.00    +0.156 C 
ATOM     23  C   UNL     1      -2.316   1.473   0.804  0.00  0.00    +0.038 C 
BRANCH  22  25
ATOM     24  N   UNL     1       0.281   2.603   1.792  0.00  0.00    -0.284 N 
ATOM     25  C   UNL     1       0.037   1.298   1.566  0.00  0.00    +0.237 C 
ATOM     26  O   UNL     1       0.601   0.452   2.227  0.00  0.00    -0.273 OA
ATOM     27  H   UNL     1      -0.225   3.281   1.316  0.00  0.00    +0.155 HD
BRANCH  24  32
ATOM     28  C   UNL     1       4.268   4.140   5.524  0.00  0.00    +0.044 C 
ATOM     29  C   UNL     1       3.209   3.732   4.533  0.00  0.00    -0.050 A 
ATOM     30  C   UNL     1       3.304   2.514   3.884  0.00  0.00    +0.005 A 
ATOM     31  C   UNL     1       2.335   2.138   2.974  0.00  0.00    +0.023 A 
ATOM     32  C   UNL     1       1.264   2.982   2.713  0.00  0.00    +0.033 A 
ATOM     33  C   UNL     1       1.174   4.206   3.363  0.00  0.00    +0.023 A 
ATOM     34  C   UNL     1       2.144   4.575   4.275  0.00  0.00    +0.005 A 
ENDBRANCH  24  32
ENDBRANCH  22  25
ENDBRANCH   1  22
TORSDOF 6
