REMARK  Name = ZINC31744095
REMARK  14 active torsions:
REMARK  status: ('A' for Active; 'I' for Inactive)
REMARK    1  A    between atoms: C_1  and  C_2
REMARK    2  A    between atoms: C_2  and  C_3
REMARK    3  A    between atoms: C_3  and  N_4
REMARK    4  A    between atoms: C_8  and  S_31
REMARK    5  A    between atoms: C_12  and  C_13
REMARK    6  A    between atoms: C_13  and  C_14
REMARK    7  A    between atoms: C_14  and  C_15
REMARK    8  A    between atoms: N_17  and  C_18
REMARK    9  A    between atoms: C_18  and  C_19
REMARK   10  A    between atoms: C_22  and  O_29
REMARK   11  A    between atoms: C_23  and  O_25
REMARK   12  A    between atoms: O_25  and  C_26
REMARK   13  A    between atoms: O_29  and  C_30
REMARK   14  A    between atoms: S_31  and  N_34
REMARK                            x       y       z     vdW  Elec       q    Type
REMARK                         _______ _______ _______ _____ _____    ______ ____
ROOT
ATOM      1  C   UNL     1      -1.221  -0.884   0.009  0.00  0.00    +0.083 C 
ENDROOT
BRANCH   1  10
ATOM      2  N   UNL     1       1.286  -0.454  -0.013  0.00  0.00    -0.328 N 
ATOM      3  C   UNL     1       2.109   0.654  -0.015  0.00  0.00    +0.069 A 
ATOM      4  C   UNL     1       3.486   0.836  -0.027  0.00  0.00    +0.030 A 
ATOM      5  C   UNL     1       4.006   2.112  -0.026  0.00  0.00    +0.030 A 
ATOM      6  C   UNL     1       3.163   3.215  -0.012  0.00  0.00    +0.107 A 
ATOM      7  C   UNL     1       1.807   3.055   0.001  0.00  0.00    +0.058 A 
ATOM      8  C   UNL     1       1.257   1.771  -0.000  0.00  0.00    +0.091 A 
ATOM      9  N   UNL     1      -0.016   1.297   0.009  0.00  0.00    -0.232 NA
ATOM     10  C   UNL     1       0.002  -0.004   0.002  0.00  0.00    +0.111 A 
BRANCH   6  11
ATOM     11  S   UNL     1       3.851   4.837  -0.011  0.00  0.00    +0.056 S 
ATOM     12  O   UNL     1       2.868   5.694   0.554  0.00  0.00    -0.153 OA
ATOM     13  O   UNL     1       5.161   4.723   0.526  0.00  0.00    -0.153 OA
BRANCH  11  14
ATOM     14  N   UNL     1       4.026   5.296  -1.592  0.00  0.00    -0.204 NA
ATOM     15  H   UNL     1       4.454   6.308  -1.635  0.00  0.00    +0.144 HD
ATOM     16  H   UNL     1       3.043   5.292  -2.086  0.00  0.00    +0.144 HD
ENDBRANCH  11  14
ENDBRANCH   6  11
BRANCH   2  17
ATOM     17  C   UNL     1       1.715  -1.855  -0.024  0.00  0.00    +0.123 C 
BRANCH  17  19
ATOM     18  C   UNL     1       2.298  -3.798  -1.483  0.00  0.00    +0.005 C 
ATOM     19  C   UNL     1       1.850  -2.335  -1.471  0.00  0.00    +0.018 C 
ENDBRANCH  17  19
ENDBRANCH   2  17
ENDBRANCH   1  10
BRANCH   1  20
ATOM     20  C   UNL     1      -1.649  -1.175  -1.431  0.00  0.00    +0.103 C 
BRANCH  20  21
ATOM     21  C   UNL     1      -2.872  -2.055  -1.424  0.00  0.00    +0.214 C 
ATOM     22  O   UNL     1      -3.354  -2.414  -0.371  0.00  0.00    -0.276 OA
ATOM     23  N   UNL     1      -3.430  -2.442  -2.588  0.00  0.00    -0.311 N 
ATOM     24  H   UNL     1      -2.992  -2.116  -3.543  0.00  0.00    +0.149 HD
BRANCH  23  25
ATOM     25  C   UNL     1      -4.619  -3.298  -2.581  0.00  0.00    +0.139 C 
BRANCH  25  26
ATOM     26  C   UNL     1      -5.040  -3.584  -4.000  0.00  0.00    -0.027 A 
ATOM     27  C   UNL     1      -5.937  -2.746  -4.636  0.00  0.00    +0.009 A 
ATOM     28  C   UNL     1      -6.322  -3.001  -5.939  0.00  0.00    +0.050 A 
ATOM     29  C   UNL     1      -5.817  -4.105  -6.606  0.00  0.00    +0.162 A 
ATOM     30  C   UNL     1      -4.919  -4.952  -5.965  0.00  0.00    +0.169 A 
ATOM     31  C   UNL     1      -4.533  -4.688  -4.660  0.00  0.00    +0.054 A 
BRANCH  29  32
ATOM     32  O   UNL     1      -6.199  -4.360  -7.887  0.00  0.00    -0.491 OA
ATOM     33  C   UNL     1      -7.124  -3.448  -8.482  0.00  0.00    +0.277 C 
ENDBRANCH  29  32
BRANCH  30  34
ATOM     34  O   UNL     1      -4.421  -6.037  -6.616  0.00  0.00    -0.431 OA
BRANCH  34  35
ATOM     35  C   UNL     1      -3.504  -6.862  -5.895  0.00  0.00    +0.541 C 
ATOM     36  F   UNL     1      -2.389  -6.103  -5.521  0.00  0.00    -0.166 F 
ATOM     37  F   UNL     1      -4.130  -7.366  -4.750  0.00  0.00    -0.166 F 
ENDBRANCH  34  35
ENDBRANCH  30  34
ENDBRANCH  25  26
ENDBRANCH  23  25
ENDBRANCH  20  21
ENDBRANCH   1  20
TORSDOF 12
