REMARK  Name = ZINC04277886
REMARK  6 active torsions:
REMARK  status: ('A' for Active; 'I' for Inactive)
REMARK    1  A    between atoms: C_1  and  C_2
REMARK    2  A    between atoms: C_8  and  C_10
REMARK    3  A    between atoms: N_12  and  C_13
REMARK    4  A    between atoms: C_13  and  C_15
REMARK    5  A    between atoms: C_13  and  C_22
REMARK    6  A    between atoms: C_15  and  C_16
REMARK                            x       y       z     vdW  Elec       q    Type
REMARK                         _______ _______ _______ _____ _____    ______ ____
ROOT
ATOM      1  C   UNL     1       2.266   5.324   0.080  0.00  0.00    +0.232 C 
ATOM      2  O   UNL     1       2.379   6.047   1.047  0.00  0.00    -0.274 OA
ATOM      3  N   UNL     1       2.789   4.082   0.103  0.00  0.00    -0.303 N 
ATOM      4  H   UNL     1       2.699   3.503  -0.671  0.00  0.00    +0.150 HD
ENDROOT
BRANCH   1  12
ATOM      5  C   UNL     1       4.194   8.494  -1.874  0.00  0.00    +0.109 C 
ATOM      6  C   UNL     1       3.451   7.354  -1.229  0.00  0.00    +0.213 C 
ATOM      7  O   UNL     1       3.939   6.768  -0.286  0.00  0.00    -0.276 OA
ATOM      8  N   UNL     1       2.243   6.984  -1.700  0.00  0.00    -0.294 N 
ATOM      9  C   UNL     1       1.590   7.740  -2.780  0.00  0.00    +0.089 C 
ATOM     10  C   UNL     1       0.163   8.083  -2.340  0.00  0.00    -0.063 C 
ATOM     11  C   UNL     1       0.117   6.232  -0.773  0.00  0.00    -0.050 C 
ATOM     12  C   UNL     1       1.543   5.814  -1.148  0.00  0.00    +0.145 C 
ATOM     13  N   UNL     1      -0.541   6.847  -1.943  0.00  0.00    +0.382 N 
ATOM     14  H   UNL     1      -0.527   6.183  -2.726  0.00  0.00    -0.086 HD
ATOM     15  H   UNL     1      -1.513   7.074  -1.703  0.00  0.00    -0.086 HD
ENDBRANCH   1  12
BRANCH   3  16
ATOM     16  C   UNL     1       3.492   3.605   1.296  0.00  0.00    +0.159 C 
BRANCH  16  17
ATOM     17  C   UNL     1       4.930   4.053   1.244  0.00  0.00    +0.231 C 
ATOM     18  O   UNL     1       5.328   4.706   0.303  0.00  0.00    -0.274 OA
ATOM     19  N   UNL     1       5.774   3.728   2.244  0.00  0.00    -0.328 N 
ATOM     20  H   UNL     1       5.455   3.206   2.997  0.00  0.00    +0.145 HD
ATOM     21  H   UNL     1       6.699   4.016   2.210  0.00  0.00    +0.145 HD
ENDBRANCH  16  17
BRANCH  16  22
ATOM     22  C   UNL     1       3.435   2.077   1.346  0.00  0.00    +0.035 C 
BRANCH  22  23
ATOM     23  C   UNL     1       1.979   1.625   1.468  0.00  0.00    -0.009 C 
ATOM     24  C   UNL     1       1.911   0.098   1.395  0.00  0.00    +0.003 C 
ATOM     25  C   UNL     1       0.455  -0.354   1.518  0.00  0.00    +0.000 C 
ATOM     26  C   UNL     1      -0.116   0.118   2.857  0.00  0.00    +0.000 C 
ATOM     27  C   UNL     1      -0.048   1.645   2.929  0.00  0.00    +0.000 C 
ATOM     28  C   UNL     1       1.409   2.097   2.807  0.00  0.00    +0.003 C 
ENDBRANCH  22  23
ENDBRANCH  16  22
ENDBRANCH   3  16
TORSDOF 5
