REMARK  Name = ZINC43261070
REMARK  9 active torsions:
REMARK  status: ('A' for Active; 'I' for Inactive)
REMARK    1  A    between atoms: C_1  and  C_2
REMARK    2  A    between atoms: C_2  and  C_3
REMARK    3  A    between atoms: C_3  and  C_5
REMARK    4  A    between atoms: C_3  and  N_20
REMARK    5  A    between atoms: C_5  and  C_7
REMARK    6  A    between atoms: C_5  and  N_13
REMARK    7  A    between atoms: N_13  and  C_14
REMARK    8  A    between atoms: N_13  and  C_15
REMARK    9  A    between atoms: C_15  and  C_16
REMARK                            x       y       z     vdW  Elec       q    Type
REMARK                         _______ _______ _______ _____ _____    ______ ____
ROOT
ATOM      1  C   UNL     1      -1.644  -1.777   0.052  0.00  0.00    +0.079 C 
ENDROOT
BRANCH   1   2
ATOM      2  C   UNL     1      -0.816  -2.041   1.283  0.00  0.00    +0.006 A 
ATOM      3  C   UNL     1       0.528  -2.176   1.394  0.00  0.00    +0.014 A 
ATOM      4  C   UNL     1       1.077  -2.417   2.640  0.00  0.00    +0.023 A 
ATOM      5  C   UNL     1       0.254  -2.511   3.714  0.00  0.00    +0.055 A 
ATOM      6  S   UNL     1      -1.349  -2.247   2.974  0.00  0.00    -0.085 S 
ATOM      7 BR   UNL     1       0.691  -2.830   5.526  0.00  0.00    -0.043 Br
ENDBRANCH   1   2
BRANCH   1   8
ATOM      8  N   UNL     1      -2.756  -2.736  -0.005  0.00  0.00    -0.292 NA
ATOM      9  C   UNL     1      -2.258  -4.116  -0.080  0.00  0.00    +0.105 C 
BRANCH   8  10
ATOM     10  C   UNL     1      -3.658  -2.563   1.142  0.00  0.00    +0.198 C 
BRANCH  10  11
ATOM     11  C   UNL     1      -5.000  -3.234   0.840  0.00  0.00    +0.402 C 
ATOM     12  F   UNL     1      -4.813  -4.614   0.710  0.00  0.00    -0.169 F 
ATOM     13  F   UNL     1      -5.894  -2.980   1.886  0.00  0.00    -0.169 F 
ATOM     14  F   UNL     1      -5.520  -2.719  -0.353  0.00  0.00    -0.169 F 
ENDBRANCH  10  11
ENDBRANCH   8  10
ENDBRANCH   1   8
BRANCH   1  15
ATOM     15  C   UNL     1      -2.201  -0.353   0.107  0.00  0.00    -0.053 C 
BRANCH  15  16
ATOM     16  N   UNL     1      -3.148  -0.155  -0.998  0.00  0.00    +0.381 N 
ATOM     17  H   UNL     1      -2.692  -0.362  -1.874  0.00  0.00    -0.090 HD
ATOM     18  H   UNL     1      -3.939  -0.770  -0.877  0.00  0.00    -0.090 HD
ATOM     19  H   UNL     1      -3.465   0.803  -1.002  0.00  0.00    -0.090 HD
ENDBRANCH  15  16
BRANCH  15  21
ATOM     20  C   UNL     1      -1.591   2.069   0.158  0.00  0.00    +0.002 C 
ATOM     21  C   UNL     1      -1.052   0.649  -0.021  0.00  0.00    -0.018 C 
ENDBRANCH  15  21
ENDBRANCH   1  15
TORSDOF 7
