REMARK  Name = ZINC03999704
REMARK  8 active torsions:
REMARK  status: ('A' for Active; 'I' for Inactive)
REMARK    1  A    between atoms: C_1  and  C_2
REMARK    2  A    between atoms: C_4  and  N_24
REMARK    3  A    between atoms: C_7  and  N_8
REMARK    4  A    between atoms: N_8  and  C_9
REMARK    5  A    between atoms: C_11  and  O_23
REMARK    6  A    between atoms: C_13  and  O_22
REMARK    7  A    between atoms: C_15  and  O_21
REMARK    8  A    between atoms: C_17  and  C_20
REMARK                            x       y       z     vdW  Elec       q    Type
REMARK                         _______ _______ _______ _____ _____    ______ ____
ROOT
ATOM      1  C   UNL     1       3.641  -2.114  -0.045  0.00  0.00    +0.235 C 
ATOM      2  C   UNL     1       4.823  -2.602  -0.887  0.00  0.00    +0.192 C 
ATOM      3  C   UNL     1       6.129  -2.121  -0.246  0.00  0.00    +0.178 C 
ATOM      4  C   UNL     1       6.194  -2.630   1.197  0.00  0.00    +0.174 C 
ATOM      5  C   UNL     1       4.959  -2.140   1.959  0.00  0.00    +0.149 C 
ATOM      6  O   UNL     1       3.780  -2.596   1.293  0.00  0.00    -0.351 OA
ATOM      7  C   UNL     1       4.987  -2.693   3.385  0.00  0.00    +0.041 C 
ENDROOT
BRANCH   1   8
ATOM      8  N   UNL     1       3.620  -0.649  -0.036  0.00  0.00    -0.317 N 
ATOM      9  H   UNL     1       4.452  -0.151  -0.042  0.00  0.00    +0.149 HD
BRANCH   8  16
ATOM     10  C   UNL     1       3.670   2.195  -0.021  0.00  0.00    +0.046 C 
ATOM     11  C   UNL     1       2.377   1.420  -0.013  0.00  0.00    -0.027 A 
ATOM     12  C   UNL     1       1.169   2.090   0.002  0.00  0.00    +0.038 A 
ATOM     13  C   UNL     1      -0.017   1.379   0.010  0.00  0.00    +0.127 A 
ATOM     14  C   UNL     1       0.002  -0.004   0.002  0.00  0.00    +0.034 A 
ATOM     15  C   UNL     1       1.206  -0.680  -0.013  0.00  0.00    +0.025 A 
ATOM     16  C   UNL     1       2.400   0.031  -0.021  0.00  0.00    +0.032 A 
BRANCH  13  17
ATOM     17  N   UNL     1      -1.309   2.100   0.020  0.00  0.00    +0.056 N 
ATOM     18  O   UNL     1      -2.355   1.475   0.021  0.00  0.00    -0.126 OA
ATOM     19  O   UNL     1      -1.327   3.317   0.026  0.00  0.00    -0.126 OA
ENDBRANCH  13  17
ENDBRANCH   8  16
ENDBRANCH   1   8
BRANCH   4  20
ATOM     20  O   UNL     1       7.374  -2.127   1.828  0.00  0.00    -0.387 OA
ATOM     21  H   UNL     1       7.480  -2.410   2.747  0.00  0.00    +0.210 HD
ENDBRANCH   4  20
BRANCH   3  22
ATOM     22  O   UNL     1       7.240  -2.632  -0.985  0.00  0.00    -0.386 OA
ATOM     23  H   UNL     1       7.258  -2.354  -1.911  0.00  0.00    +0.210 HD
ENDBRANCH   3  22
BRANCH   2  24
ATOM     24  O   UNL     1       4.814  -4.030  -0.941  0.00  0.00    -0.385 OA
ATOM     25  H   UNL     1       4.012  -4.403  -1.332  0.00  0.00    +0.210 HD
ENDBRANCH   2  24
TORSDOF 6
