REMARK  Name = ZINC09043361
REMARK  7 active torsions:
REMARK  status: ('A' for Active; 'I' for Inactive)
REMARK    1  A    between atoms: C_1  and  O_2
REMARK    2  A    between atoms: O_2  and  C_3
REMARK    3  A    between atoms: C_6  and  C_9
REMARK    4  A    between atoms: C_9  and  N_10
REMARK    5  A    between atoms: N_10  and  C_11
REMARK    6  A    between atoms: C_11  and  N_13
REMARK    7  A    between atoms: N_13  and  N_14
REMARK                            x       y       z     vdW  Elec       q    Type
REMARK                         _______ _______ _______ _____ _____    ______ ____
ROOT
ATOM      1  N   UNL     1      -0.209  -3.236   7.351  0.00  0.00    -0.235 N 
ATOM      2  C   UNL     1      -1.113  -3.466   8.354  0.00  0.00    +0.213 A 
ATOM      3  N   UNL     1      -2.408  -3.085   8.182  0.00  0.00    -0.294 N 
ATOM      4  H   UNL     1      -2.684  -2.672   7.349  0.00  0.00    +0.172 HD
ATOM      5  C   UNL     1      -3.311  -3.279   9.168  0.00  0.00    +0.257 A 
ATOM      6  O   UNL     1      -4.469  -2.919   9.034  0.00  0.00    -0.267 OA
ATOM      7  C   UNL     1      -2.888  -3.904  10.350  0.00  0.00    +0.049 A 
ATOM      8  C   UNL     1      -1.565  -4.300  10.460  0.00  0.00    +0.084 A 
ATOM      9  N   UNL     1      -0.710  -4.057   9.460  0.00  0.00    -0.214 NA
ATOM     10  C   UNL     1      -1.129  -5.021  11.677  0.00  0.00    +0.004 A 
ATOM     11  C   UNL     1       0.225  -5.166  11.971  0.00  0.00    +0.010 A 
ATOM     12  C   UNL     1       0.608  -5.824  13.123  0.00  0.00    +0.001 A 
ATOM     13  C   UNL     1      -0.350  -6.335  13.980  0.00  0.00    +0.000 A 
ATOM     14  C   UNL     1      -1.695  -6.200  13.688  0.00  0.00    +0.004 A 
ATOM     15  C   UNL     1      -2.091  -5.553  12.534  0.00  0.00    -0.037 A 
ATOM     16  C   UNL     1      -3.551  -5.451  12.185  0.00  0.00    +0.047 C 
ATOM     17  C   UNL     1      -3.849  -4.126  11.486  0.00  0.00    +0.007 C 
ATOM     18  C   UNL     1      -5.280  -4.153  10.939  0.00  0.00    +0.012 C 
ATOM     19  C   UNL     1      -6.261  -4.375  12.091  0.00  0.00    +0.001 C 
ATOM     20  C   UNL     1      -6.127  -3.233  13.102  0.00  0.00    +0.000 C 
ATOM     21  C   UNL     1      -4.698  -3.200  13.646  0.00  0.00    +0.001 C 
ATOM     22  C   UNL     1      -3.717  -2.980  12.493  0.00  0.00    +0.012 C 
ATOM     23  H   UNL     1      -0.494  -2.801   6.532  0.00  0.00    +0.173 HD
ENDROOT
BRANCH   1  24
ATOM     24  N   UNL     1       1.126  -3.627   7.508  0.00  0.00    -0.246 N 
ATOM     25  H   UNL     1       1.411  -4.062   8.327  0.00  0.00    +0.172 HD
BRANCH  24  26
ATOM     26  C   UNL     1       2.016  -3.400   6.521  0.00  0.00    +0.147 C 
ATOM     27  S   UNL     1       3.648  -3.879   6.713  0.00  0.00    -0.017 S 
BRANCH  26  28
ATOM     28  N   UNL     1       1.620  -2.797   5.383  0.00  0.00    -0.321 N 
ATOM     29  H   UNL     1       0.695  -2.526   5.274  0.00  0.00    +0.148 HD
BRANCH  28  30
ATOM     30  C   UNL     1       2.587  -2.550   4.310  0.00  0.00    +0.138 C 
BRANCH  30  34
ATOM     31  C   UNL     1       0.626  -0.618   1.042  0.00  0.00    +0.120 A 
ATOM     32  C   UNL     1       1.202   0.138   2.051  0.00  0.00    +0.046 A 
ATOM     33  C   UNL     1       1.835  -0.488   3.107  0.00  0.00    +0.009 A 
ATOM     34  C   UNL     1       1.895  -1.869   3.158  0.00  0.00    -0.030 A 
ATOM     35  C   UNL     1       1.322  -2.625   2.152  0.00  0.00    +0.009 A 
ATOM     36  C   UNL     1       0.682  -2.003   1.098  0.00  0.00    +0.046 A 
BRANCH  31  38
ATOM     37  C   UNL     1      -0.017   1.425   0.010  0.00  0.00    +0.277 C 
ATOM     38  O   UNL     1       0.002  -0.004   0.002  0.00  0.00    -0.495 OA
ENDBRANCH  31  38
ENDBRANCH  30  34
ENDBRANCH  28  30
ENDBRANCH  26  28
ENDBRANCH  24  26
ENDBRANCH   1  24
TORSDOF 6
