REMARK  Name = ZINC10423251
REMARK  5 active torsions:
REMARK  status: ('A' for Active; 'I' for Inactive)
REMARK    1  A    between atoms: C_1  and  C_2
REMARK    2  A    between atoms: C_5  and  C_7
REMARK    3  A    between atoms: C_16  and  C_18
REMARK    4  A    between atoms: C_18  and  N_19
REMARK    5  A    between atoms: C_23  and  C_25
REMARK                            x       y       z     vdW  Elec       q    Type
REMARK                         _______ _______ _______ _____ _____    ______ ____
ROOT
ATOM      1  C   UNL     1      -1.159   2.334   0.020  0.00  0.00    +0.010 A 
ATOM      2  C   UNL     1      -0.929   3.671   0.030  0.00  0.00    +0.057 A 
ATOM      3  S   UNL     1       0.850   3.783   0.014  0.00  0.00    -0.076 S 
ATOM      4  C   UNL     1       1.240   2.052   0.001  0.00  0.00    +0.116 A 
ATOM      5  C   UNL     1      -0.017   1.427   0.010  0.00  0.00    +0.080 A 
ATOM      6  C   UNL     1       0.002  -0.004   0.002  0.00  0.00    +0.260 A 
ATOM      7  O   UNL     1      -1.040  -0.637   0.008  0.00  0.00    -0.267 OA
ATOM      8  N   UNL     1       1.188  -0.640  -0.013  0.00  0.00    -0.309 N 
ATOM      9  H   UNL     1       1.207  -1.610  -0.018  0.00  0.00    +0.170 HD
ATOM     10  C   UNL     1       2.358   0.048  -0.020  0.00  0.00    +0.133 A 
ATOM     11  N   UNL     1       2.373   1.354  -0.013  0.00  0.00    -0.225 NA
ENDROOT
BRANCH   1  16
ATOM     12  C   UNL     1      -6.121  -0.233  -0.726  0.00  0.00    +0.051 C 
ATOM     13  C   UNL     1      -4.917   0.581  -0.331  0.00  0.00    -0.013 A 
ATOM     14  C   UNL     1      -4.798   1.504   0.657  0.00  0.00    +0.011 A 
ATOM     15  C   UNL     1      -3.585   2.131   0.848  0.00  0.00    +0.016 A 
ATOM     16  C   UNL     1      -2.540   1.808   0.024  0.00  0.00    +0.021 A 
ATOM     17  S   UNL     1      -3.279   0.579  -1.041  0.00  0.00    -0.093 S 
ENDBRANCH   1  16
BRANCH  10  18
ATOM     18  C   UNL     1       3.662  -0.707  -0.036  0.00  0.00    +0.224 C 
BRANCH  18  19
ATOM     19  N   UNL     1       4.777   0.243  -0.042  0.00  0.00    -0.187 N 
ATOM     20  C   UNL     1       5.399   0.760   1.039  0.00  0.00    +0.439 A 
ATOM     21  O   UNL     1       5.136   0.521   2.203  0.00  0.00    -0.221 OA
ATOM     22  O   UNL     1       6.361   1.585   0.595  0.00  0.00    -0.388 OA
ATOM     23  C   UNL     1       6.344   1.589  -0.756  0.00  0.00    +0.250 A 
ATOM     24  N   UNL     1       5.406   0.787  -1.172  0.00  0.00    -0.126 NA
BRANCH  23  25
ATOM     25  C   UNL     1       7.250   2.372  -1.624  0.00  0.00    +0.039 A 
ATOM     26  C   UNL     1       7.137   2.286  -3.012  0.00  0.00    +0.016 A 
ATOM     27  C   UNL     1       7.981   3.023  -3.817  0.00  0.00    +0.039 A 
ATOM     28  C   UNL     1       8.946   3.839  -3.249  0.00  0.00    +0.123 A 
ATOM     29  C   UNL     1       9.066   3.924  -1.871  0.00  0.00    +0.039 A 
ATOM     30  C   UNL     1       8.223   3.195  -1.057  0.00  0.00    +0.016 A 
ATOM     31  F   UNL     1       9.774   4.554  -4.042  0.00  0.00    -0.205 F 
ENDBRANCH  23  25
ENDBRANCH  18  19
ENDBRANCH  10  18
TORSDOF 4
