REMARK  Name = ZINC12486407
REMARK  9 active torsions:
REMARK  status: ('A' for Active; 'I' for Inactive)
REMARK    1  A    between atoms: C_4  and  C_7
REMARK    2  A    between atoms: C_7  and  C_9
REMARK    3  A    between atoms: C_7  and  N_19
REMARK    4  A    between atoms: N_11  and  C_12
REMARK    5  A    between atoms: C_12  and  C_13
REMARK    6  A    between atoms: N_19  and  C_20
REMARK    7  A    between atoms: C_27  and  C_29
REMARK    8  A    between atoms: C_29  and  N_30
REMARK    9  A    between atoms: C_31  and  C_33
REMARK                            x       y       z     vdW  Elec       q    Type
REMARK                         _______ _______ _______ _____ _____    ______ ____
ROOT
ATOM      1  N   UNL     1      -0.018   1.303   0.023  0.00  0.00    -0.253 N 
ATOM      2  C   UNL     1      -0.021  -0.001   0.363  0.00  0.00    +0.238 C 
ATOM      3  O   UNL     1       1.027  -0.576   0.566  0.00  0.00    -0.274 OA
ENDROOT
BRANCH   1   4
ATOM      4  C   UNL     1      -1.228   1.966  -0.218  0.00  0.00    +0.056 A 
ATOM      5  C   UNL     1      -1.903   2.583   0.827  0.00  0.00    +0.025 A 
ATOM      6  C   UNL     1      -3.093   3.241   0.586  0.00  0.00    +0.002 A 
ATOM      7  C   UNL     1      -3.619   3.276  -0.693  0.00  0.00    +0.002 A 
ATOM      8  C   UNL     1      -2.953   2.659  -1.735  0.00  0.00    +0.022 A 
ATOM      9  C   UNL     1      -1.758   2.003  -1.501  0.00  0.00    +0.062 A 
ATOM     10 CL   UNL     1      -0.923   1.227  -2.810  0.00  0.00    -0.082 Cl
ENDBRANCH   1   4
BRANCH   1  11
ATOM     11  C   UNL     1       1.250   2.026  -0.101  0.00  0.00    +0.197 C 
BRANCH  11  15
ATOM     12  C   UNL     1       1.434   3.937  -3.917  0.00  0.00    +0.000 A 
ATOM     13  C   UNL     1       0.498   4.345  -2.984  0.00  0.00    +0.000 A 
ATOM     14  C   UNL     1       0.439   3.726  -1.750  0.00  0.00    +0.006 A 
ATOM     15  C   UNL     1       1.315   2.700  -1.447  0.00  0.00    -0.018 A 
ATOM     16  C   UNL     1       2.253   2.296  -2.378  0.00  0.00    +0.006 A 
ATOM     17  C   UNL     1       2.309   2.911  -3.615  0.00  0.00    +0.000 A 
ENDBRANCH  11  15
BRANCH  11  18
ATOM     18  C   UNL     1       1.344   3.065   0.986  0.00  0.00    +0.239 C 
ATOM     19  O   UNL     1       0.441   3.190   1.786  0.00  0.00    -0.273 OA
ATOM     20  N   UNL     1       2.433   3.856   1.070  0.00  0.00    -0.311 N 
ATOM     21  H   UNL     1       3.155   3.756   0.430  0.00  0.00    +0.149 HD
BRANCH  20  22
ATOM     22  C   UNL     1       2.524   4.866   2.127  0.00  0.00    +0.135 C 
BRANCH  22  23
ATOM     23  C   UNL     1       3.849   5.620   1.998  0.00  0.00    +0.135 C 
ATOM     24  C   UNL     1       3.955   6.686   3.106  0.00  0.00    +0.035 C 
ATOM     25  C   UNL     1       5.245   6.308   3.873  0.00  0.00    +0.031 C 
ATOM     26  C   UNL     1       6.003   5.446   2.831  0.00  0.00    +0.160 C 
ATOM     27  O   UNL     1       4.949   4.711   2.172  0.00  0.00    -0.375 OA
ENDBRANCH  22  23
ENDBRANCH  20  22
ENDBRANCH  11  18
ENDBRANCH   1  11
BRANCH   2  28
ATOM     28  C   UNL     1      -1.326  -0.744   0.490  0.00  0.00    +0.201 C 
BRANCH  28  29
ATOM     29  N   UNL     1      -1.061  -2.135   0.866  0.00  0.00    -0.300 N 
ATOM     30  C   UNL     1      -2.085  -2.994   1.038  0.00  0.00    +0.280 C 
ATOM     31  O   UNL     1      -3.231  -2.613   0.880  0.00  0.00    -0.267 OA
ATOM     32  H   UNL     1      -0.148  -2.438   0.992  0.00  0.00    +0.150 HD
BRANCH  30  33
ATOM     33  C   UNL     1      -1.820  -4.386   1.414  0.00  0.00    +0.189 A 
ATOM     34  C   UNL     1      -2.760  -5.355   1.619  0.00  0.00    +0.054 A 
ATOM     35  C   UNL     1      -2.065  -6.526   1.959  0.00  0.00    +0.042 A 
ATOM     36  C   UNL     1      -0.748  -6.225   1.947  0.00  0.00    +0.196 A 
ATOM     37  O   UNL     1      -0.604  -4.936   1.613  0.00  0.00    -0.458 OA
ENDBRANCH  30  33
ENDBRANCH  28  29
ENDBRANCH   2  28
TORSDOF 9
