REMARK  Name = ZINC65198875
REMARK  5 active torsions:
REMARK  status: ('A' for Active; 'I' for Inactive)
REMARK    1  A    between atoms: C_8  and  C_15
REMARK    2  A    between atoms: N_17  and  N_18
REMARK    3  A    between atoms: N_21  and  C_22
REMARK    4  A    between atoms: C_22  and  C_23
REMARK    5  A    between atoms: C_23  and  C_24
REMARK                            x       y       z     vdW  Elec       q    Type
REMARK                         _______ _______ _______ _____ _____    ______ ____
ROOT
ATOM      1  C   UNL     1       2.450  -4.258  -0.047  0.00  0.00    +0.262 C 
ATOM      2  O   UNL     1       3.502  -4.868  -0.061  0.00  0.00    -0.269 OA
ATOM      3  N   UNL     1       1.281  -4.928  -0.040  0.00  0.00    -0.229 N 
ATOM      4  H   UNL     1       0.443  -4.441  -0.029  0.00  0.00    +0.173 HD
ENDROOT
BRANCH   1  12
ATOM      5  C   UNL     1      -0.016   1.359   0.009  0.00  0.00    +0.001 A 
ATOM      6  C   UNL     1       1.167   2.088   0.002  0.00  0.00    +0.001 A 
ATOM      7  C   UNL     1       2.377   1.455  -0.013  0.00  0.00    +0.009 A 
ATOM      8  C   UNL     1       2.432   0.059  -0.021  0.00  0.00    -0.009 A 
ATOM      9  C   UNL     1       1.230  -0.687  -0.013  0.00  0.00    -0.016 A 
ATOM     10  C   UNL     1       0.002  -0.004   0.002  0.00  0.00    +0.008 A 
ATOM     11  C   UNL     1       1.263  -2.096  -0.022  0.00  0.00    +0.023 A 
ATOM     12  C   UNL     1       2.454  -2.783  -0.038  0.00  0.00    +0.065 A 
ATOM     13  C   UNL     1       3.729  -2.057  -0.045  0.00  0.00    +0.084 A 
ATOM     14  C   UNL     1       3.717  -0.646  -0.037  0.00  0.00    +0.009 A 
ATOM     15  C   UNL     1       4.931   0.048  -0.045  0.00  0.00    +0.012 A 
ATOM     16  C   UNL     1       6.093  -0.680  -0.060  0.00  0.00    +0.020 A 
ATOM     17  C   UNL     1       6.036  -2.068  -0.067  0.00  0.00    +0.111 A 
ATOM     18  N   UNL     1       4.889  -2.710  -0.060  0.00  0.00    -0.254 NA
ENDBRANCH   1  12
BRANCH   3  19
ATOM     19  N   UNL     1       1.277  -6.329  -0.049  0.00  0.00    -0.218 N 
ATOM     20  C   UNL     1       0.108  -7.000  -0.041  0.00  0.00    +0.316 C 
ATOM     21  O   UNL     1       0.105  -8.216  -0.049  0.00  0.00    -0.251 OA
ATOM     22  N   UNL     1      -1.057  -6.323  -0.026  0.00  0.00    -0.298 N 
ATOM     23  H   UNL     1       2.116  -6.816  -0.059  0.00  0.00    +0.174 HD
ATOM     24  H   UNL     1      -1.054  -5.353  -0.020  0.00  0.00    +0.150 HD
BRANCH  22  25
ATOM     25  C   UNL     1      -2.328  -7.052  -0.018  0.00  0.00    +0.111 C 
BRANCH  25  26
ATOM     26  C   UNL     1      -3.488  -6.055  -0.001  0.00  0.00    +0.061 C 
BRANCH  26  27
ATOM     27  C   UNL     1      -4.795  -6.805   0.007  0.00  0.00    -0.009 A 
ATOM     28  C   UNL     1      -5.528  -7.231   1.064  0.00  0.00    +0.011 A 
ATOM     29  C   UNL     1      -6.710  -7.907   0.831  0.00  0.00    +0.008 A 
ATOM     30  C   UNL     1      -7.102  -8.124  -0.449  0.00  0.00    +0.045 A 
ATOM     31  S   UNL     1      -5.783  -7.355  -1.374  0.00  0.00    -0.102 S 
ENDBRANCH  26  27
ENDBRANCH  25  26
ENDBRANCH  22  25
ENDBRANCH   3  19
TORSDOF 5
