REMARK  Name = ZINC02623414
REMARK  6 active torsions:
REMARK  status: ('A' for Active; 'I' for Inactive)
REMARK    1  A    between atoms: C_9  and  C_12
REMARK    2  A    between atoms: N_14  and  N_15
REMARK    3  A    between atoms: C_16  and  C_18
REMARK    4  A    between atoms: C_22  and  S_24
REMARK    5  A    between atoms: S_24  and  N_27
REMARK    6  A    between atoms: N_27  and  C_28
REMARK                            x       y       z     vdW  Elec       q    Type
REMARK                         _______ _______ _______ _____ _____    ______ ____
ROOT
ATOM      1  N   UNL     1       1.689  -4.909  -0.929  0.00  0.00    -0.230 N 
ATOM      2  C   UNL     1       2.759  -5.550  -0.416  0.00  0.00    +0.260 C 
ATOM      3  O   UNL     1       3.578  -4.936   0.239  0.00  0.00    -0.269 OA
ATOM      4  H   UNL     1       1.036  -5.399  -1.452  0.00  0.00    +0.173 HD
ENDROOT
BRANCH   2   5
ATOM      5  C   UNL     1       2.936  -6.998  -0.652  0.00  0.00    +0.040 A 
ATOM      6  C   UNL     1       1.994  -7.707  -1.400  0.00  0.00    +0.013 A 
ATOM      7  C   UNL     1       2.167  -9.057  -1.621  0.00  0.00    +0.003 A 
ATOM      8  C   UNL     1       3.267  -9.712  -1.093  0.00  0.00    +0.029 A 
ATOM      9  C   UNL     1       4.201  -9.017  -0.347  0.00  0.00    +0.109 A 
ATOM     10  C   UNL     1       4.042  -7.665  -0.123  0.00  0.00    +0.042 A 
BRANCH   9  11
ATOM     11  S   UNL     1       5.597  -9.860   0.320  0.00  0.00    +0.072 S 
ATOM     12  O   UNL     1       5.725 -11.073  -0.409  0.00  0.00    -0.150 OA
ATOM     13  O   UNL     1       6.646  -8.906   0.403  0.00  0.00    -0.150 OA
BRANCH  11  14
ATOM     14  N   UNL     1       5.216 -10.281   1.876  0.00  0.00    -0.216 N 
ATOM     15  H   UNL     1       5.721  -9.910   2.616  0.00  0.00    +0.174 HD
BRANCH  14  16
ATOM     16  C   UNL     1       4.168 -11.173   2.123  0.00  0.00    +0.048 A 
ATOM     17  C   UNL     1       2.963 -10.705   2.633  0.00  0.00    +0.027 A 
ATOM     18  C   UNL     1       1.927 -11.587   2.871  0.00  0.00    +0.040 A 
ATOM     19  C   UNL     1       2.092 -12.937   2.611  0.00  0.00    +0.124 A 
ATOM     20  C   UNL     1       3.294 -13.406   2.108  0.00  0.00    +0.040 A 
ATOM     21  C   UNL     1       4.331 -12.527   1.863  0.00  0.00    +0.027 A 
ATOM     22  F   UNL     1       1.079 -13.798   2.850  0.00  0.00    -0.205 F 
ENDBRANCH  14  16
ENDBRANCH  11  14
ENDBRANCH   9  11
ENDBRANCH   2   5
BRANCH   1  25
ATOM     23  C   UNL     1       0.452  -2.896  -1.217  0.00  0.00    +0.273 C 
ATOM     24  O   UNL     1      -0.365  -3.508  -1.871  0.00  0.00    -0.270 OA
ATOM     25  N   UNL     1       1.522  -3.536  -0.705  0.00  0.00    -0.231 N 
ATOM     26  H   UNL     1       2.175  -3.047  -0.182  0.00  0.00    +0.173 HD
BRANCH  23  35
ATOM     27  C   UNL     1      -1.581   3.076  -1.924  0.00  0.00    +0.004 A 
ATOM     28  C   UNL     1      -2.656   2.207  -1.953  0.00  0.00    +0.004 A 
ATOM     29  C   UNL     1      -2.453   0.847  -1.820  0.00  0.00    +0.049 A 
ATOM     30  C   UNL     1      -1.169   0.350  -1.647  0.00  0.00    +0.163 A 
ATOM     31  C   UNL     1      -0.089   1.223  -1.616  0.00  0.00    +0.162 A 
ATOM     32  C   UNL     1      -0.300   2.587  -1.756  0.00  0.00    +0.049 A 
ATOM     33  O   UNL     1       1.179   0.757  -1.447  0.00  0.00    -0.484 OA
ATOM     34  C   UNL     1       1.388  -0.639  -1.685  0.00  0.00    +0.283 C 
ATOM     35  C   UNL     1       0.272  -1.419  -0.977  0.00  0.00    +0.297 C 
ATOM     36  O   UNL     1      -0.985  -0.992  -1.515  0.00  0.00    -0.472 OA
ENDBRANCH  23  35
ENDBRANCH   1  25
TORSDOF 6
