REMARK  Name = ZINC09833047
REMARK  6 active torsions:
REMARK  status: ('A' for Active; 'I' for Inactive)
REMARK    1  A    between atoms: C_1  and  C_2
REMARK    2  A    between atoms: N_8  and  S_9
REMARK    3  A    between atoms: S_9  and  C_12
REMARK    4  A    between atoms: C_15  and  C_18
REMARK    5  A    between atoms: C_18  and  N_20
REMARK    6  A    between atoms: N_22  and  C_31
REMARK                            x       y       z     vdW  Elec       q    Type
REMARK                         _______ _______ _______ _____ _____    ______ ____
ROOT
ATOM      1  C   UNL     1      -0.656   0.674   2.900  0.00  0.00    +0.106 A 
ATOM      2  C   UNL     1      -1.446   1.720   3.345  0.00  0.00    +0.029 A 
ATOM      3  C   UNL     1      -2.012   1.674   4.602  0.00  0.00    +0.015 A 
ATOM      4  C   UNL     1      -1.788   0.570   5.425  0.00  0.00    +0.039 A 
ATOM      5  C   UNL     1      -0.991  -0.481   4.971  0.00  0.00    +0.015 A 
ATOM      6  C   UNL     1      -0.434  -0.425   3.710  0.00  0.00    +0.029 A 
ENDROOT
BRANCH   1   7
ATOM      7  S   UNL     1       0.063   0.740   1.293  0.00  0.00    +0.061 S 
ATOM      8  O   UNL     1       1.198  -0.115   1.321  0.00  0.00    -0.153 OA
ATOM      9  O   UNL     1       0.153   2.115   0.945  0.00  0.00    -0.153 OA
BRANCH   7  16
ATOM     10  C   UNL     1      -1.955   2.316   0.085  0.00  0.00    +0.026 C 
ATOM     11  C   UNL     1      -2.120   0.850  -0.320  0.00  0.00    +0.077 C 
ATOM     12  C   UNL     1      -2.085   0.732  -1.847  0.00  0.00    +0.020 C 
ATOM     13  C   UNL     1      -2.111  -0.746  -2.242  0.00  0.00    +0.003 C 
ATOM     14  C   UNL     1      -0.875  -1.449  -1.675  0.00  0.00    +0.017 C 
ATOM     15  C   UNL     1      -0.896  -1.356  -0.146  0.00  0.00    +0.110 C 
ATOM     16  N   UNL     1      -1.019   0.056   0.243  0.00  0.00    -0.174 NA
ENDBRANCH   7  16
ENDBRANCH   1   7
BRANCH   4  17
ATOM     17  C   UNL     1      -2.393   0.515   6.776  0.00  0.00    +0.269 C 
ATOM     18  O   UNL     1      -3.088   1.435   7.171  0.00  0.00    -0.268 OA
BRANCH  17  19
ATOM     19  N   UNL     1      -2.176  -0.544   7.562  0.00  0.00    -0.152 NA
ATOM     20  C   UNL     1      -3.202  -1.266   8.002  0.00  0.00    +0.167 A 
ATOM     21  N   UNL     1      -4.492  -1.223   7.581  0.00  0.00    -0.323 N 
ATOM     22  C   UNL     1      -5.431  -2.056   8.159  0.00  0.00    +0.071 A 
ATOM     23  C   UNL     1      -4.911  -2.886   9.163  0.00  0.00    +0.040 A 
ATOM     24  S   UNL     1      -3.194  -2.443   9.202  0.00  0.00    -0.052 S 
ATOM     25  C   UNL     1      -5.691  -3.782   9.854  0.00  0.00    +0.017 A 
ATOM     26  C   UNL     1      -7.040  -3.881   9.560  0.00  0.00    +0.002 A 
ATOM     27  C   UNL     1      -7.581  -3.074   8.573  0.00  0.00    +0.017 A 
ATOM     28  C   UNL     1      -6.801  -2.175   7.881  0.00  0.00    +0.042 A 
ATOM     29 BR   UNL     1      -7.582  -1.093   6.541  0.00  0.00    -0.048 Br
ATOM     30  C   UNL     1      -4.887  -0.298   6.516  0.00  0.00    +0.151 C 
ENDBRANCH  17  19
ENDBRANCH   4  17
TORSDOF 4
