REMARK  Name = ZINC08320701
REMARK  5 active torsions:
REMARK  status: ('A' for Active; 'I' for Inactive)
REMARK    1  A    between atoms: C_1  and  C_2
REMARK    2  A    between atoms: C_6  and  C_8
REMARK    3  A    between atoms: C_13  and  C_15
REMARK    4  A    between atoms: N_20  and  C_21
REMARK    5  A    between atoms: C_21  and  C_22
REMARK                            x       y       z     vdW  Elec       q    Type
REMARK                         _______ _______ _______ _____ _____    ______ ____
ROOT
ATOM      1  C   UNL     1       1.214  -3.973  -4.088  0.00  0.00    +0.281 C 
ATOM      2  O   UNL     1       1.085  -2.765  -4.134  0.00  0.00    -0.265 OA
ATOM      3  N   UNL     1       1.256  -4.602  -2.897  0.00  0.00    -0.162 N 
ATOM      4  C   UNL     1       1.269  -4.018  -1.664  0.00  0.00    +0.222 A 
ATOM      5  N   UNL     1       1.319  -4.974  -0.765  0.00  0.00    -0.190 NA
ATOM      6  C   UNL     1       1.329  -6.171  -1.377  0.00  0.00    +0.219 A 
ATOM      7  N   UNL     1       1.295  -5.989  -2.679  0.00  0.00    -0.137 NA
ATOM      8  N   UNL     1       1.242  -2.663  -1.406  0.00  0.00    -0.309 N 
ATOM      9  H   UNL     1       1.210  -2.030  -2.141  0.00  0.00    +0.149 HD
ENDROOT
BRANCH   1  15
ATOM     10  C   UNL     1       1.602  -4.120  -9.060  0.00  0.00    +0.044 C 
ATOM     11  C   UNL     1       1.511  -4.827  -7.732  0.00  0.00    -0.050 A 
ATOM     12  C   UNL     1       1.530  -6.210  -7.684  0.00  0.00    +0.003 A 
ATOM     13  C   UNL     1       1.446  -6.867  -6.469  0.00  0.00    +0.001 A 
ATOM     14  C   UNL     1       1.343  -6.146  -5.297  0.00  0.00    +0.013 A 
ATOM     15  C   UNL     1       1.324  -4.751  -5.339  0.00  0.00    +0.042 A 
ATOM     16  C   UNL     1       1.403  -4.094  -6.569  0.00  0.00    +0.016 A 
ENDBRANCH   1  15
BRANCH   6  17
ATOM     17  C   UNL     1       1.376  -7.481  -0.696  0.00  0.00    +0.173 A 
ATOM     18  C   UNL     1       1.392  -8.697  -1.304  0.00  0.00    +0.053 A 
ATOM     19  C   UNL     1       1.439  -9.663  -0.280  0.00  0.00    +0.042 A 
ATOM     20  C   UNL     1       1.450  -8.996   0.891  0.00  0.00    +0.196 A 
ATOM     21  O   UNL     1       1.418  -7.678   0.636  0.00  0.00    -0.460 OA
ENDBRANCH   6  17
BRANCH   8  22
ATOM     22  C   UNL     1       1.262  -2.179  -0.024  0.00  0.00    +0.139 C 
BRANCH  22  23
ATOM     23  C   UNL     1       1.225  -0.673  -0.018  0.00  0.00    -0.030 A 
ATOM     24  C   UNL     1       0.012  -0.011   0.012  0.00  0.00    +0.006 A 
ATOM     25  C   UNL     1      -0.022   1.371   0.017  0.00  0.00    +0.020 A 
ATOM     26  C   UNL     1       1.159   2.092  -0.007  0.00  0.00    +0.041 A 
ATOM     27  C   UNL     1       2.373   1.429  -0.037  0.00  0.00    +0.020 A 
ATOM     28  C   UNL     1       2.405   0.047  -0.043  0.00  0.00    +0.006 A 
ATOM     29 CL   UNL     1       1.117   3.827  -0.000  0.00  0.00    -0.084 Cl
ENDBRANCH  22  23
ENDBRANCH   8  22
TORSDOF 4
