REMARK  Name = ZINC64966454
REMARK  11 active torsions:
REMARK  status: ('A' for Active; 'I' for Inactive)
REMARK    1  A    between atoms: C_1  and  C_2
REMARK    2  A    between atoms: C_2  and  C_4
REMARK    3  A    between atoms: C_2  and  N_32
REMARK    4  A    between atoms: C_4  and  C_5
REMARK    5  A    between atoms: C_5  and  N_6
REMARK    6  A    between atoms: C_7  and  C_9
REMARK    7  A    between atoms: C_9  and  N_10
REMARK    8  A    between atoms: C_13  and  S_26
REMARK    9  A    between atoms: S_26  and  N_29
REMARK   10  A    between atoms: N_29  and  C_30
REMARK   11  A    between atoms: N_29  and  C_31
REMARK                            x       y       z     vdW  Elec       q    Type
REMARK                         _______ _______ _______ _____ _____    ______ ____
ROOT
ATOM      1  N   UNL     1       2.457  -5.812   3.833  0.00  0.00    -0.259 N 
ATOM      2  C   UNL     1       1.413  -6.521   4.439  0.00  0.00    +0.060 A 
ATOM      3  C   UNL     1       0.243  -5.875   4.806  0.00  0.00    +0.054 A 
ATOM      4  C   UNL     1      -0.775  -6.589   5.413  0.00  0.00    +0.107 A 
ATOM      5  C   UNL     1      -0.628  -7.943   5.655  0.00  0.00    +0.030 A 
ATOM      6  C   UNL     1       0.536  -8.594   5.288  0.00  0.00    +0.027 A 
ATOM      7  C   UNL     1       1.557  -7.885   4.676  0.00  0.00    +0.052 A 
ATOM      8  N   UNL     1       2.735  -8.548   4.282  0.00  0.00    -0.317 N 
ATOM      9  C   UNL     1       3.036  -9.820   4.937  0.00  0.00    +0.106 C 
ATOM     10  C   UNL     1       4.541 -10.022   5.085  0.00  0.00    +0.019 C 
ATOM     11  C   UNL     1       5.188  -9.833   3.709  0.00  0.00    +0.004 C 
ATOM     12  C   UNL     1       5.018  -8.378   3.290  0.00  0.00    +0.032 C 
ATOM     13  C   UNL     1       3.555  -7.969   3.231  0.00  0.00    +0.160 C 
ATOM     14  C   UNL     1       3.470  -6.465   3.244  0.00  0.00    +0.241 C 
ATOM     15  O   UNL     1       4.349  -5.824   2.707  0.00  0.00    -0.273 OA
ENDROOT
BRANCH   4  16
ATOM     16  S   UNL     1      -2.264  -5.770   5.879  0.00  0.00    +0.060 S 
ATOM     17  O   UNL     1      -2.843  -6.543   6.921  0.00  0.00    -0.153 OA
ATOM     18  O   UNL     1      -1.939  -4.396   6.039  0.00  0.00    -0.153 OA
BRANCH  16  19
ATOM     19  N   UNL     1      -3.298  -5.864   4.589  0.00  0.00    -0.183 NA
ATOM     20  C   UNL     1      -4.217  -6.999   4.468  0.00  0.00    +0.131 C 
ATOM     21  C   UNL     1      -3.295  -4.812   3.570  0.00  0.00    +0.131 C 
ENDBRANCH  16  19
ENDBRANCH   4  16
BRANCH   1  22
ATOM     22  C   UNL     1       2.441  -4.347   3.838  0.00  0.00    +0.209 C 
BRANCH  22  24
ATOM     23  N   UNL     1       1.580  -2.524   2.405  0.00  0.00    -0.314 N 
ATOM     24  C   UNL     1       1.719  -3.848   2.613  0.00  0.00    +0.231 C 
ATOM     25  O   UNL     1       1.263  -4.639   1.815  0.00  0.00    -0.274 OA
ATOM     26  H   UNL     1       1.945  -1.892   3.044  0.00  0.00    +0.149 HD
BRANCH  23  27
ATOM     27  C   UNL     1       0.878  -2.039   1.214  0.00  0.00    +0.102 C 
BRANCH  27  28
ATOM     28  C   UNL     1       0.861  -0.509   1.220  0.00  0.00    +0.003 C 
BRANCH  28  30
ATOM     29  C   UNL     1       0.668  -0.386  -1.268  0.00  0.00    -0.013 C 
ATOM     30  C   UNL     1       0.005  -0.005   0.056  0.00  0.00    -0.070 C 
BRANCH  30  31
ATOM     31  N   UNL     1      -0.120   1.456   0.138  0.00  0.00    +0.381 N 
ATOM     32  C   UNL     1      -1.024   1.954  -0.931  0.00  0.00    -0.079 C 
ATOM     33  C   UNL     1      -1.490   3.329  -0.389  0.00  0.00    -0.020 C 
ATOM     34  C   UNL     1      -1.642   3.069   1.127  0.00  0.00    -0.020 C 
ATOM     35  C   UNL     1      -0.757   1.843   1.416  0.00  0.00    -0.079 C 
ATOM     36  H   UNL     1       0.787   1.889   0.057  0.00  0.00    -0.081 HD
ENDBRANCH  30  31
ENDBRANCH  28  30
ENDBRANCH  27  28
ENDBRANCH  23  27
ENDBRANCH  22  24
ENDBRANCH   1  22
TORSDOF 8
