REMARK  Name = ZINC05977550
REMARK  9 active torsions:
REMARK  status: ('A' for Active; 'I' for Inactive)
REMARK    1  A    between atoms: C_1  and  C_2
REMARK    2  A    between atoms: C_5  and  C_22
REMARK    3  A    between atoms: C_6  and  C_7
REMARK    4  A    between atoms: C_6  and  C_8
REMARK    5  A    between atoms: N_24  and  N_25
REMARK    6  A    between atoms: N_25  and  C_26
REMARK    7  A    between atoms: C_26  and  C_27
REMARK    8  A    between atoms: C_26  and  C_28
REMARK    9  A    between atoms: C_26  and  C_29
REMARK                            x       y       z     vdW  Elec       q    Type
REMARK                         _______ _______ _______ _____ _____    ______ ____
ROOT
ATOM      1  C   UNL     1      -0.019   1.526   0.010  0.00  0.00    +0.018 C 
ATOM      2  C   UNL     1       0.002  -0.004   0.002  0.00  0.00    +0.018 C 
ATOM      3  C   UNL     1      -1.388  -0.713   0.060  0.00  0.00    +0.015 C 
ATOM      4  C   UNL     1      -1.055  -2.158   0.500  0.00  0.00    +0.024 C 
ATOM      5  C   UNL     1       0.498  -2.159   0.659  0.00  0.00    +0.098 C 
ATOM      6  C   UNL     1       0.727  -0.704   1.210  0.00  0.00    -0.005 C 
ATOM      7  C   UNL     1      -0.005  -0.481   2.535  0.00  0.00    +0.013 C 
ATOM      8  C   UNL     1       2.205  -0.323   1.301  0.00  0.00    +0.013 C 
ATOM      9  C   UNL     1       1.024  -1.990  -0.768  0.00  0.00    +0.079 A 
ATOM     10  C   UNL     1       0.736  -0.664  -1.168  0.00  0.00    +0.071 A 
ATOM     11  N   UNL     1       1.070  -0.222  -2.353  0.00  0.00    -0.248 NA
ATOM     12  C   UNL     1       1.723  -1.028  -3.198  0.00  0.00    +0.093 A 
ATOM     13  C   UNL     1       2.092  -0.585  -4.479  0.00  0.00    +0.079 A 
ATOM     14  C   UNL     1       2.764  -1.423  -5.322  0.00  0.00    +0.168 A 
ATOM     15  C   UNL     1       3.092  -2.731  -4.922  0.00  0.00    +0.168 A 
ATOM     16  C   UNL     1       2.741  -3.190  -3.686  0.00  0.00    +0.079 A 
ATOM     17  C   UNL     1       2.047  -2.350  -2.798  0.00  0.00    +0.093 A 
ATOM     18  N   UNL     1       1.649  -2.809  -1.574  0.00  0.00    -0.247 NA
ATOM     19  O   UNL     1       3.759  -3.339  -5.946  0.00  0.00    -0.453 OA
ATOM     20  C   UNL     1       3.472  -2.550  -7.115  0.00  0.00    +0.466 C 
ATOM     21  O   UNL     1       3.225  -1.232  -6.593  0.00  0.00    -0.453 OA
ENDROOT
BRANCH   5  22
ATOM     22  C   UNL     1       1.083  -3.286   1.471  0.00  0.00    +0.239 C 
ATOM     23  O   UNL     1       1.708  -3.044   2.482  0.00  0.00    -0.273 OA
ATOM     24  N   UNL     1       0.912  -4.562   1.074  0.00  0.00    -0.250 N 
ATOM     25  H   UNL     1       0.412  -4.756   0.265  0.00  0.00    +0.169 HD
BRANCH  24  26
ATOM     26  N   UNL     1       1.443  -5.584   1.810  0.00  0.00    -0.235 NA
ATOM     27  H   UNL     1       2.437  -5.464   1.930  0.00  0.00    +0.145 HD
BRANCH  26  28
ATOM     28  C   UNL     1       1.138  -6.885   1.200  0.00  0.00    +0.028 C 
ATOM     29  C   UNL     1       1.729  -6.938  -0.210  0.00  0.00    +0.029 C 
ATOM     30  C   UNL     1       1.747  -8.002   2.050  0.00  0.00    +0.029 C 
ATOM     31  C   UNL     1      -0.378  -7.071   1.125  0.00  0.00    +0.029 C 
ENDBRANCH  26  28
ENDBRANCH  24  26
ENDBRANCH   5  22
TORSDOF 3
