REMARK  Name = ZINC36126090
REMARK  7 active torsions:
REMARK  status: ('A' for Active; 'I' for Inactive)
REMARK    1  A    between atoms: C_1  and  C_2
REMARK    2  A    between atoms: N_10  and  C_11
REMARK    3  A    between atoms: C_11  and  C_12
REMARK    4  A    between atoms: C_12  and  C_13
REMARK    5  A    between atoms: C_13  and  N_14
REMARK    6  A    between atoms: N_14  and  S_15
REMARK    7  A    between atoms: S_15  and  C_18
REMARK                            x       y       z     vdW  Elec       q    Type
REMARK                         _______ _______ _______ _____ _____    ______ ____
ROOT
ATOM      1  N   UNL     1      -2.780   0.432   4.930  0.00  0.00    -0.190 NA
ATOM      2  H   UNL     1      -3.514   0.438   4.296  0.00  0.00    +0.148 HD
ENDROOT
BRANCH   1   3
ATOM      3  S   UNL     1      -3.085   0.575   6.551  0.00  0.00    +0.059 S 
ATOM      4  O   UNL     1      -4.492   0.714   6.689  0.00  0.00    -0.153 OA
ATOM      5  O   UNL     1      -2.355  -0.461   7.194  0.00  0.00    -0.153 OA
BRANCH   3   6
ATOM      6  C   UNL     1      -2.374   2.096   7.083  0.00  0.00    +0.109 A 
ATOM      7  C   UNL     1      -1.062   2.124   7.530  0.00  0.00    +0.031 A 
ATOM      8  C   UNL     1      -0.492   3.307   7.948  0.00  0.00    +0.033 A 
ATOM      9  C   UNL     1      -1.243   4.483   7.922  0.00  0.00    +0.113 A 
ATOM     10  C   UNL     1      -2.570   4.451   7.469  0.00  0.00    +0.161 A 
ATOM     11  C   UNL     1      -3.125   3.253   7.047  0.00  0.00    +0.077 A 
ATOM     12  O   UNL     1      -3.033   5.718   7.557  0.00  0.00    -0.406 OA
ATOM     13  C   UNL     1      -2.046   6.494   8.038  0.00  0.00    +0.441 A 
ATOM     14  N   UNL     1      -0.978   5.775   8.259  0.00  0.00    -0.172 NA
ATOM     15  O   UNL     1      -2.145   7.823   8.259  0.00  0.00    -0.221 OA
ENDBRANCH   3   6
ENDBRANCH   1   3
BRANCH   1  16
ATOM     16  C   UNL     1      -1.401   0.297   4.453  0.00  0.00    +0.107 C 
BRANCH  16  17
ATOM     17  C   UNL     1      -1.409  -0.186   3.001  0.00  0.00    +0.038 C 
BRANCH  17  18
ATOM     18  C   UNL     1       0.031  -0.327   2.503  0.00  0.00    +0.125 C 
BRANCH  18  28
ATOM     19  C   UNL     1      -0.018   1.503   0.010  0.00  0.00    +0.086 C 
ATOM     20  C   UNL     1       0.002  -0.004   0.002  0.00  0.00    +0.108 A 
ATOM     21  N   UNL     1       0.008  -0.744  -1.069  0.00  0.00    -0.233 NA
ATOM     22  C   UNL     1       0.027  -2.055  -0.717  0.00  0.00    +0.089 A 
ATOM     23  C   UNL     1       0.040  -3.248  -1.446  0.00  0.00    +0.030 A 
ATOM     24  C   UNL     1       0.058  -4.446  -0.789  0.00  0.00    +0.002 A 
ATOM     25  C   UNL     1       0.064  -4.493   0.598  0.00  0.00    +0.002 A 
ATOM     26  C   UNL     1       0.052  -3.329   1.337  0.00  0.00    +0.028 A 
ATOM     27  C   UNL     1       0.033  -2.103   0.687  0.00  0.00    +0.069 A 
ATOM     28  N   UNL     1       0.023  -0.789   1.113  0.00  0.00    -0.328 N 
ENDBRANCH  18  28
ENDBRANCH  17  18
ENDBRANCH  16  17
ENDBRANCH   1  16
TORSDOF 6
