REMARK  Name = ZINC63384931
REMARK  11 active torsions:
REMARK  status: ('A' for Active; 'I' for Inactive)
REMARK    1  A    between atoms: C_1  and  C_2
REMARK    2  A    between atoms: C_3  and  C_32
REMARK    3  A    between atoms: C_11  and  O_14
REMARK    4  A    between atoms: C_12  and  C_13
REMARK    5  A    between atoms: O_14  and  C_15
REMARK    6  A    between atoms: C_15  and  C_16
REMARK    7  A    between atoms: N_18  and  C_19
REMARK    8  A    between atoms: C_19  and  C_20
REMARK    9  A    between atoms: C_20  and  C_21
REMARK   10  A    between atoms: C_24  and  O_30
REMARK   11  A    between atoms: O_30  and  C_31
REMARK                            x       y       z     vdW  Elec       q    Type
REMARK                         _______ _______ _______ _____ _____    ______ ____
ROOT
ATOM      1  C   UNL     1       0.111  -3.159   7.139  0.00  0.00    +0.251 C 
ATOM      2  O   UNL     1       0.126  -4.356   6.944  0.00  0.00    -0.272 OA
ATOM      3  N   UNL     1       0.116  -2.681   8.399  0.00  0.00    -0.312 N 
ATOM      4  H   UNL     1       0.104  -1.724   8.555  0.00  0.00    +0.149 HD
ENDROOT
BRANCH   1   5
ATOM      5  C   UNL     1       0.087  -2.206   5.972  0.00  0.00    +0.324 C 
BRANCH   5   6
ATOM      6  O   UNL     1       0.086  -2.948   4.751  0.00  0.00    -0.482 OA
BRANCH   6  17
ATOM      7  C   UNL     1      -0.018   1.503   0.010  0.00  0.00    +0.045 C 
ATOM      8  C   UNL     1       0.002  -0.004   0.002  0.00  0.00    -0.030 A 
ATOM      9  C   UNL     1       0.006  -0.695  -1.167  0.00  0.00    +0.037 A 
ATOM     10  C   UNL     1       0.026  -2.105  -1.149  0.00  0.00    +0.340 A 
ATOM     11  O   UNL     1       0.030  -2.712  -2.204  0.00  0.00    -0.245 OA
ATOM     12  O   UNL     1       0.041  -2.795   0.003  0.00  0.00    -0.422 OA
ATOM     13  C   UNL     1       0.038  -2.169   1.199  0.00  0.00    +0.146 A 
ATOM     14  C   UNL     1       0.024  -0.763   1.254  0.00  0.00    +0.021 A 
ATOM     15  C   UNL     1       0.026  -0.111   2.492  0.00  0.00    +0.015 A 
ATOM     16  C   UNL     1       0.046  -0.842   3.644  0.00  0.00    +0.047 A 
ATOM     17  C   UNL     1       0.066  -2.234   3.596  0.00  0.00    +0.128 A 
ATOM     18  C   UNL     1       0.053  -2.897   2.379  0.00  0.00    +0.034 A 
ATOM     19  C   UNL     1       0.074  -4.403   2.338  0.00  0.00    +0.051 C 
ATOM     20  C   UNL     1      -0.011   0.043  -2.481  0.00  0.00    +0.051 C 
ENDBRANCH   6  17
ENDBRANCH   5   6
ENDBRANCH   1   5
BRANCH   3  21
ATOM     21  C   UNL     1       0.140  -3.608   9.534  0.00  0.00    +0.108 C 
BRANCH  21  22
ATOM     22  C   UNL     1       0.141  -2.813  10.841  0.00  0.00    +0.052 C 
BRANCH  22  23
ATOM     23  C   UNL     1       0.165  -3.766  12.008  0.00  0.00    -0.040 C 
ATOM     24  C   UNL     1       1.253  -4.188  12.691  0.00  0.00    +0.002 A 
ATOM     25  C   UNL     1       2.685  -3.900  12.558  0.00  0.00    +0.055 A 
ATOM     26  C   UNL     1       3.565  -4.484  13.406  0.00  0.00    +0.121 A 
ATOM     27  C   UNL     1       3.156  -5.367  14.420  0.00  0.00    +0.047 A 
ATOM     28  C   UNL     1       1.862  -5.695  14.621  0.00  0.00    +0.029 A 
ATOM     29  C   UNL     1       0.824  -5.119  13.760  0.00  0.00    +0.043 A 
ATOM     30  N   UNL     1      -0.478  -5.266  13.739  0.00  0.00    -0.380 N 
ATOM     31  C   UNL     1      -1.024  -4.439  12.657  0.00  0.00    +0.144 C 
ATOM     32  H   UNL     1      -0.994  -5.824  14.341  0.00  0.00    +0.160 HD
BRANCH  26  33
ATOM     33  O   UNL     1       4.889  -4.208  13.270  0.00  0.00    -0.495 OA
ATOM     34  C   UNL     1       5.782  -4.846  14.186  0.00  0.00    +0.277 C 
ENDBRANCH  26  33
ENDBRANCH  22  23
ENDBRANCH  21  22
ENDBRANCH   3  21
TORSDOF 7
