REMARK  Name = ZINC57328972
REMARK  10 active torsions:
REMARK  status: ('A' for Active; 'I' for Inactive)
REMARK    1  A    between atoms: C_1  and  C_2
REMARK    2  A    between atoms: C_2  and  C_3
REMARK    3  A    between atoms: C_3  and  C_4
REMARK    4  A    between atoms: C_4  and  O_5
REMARK    5  A    between atoms: O_5  and  C_6
REMARK    6  A    between atoms: C_9  and  C_12
REMARK    7  A    between atoms: N_14  and  C_15
REMARK    8  A    between atoms: C_15  and  C_16
REMARK    9  A    between atoms: C_16  and  N_17
REMARK   10  A    between atoms: C_21  and  C_22
REMARK                            x       y       z     vdW  Elec       q    Type
REMARK                         _______ _______ _______ _____ _____    ______ ____
ROOT
ATOM      1  C   UNL     1       3.695 -10.263  -6.394  0.00  0.00    +0.136 C 
ENDROOT
BRANCH   1   2
ATOM      2  N   UNL     1       3.652 -11.721  -6.258  0.00  0.00    -0.227 N 
ATOM      3  C   UNL     1       4.697 -12.353  -5.751  0.00  0.00    +0.260 C 
ATOM      4  O   UNL     1       5.695 -11.755  -5.394  0.00  0.00    -0.269 OA
ATOM      5  C   UNL     1       4.591 -13.822  -5.639  0.00  0.00    +0.080 C 
ATOM      6  C   UNL     1       5.491 -14.720  -5.164  0.00  0.00    +0.028 C 
ATOM      7  S   UNL     1       2.953 -14.091  -6.301  0.00  0.00    -0.026 S 
ATOM      8  C   UNL     1       2.546 -12.387  -6.647  0.00  0.00    +0.286 C 
ATOM      9  O   UNL     1       1.520 -11.937  -7.122  0.00  0.00    -0.262 OA
BRANCH   6  10
ATOM     10  C   UNL     1       6.720 -14.253  -4.510  0.00  0.00    -0.020 A 
ATOM     11  C   UNL     1       6.681 -13.149  -3.649  0.00  0.00    +0.012 A 
ATOM     12  C   UNL     1       7.835 -12.714  -3.036  0.00  0.00    +0.050 A 
ATOM     13  C   UNL     1       9.039 -13.366  -3.268  0.00  0.00    +0.166 A 
ATOM     14  C   UNL     1       9.086 -14.467  -4.125  0.00  0.00    +0.167 A 
ATOM     15  C   UNL     1       7.933 -14.913  -4.739  0.00  0.00    +0.057 A 
ATOM     16  O   UNL     1      10.373 -14.920  -4.181  0.00  0.00    -0.453 OA
ATOM     17  C   UNL     1      11.182 -13.841  -3.676  0.00  0.00    +0.466 C 
ATOM     18  O   UNL     1      10.296 -13.133  -2.790  0.00  0.00    -0.453 OA
ENDBRANCH   6  10
ENDBRANCH   1   2
BRANCH   1  19
ATOM     19  C   UNL     1       3.158  -9.615  -5.117  0.00  0.00    +0.124 C 
BRANCH  19  22
ATOM     20  C   UNL     1       2.774  -7.373  -4.243  0.00  0.00    +0.244 C 
ATOM     21  O   UNL     1       2.353  -7.876  -3.219  0.00  0.00    -0.270 OA
ATOM     22  N   UNL     1       3.200  -8.157  -5.253  0.00  0.00    -0.310 N 
ATOM     23  H   UNL     1       3.536  -7.756  -6.070  0.00  0.00    +0.149 HD
BRANCH  20  27
ATOM     24  C   UNL     1       2.899  -3.147  -4.638  0.00  0.00    +0.121 A 
ATOM     25  C   UNL     1       2.417  -3.719  -3.467  0.00  0.00    +0.046 A 
ATOM     26  C   UNL     1       2.375  -5.089  -3.335  0.00  0.00    +0.016 A 
ATOM     27  C   UNL     1       2.817  -5.904  -4.381  0.00  0.00    +0.037 A 
ATOM     28  C   UNL     1       3.300  -5.324  -5.557  0.00  0.00    +0.016 A 
ATOM     29  C   UNL     1       3.334  -3.954  -5.683  0.00  0.00    +0.046 A 
BRANCH  24  30
ATOM     30  O   UNL     1       2.938  -1.796  -4.765  0.00  0.00    -0.492 OA
BRANCH  30  31
ATOM     31  C   UNL     1       2.476  -1.026  -3.653  0.00  0.00    +0.229 C 
BRANCH  31  32
ATOM     32  C   UNL     1       2.596   0.464  -3.979  0.00  0.00    +0.041 C 
BRANCH  32  34
ATOM     33  C   UNL     1       2.221   2.777  -3.114  0.00  0.00    +0.004 C 
ATOM     34  C   UNL     1       2.101   1.288  -2.788  0.00  0.00    -0.000 C 
ENDBRANCH  32  34
ENDBRANCH  31  32
ENDBRANCH  30  31
ENDBRANCH  24  30
ENDBRANCH  20  27
ENDBRANCH  19  22
ENDBRANCH   1  19
TORSDOF 9
