REMARK  Name = ZINC38990305
REMARK  9 active torsions:
REMARK  status: ('A' for Active; 'I' for Inactive)
REMARK    1  A    between atoms: C_1  and  C_2
REMARK    2  A    between atoms: C_4  and  C_8
REMARK    3  A    between atoms: C_12  and  S_16
REMARK    4  A    between atoms: N_14  and  N_15
REMARK    5  A    between atoms: S_16  and  C_17
REMARK    6  A    between atoms: C_17  and  C_18
REMARK    7  A    between atoms: N_20  and  C_21
REMARK    8  A    between atoms: C_24  and  S_27
REMARK    9  A    between atoms: S_27  and  N_30
REMARK                            x       y       z     vdW  Elec       q    Type
REMARK                         _______ _______ _______ _____ _____    ______ ____
ROOT
ATOM      1  S   UNL     1      -0.921  -6.048   3.256  0.00  0.00    -0.115 S 
ENDROOT
BRANCH   1   5
ATOM      2  C   UNL     1      -0.936  -2.955   1.239  0.00  0.00    +0.185 C 
ATOM      3  N   UNL     1      -2.416  -3.095   1.268  0.00  0.00    -0.234 NA
ATOM      4  N   UNL     1      -2.622  -4.269   2.131  0.00  0.00    -0.228 NA
ATOM      5  C   UNL     1      -1.517  -5.188   1.774  0.00  0.00    +0.214 C 
ATOM      6  N   UNL     1      -0.437  -4.350   1.208  0.00  0.00    -0.197 NA
ATOM      7  H   UNL     1      -2.849  -2.274   1.665  0.00  0.00    +0.143 HD
ATOM      8  H   UNL     1      -2.579  -4.013   3.106  0.00  0.00    +0.143 HD
BRANCH   2  12
ATOM      9  C   UNL     1       0.041   1.489  -0.007  0.00  0.00    +0.067 C 
ATOM     10  C   UNL     1       0.052  -0.018  -0.011  0.00  0.00    +0.058 C 
ATOM     11  C   UNL     1      -1.041  -0.784  -0.012  0.00  0.00    +0.029 C 
ATOM     12  C   UNL     1      -0.495  -2.201  -0.017  0.00  0.00    +0.186 C 
ATOM     13  N   UNL     1       0.963  -1.993  -0.018  0.00  0.00    -0.177 NA
ATOM     14  N   UNL     1       1.170  -0.777  -0.021  0.00  0.00    -0.159 NA
ENDBRANCH   2  12
BRANCH   6  15
ATOM     15  N   UNL     1       0.788  -4.482   1.979  0.00  0.00    -0.264 NA
ATOM     16  H   UNL     1       1.128  -5.431   1.958  0.00  0.00    +0.137 HD
ATOM     17  H   UNL     1       1.493  -3.838   1.651  0.00  0.00    +0.137 HD
ENDBRANCH   6  15
ENDBRANCH   1   5
BRANCH   1  18
ATOM     18  C   UNL     1      -0.404  -4.707   4.364  0.00  0.00    +0.168 C 
BRANCH  18  19
ATOM     19  C   UNL     1       0.119  -5.292   5.650  0.00  0.00    +0.227 C 
ATOM     20  O   UNL     1       0.141  -6.495   5.805  0.00  0.00    -0.275 OA
ATOM     21  N   UNL     1       0.563  -4.478   6.629  0.00  0.00    -0.285 N 
ATOM     22  H   UNL     1       0.609  -3.521   6.480  0.00  0.00    +0.155 HD
BRANCH  21  23
ATOM     23  C   UNL     1       0.958  -5.015   7.859  0.00  0.00    +0.034 A 
ATOM     24  C   UNL     1       0.717  -4.313   9.034  0.00  0.00    +0.025 A 
ATOM     25  C   UNL     1       1.109  -4.846  10.246  0.00  0.00    +0.030 A 
ATOM     26  C   UNL     1       1.739  -6.075  10.292  0.00  0.00    +0.105 A 
ATOM     27  C   UNL     1       1.980  -6.776   9.125  0.00  0.00    +0.030 A 
ATOM     28  C   UNL     1       1.586  -6.252   7.909  0.00  0.00    +0.025 A 
BRANCH  26  29
ATOM     29  S   UNL     1       2.236  -6.751  11.842  0.00  0.00    +0.056 S 
ATOM     30  O   UNL     1       3.293  -7.661  11.568  0.00  0.00    -0.153 OA
ATOM     31  O   UNL     1       2.387  -5.655  12.733  0.00  0.00    -0.153 OA
BRANCH  29  32
ATOM     32  N   UNL     1       0.970  -7.654  12.412  0.00  0.00    -0.204 NA
ATOM     33  H   UNL     1       0.152  -7.722  11.895  0.00  0.00    +0.144 HD
ATOM     34  H   UNL     1       1.046  -8.113  13.262  0.00  0.00    +0.144 HD
ENDBRANCH  29  32
ENDBRANCH  26  29
ENDBRANCH  21  23
ENDBRANCH  18  19
ENDBRANCH   1  18
TORSDOF 8
