REMARK  Name = ZINC50170254
REMARK  7 active torsions:
REMARK  status: ('A' for Active; 'I' for Inactive)
REMARK    1  A    between atoms: C_1  and  C_2
REMARK    2  A    between atoms: C_2  and  C_3
REMARK    3  A    between atoms: C_3  and  C_4
REMARK    4  A    between atoms: C_10  and  C_13
REMARK    5  A    between atoms: N_15  and  N_16
REMARK    6  A    between atoms: C_17  and  C_19
REMARK    7  A    between atoms: C_28  and  O_29
REMARK                            x       y       z     vdW  Elec       q    Type
REMARK                         _______ _______ _______ _____ _____    ______ ____
ROOT
ATOM      1  N   UNL     1       0.700  -8.217   4.810  0.00  0.00    -0.230 N 
ATOM      2  C   UNL     1       0.275  -8.882   5.902  0.00  0.00    +0.264 C 
ATOM      3  O   UNL     1      -0.228  -8.273   6.827  0.00  0.00    -0.269 OA
ATOM      4  H   UNL     1       1.101  -8.702   4.072  0.00  0.00    +0.173 HD
ENDROOT
BRANCH   2   5
ATOM      5  C   UNL     1       0.420 -10.349   5.976  0.00  0.00    +0.080 A 
ATOM      6  C   UNL     1       0.999 -11.037   4.922  0.00  0.00    +0.025 A 
ATOM      7  C   UNL     1       1.135 -12.430   4.998  0.00  0.00    -0.017 A 
ATOM      8  C   UNL     1       1.718 -13.161   3.946  0.00  0.00    +0.008 A 
ATOM      9  C   UNL     1       1.836 -14.512   4.050  0.00  0.00    +0.001 A 
ATOM     10  C   UNL     1       1.386 -15.187   5.184  0.00  0.00    +0.001 A 
ATOM     11  C   UNL     1       0.817 -14.515   6.221  0.00  0.00    +0.008 A 
ATOM     12  C   UNL     1       0.677 -13.117   6.152  0.00  0.00    -0.014 A 
ATOM     13  C   UNL     1       0.094 -12.396   7.207  0.00  0.00    +0.054 A 
ATOM     14  C   UNL     1      -0.025 -11.040   7.122  0.00  0.00    +0.130 A 
BRANCH  14  15
ATOM     15  O   UNL     1      -0.585 -10.350   8.148  0.00  0.00    -0.506 OA
ATOM     16  H   UNL     1      -1.544 -10.247   8.076  0.00  0.00    +0.292 HD
ENDBRANCH  14  15
ENDBRANCH   2   5
BRANCH   1  19
ATOM     17  C   UNL     1       0.987  -6.159   3.647  0.00  0.00    +0.234 C 
ATOM     18  O   UNL     1       1.488  -6.766   2.724  0.00  0.00    -0.274 OA
ATOM     19  N   UNL     1       0.562  -6.824   4.739  0.00  0.00    -0.234 N 
ATOM     20  H   UNL     1       0.161  -6.339   5.477  0.00  0.00    +0.173 HD
BRANCH  17  27
ATOM     21  C   UNL     1       0.762  -2.018   1.233  0.00  0.00    +0.216 C 
ATOM     22  O   UNL     1       0.237  -2.626   0.325  0.00  0.00    -0.276 OA
ATOM     23  N   UNL     1       1.365  -2.689   2.235  0.00  0.00    -0.301 N 
ATOM     24  C   UNL     1       2.001  -1.966   3.345  0.00  0.00    +0.108 C 
ATOM     25  C   UNL     1       1.434  -2.494   4.666  0.00  0.00    +0.020 C 
ATOM     26  C   UNL     1       1.611  -4.013   4.722  0.00  0.00    +0.016 C 
ATOM     27  C   UNL     1       0.838  -4.661   3.571  0.00  0.00    +0.094 C 
ATOM     28  C   UNL     1       1.393  -4.158   2.241  0.00  0.00    +0.120 C 
BRANCH  21  29
ATOM     29  C   UNL     1       0.742  -0.511   1.242  0.00  0.00    +0.096 C 
BRANCH  29  31
ATOM     30  C   UNL     1      -0.019   1.526   0.010  0.00  0.00    +0.004 C 
ATOM     31  C   UNL     1       0.002  -0.004   0.002  0.00  0.00    +0.006 C 
ENDBRANCH  29  31
ENDBRANCH  21  29
ENDBRANCH  17  27
ENDBRANCH   1  19
TORSDOF 6
