REMARK  Name = ZINC17118674
REMARK  10 active torsions:
REMARK  status: ('A' for Active; 'I' for Inactive)
REMARK    1  A    between atoms: C_1  and  C_2
REMARK    2  A    between atoms: C_2  and  C_3
REMARK    3  A    between atoms: C_2  and  C_4
REMARK    4  A    between atoms: C_2  and  C_5
REMARK    5  A    between atoms: C_8  and  C_11
REMARK    6  A    between atoms: C_14  and  C_16
REMARK    7  A    between atoms: N_18  and  N_19
REMARK    8  A    between atoms: C_20  and  C_21
REMARK    9  A    between atoms: C_22  and  C_23
REMARK   10  A    between atoms: C_28  and  N_29
REMARK                            x       y       z     vdW  Elec       q    Type
REMARK                         _______ _______ _______ _____ _____    ______ ____
ROOT
ATOM      1  C   UNL     1      -2.236   3.698   1.278  0.00  0.00    +0.236 C 
ATOM      2  O   UNL     1      -3.280   3.081   1.319  0.00  0.00    -0.274 OA
ATOM      3  N   UNL     1      -1.087   3.059   0.982  0.00  0.00    -0.207 N 
ATOM      4  H   UNL     1      -0.252   3.552   0.949  0.00  0.00    +0.177 HD
ENDROOT
BRANCH   1   7
ATOM      5  C   UNL     1      -3.561   5.845   1.891  0.00  0.00    +0.032 C 
ATOM      6  C   UNL     1      -2.895   6.097   0.536  0.00  0.00    +0.022 C 
ATOM      7  C   UNL     1      -2.224   5.178   1.560  0.00  0.00    +0.085 C 
BRANCH   5  11
ATOM      8  C   UNL     1      -3.524   9.035   4.731  0.00  0.00    -0.042 A 
ATOM      9  C   UNL     1      -4.272   7.899   4.978  0.00  0.00    +0.004 A 
ATOM     10  C   UNL     1      -4.284   6.867   4.058  0.00  0.00    +0.004 A 
ATOM     11  C   UNL     1      -3.548   6.970   2.893  0.00  0.00    -0.044 A 
ATOM     12  C   UNL     1      -2.796   8.104   2.649  0.00  0.00    +0.004 A 
ATOM     13  C   UNL     1      -2.788   9.139   3.566  0.00  0.00    +0.004 A 
BRANCH   8  15
ATOM     14  C   UNL     1      -2.974   9.647   7.070  0.00  0.00    +0.015 C 
ATOM     15  C   UNL     1      -3.511  10.161   5.733  0.00  0.00    -0.013 C 
ATOM     16  C   UNL     1      -2.613  11.289   5.221  0.00  0.00    +0.015 C 
ATOM     17  C   UNL     1      -4.934  10.689   5.924  0.00  0.00    +0.015 C 
ENDBRANCH   8  15
ENDBRANCH   5  11
ENDBRANCH   1   7
BRANCH   3  18
ATOM     18  N   UNL     1      -1.098   1.683   0.720  0.00  0.00    -0.188 NA
ATOM     19  C   UNL     1       0.013   1.066   0.433  0.00  0.00    +0.130 C 
BRANCH  19  20
ATOM     20  C   UNL     1       1.232   1.788   0.380  0.00  0.00    +0.022 C 
ATOM     21  C   UNL     1       2.381   1.150   0.078  0.00  0.00    +0.012 C 
BRANCH  21  22
ATOM     22  C   UNL     1       3.647   1.900   0.022  0.00  0.00    +0.005 A 
ATOM     23  C   UNL     1       3.633   3.295  -0.076  0.00  0.00    +0.010 A 
ATOM     24  C   UNL     1       4.823   3.990  -0.127  0.00  0.00    +0.001 A 
ATOM     25  C   UNL     1       6.028   3.311  -0.081  0.00  0.00    +0.002 A 
ATOM     26  C   UNL     1       6.049   1.931   0.017  0.00  0.00    +0.033 A 
ATOM     27  C   UNL     1       4.868   1.221   0.073  0.00  0.00    +0.133 A 
BRANCH  27  28
ATOM     28  N   UNL     1       4.893  -0.255   0.183  0.00  0.00    +0.057 N 
ATOM     29  O   UNL     1       5.950  -0.835   0.358  0.00  0.00    -0.126 OA
ATOM     30  O   UNL     1       3.857  -0.890   0.098  0.00  0.00    -0.126 OA
ENDBRANCH  27  28
ENDBRANCH  21  22
ENDBRANCH  19  20
ENDBRANCH   3  18
TORSDOF 7
