REMARK  Name = ZINC59792477
REMARK  6 active torsions:
REMARK  status: ('A' for Active; 'I' for Inactive)
REMARK    1  A    between atoms: C_3  and  N_26
REMARK    2  A    between atoms: C_6  and  C_7
REMARK    3  A    between atoms: C_10  and  S_13
REMARK    4  A    between atoms: S_13  and  C_14
REMARK    5  A    between atoms: C_14  and  C_15
REMARK    6  A    between atoms: N_17  and  C_18
REMARK                            x       y       z     vdW  Elec       q    Type
REMARK                         _______ _______ _______ _____ _____    ______ ____
ROOT
ATOM      1  C   UNL     1      -1.275  -0.766  -0.046  0.00  0.00    +0.182 A 
ATOM      2  N   UNL     1      -1.383  -2.103  -0.041  0.00  0.00    -0.201 NA
ATOM      3  H   UNL     1      -4.358  -1.248  -0.011  0.00  0.00    +0.191 HD
ATOM      4  C   UNL     1      -2.653  -2.443  -0.026  0.00  0.00    +0.185 A 
ATOM      5  N   UNL     1      -3.390  -1.310  -0.021  0.00  0.00    -0.253 N 
ATOM      6  N   UNL     1      -2.479  -0.242  -0.029  0.00  0.00    -0.152 NA
ENDROOT
BRANCH   1  12
ATOM      7  C   UNL     1      -0.022   1.390  -0.066  0.00  0.00    +0.014 A 
ATOM      8  C   UNL     1       1.165   2.094  -0.080  0.00  0.00    +0.033 A 
ATOM      9  C   UNL     1       2.373   1.419  -0.091  0.00  0.00    +0.126 A 
ATOM     10  C   UNL     1       2.398   0.036  -0.087  0.00  0.00    +0.033 A 
ATOM     11  C   UNL     1       1.217  -0.678  -0.073  0.00  0.00    +0.014 A 
ATOM     12  C   UNL     1      -0.002  -0.003  -0.062  0.00  0.00    +0.021 A 
BRANCH   9  13
ATOM     13  N   UNL     1       3.642   2.180  -0.107  0.00  0.00    +0.056 N 
ATOM     14  O   UNL     1       3.623   3.389  -0.111  0.00  0.00    -0.126 OA
ATOM     15  O   UNL     1       4.699   1.593  -0.117  0.00  0.00    -0.126 OA
ENDBRANCH   9  13
ENDBRANCH   1  12
BRANCH   4  16
ATOM     16  S   UNL     1      -3.283  -4.089  -0.015  0.00  0.00    -0.077 S 
BRANCH  16  17
ATOM     17  C   UNL     1      -1.797  -5.128  -0.028  0.00  0.00    +0.173 C 
BRANCH  17  18
ATOM     18  C   UNL     1      -2.200  -6.580  -0.019  0.00  0.00    +0.228 C 
ATOM     19  O   UNL     1      -3.374  -6.884  -0.006  0.00  0.00    -0.275 OA
ATOM     20  N   UNL     1      -1.255  -7.542  -0.027  0.00  0.00    -0.283 N 
ATOM     21  H   UNL     1      -0.318  -7.301  -0.103  0.00  0.00    +0.155 HD
BRANCH  20  22
ATOM     22  C   UNL     1      -1.625  -8.889   0.075  0.00  0.00    +0.069 A 
ATOM     23  C   UNL     1      -2.805  -9.332  -0.507  0.00  0.00    +0.029 A 
ATOM     24  C   UNL     1      -3.169 -10.660  -0.405  0.00  0.00    +0.040 A 
ATOM     25  C   UNL     1      -2.358 -11.552   0.277  0.00  0.00    +0.126 A 
ATOM     26  C   UNL     1      -1.181 -11.115   0.859  0.00  0.00    +0.078 A 
ATOM     27  C   UNL     1      -0.809  -9.787   0.754  0.00  0.00    +0.147 A 
ATOM     28  F   UNL     1       0.343  -9.361   1.317  0.00  0.00    -0.203 F 
ATOM     29  F   UNL     1      -2.717 -12.851   0.374  0.00  0.00    -0.205 F 
ENDBRANCH  20  22
ENDBRANCH  17  18
ENDBRANCH  16  17
ENDBRANCH   4  16
TORSDOF 6
