REMARK  Name = ZINC20885026
REMARK  9 active torsions:
REMARK  status: ('A' for Active; 'I' for Inactive)
REMARK    1  A    between atoms: C_1  and  C_2
REMARK    2  A    between atoms: C_2  and  O_3
REMARK    3  A    between atoms: O_3  and  C_4
REMARK    4  A    between atoms: C_7  and  C_10
REMARK    5  A    between atoms: C_15  and  C_25
REMARK    6  A    between atoms: C_29  and  O_33
REMARK    7  A    between atoms: C_30  and  O_31
REMARK    8  A    between atoms: O_31  and  C_32
REMARK    9  A    between atoms: O_33  and  C_34
REMARK                            x       y       z     vdW  Elec       q    Type
REMARK                         _______ _______ _______ _____ _____    ______ ____
ROOT
ATOM      1  C   UNL     1      -2.234  -0.907   3.983  0.00  0.00    +0.032 C 
ATOM      2  C   UNL     1      -2.247  -2.322   3.409  0.00  0.00    +0.059 C 
ATOM      3  C   UNL     1      -1.578  -2.337   2.045  0.00  0.00    +0.017 C 
ATOM      4  C   UNL     1      -1.645  -1.263   1.240  0.00  0.00    +0.037 C 
ATOM      5  C   UNL     1      -1.033  -1.147  -0.136  0.00  0.00    +0.140 C 
ATOM      6  N   UNL     1      -0.554  -2.397  -0.685  0.00  0.00    -0.331 N 
ATOM      7  C   UNL     1       0.503  -3.085  -0.095  0.00  0.00    +0.049 A 
ATOM      8  C   UNL     1       1.731  -3.207  -0.727  0.00  0.00    +0.025 A 
ATOM      9  C   UNL     1       2.785  -3.800  -0.053  0.00  0.00    +0.002 A 
ATOM     10  C   UNL     1       2.617  -4.267   1.237  0.00  0.00    +0.002 A 
ATOM     11  C   UNL     1       1.386  -4.166   1.863  0.00  0.00    +0.025 A 
ATOM     12  C   UNL     1       0.326  -3.590   1.184  0.00  0.00    +0.052 A 
ATOM     13  N   UNL     1      -0.948  -3.498   1.733  0.00  0.00    -0.316 N 
ATOM     14  C   UNL     1      -2.334  -0.100   1.660  0.00  0.00    +0.163 C 
ATOM     15  O   UNL     1      -2.397   0.849   0.904  0.00  0.00    -0.292 OA
ATOM     16  C   UNL     1      -2.990   0.000   3.004  0.00  0.00    +0.088 C 
ATOM     17  H   UNL     1      -1.026  -2.820  -1.584  0.00  0.00    +0.147 HD
ATOM     18  H   UNL     1      -1.448  -4.461   1.912  0.00  0.00    +0.152 HD
ENDROOT
BRANCH   1  22
ATOM     19  C   UNL     1      -4.178  -0.869   7.788  0.00  0.00    +0.121 A 
ATOM     20  C   UNL     1      -2.861  -0.449   7.677  0.00  0.00    +0.046 A 
ATOM     21  C   UNL     1      -2.234  -0.462   6.446  0.00  0.00    +0.007 A 
ATOM     22  C   UNL     1      -2.920  -0.893   5.325  0.00  0.00    -0.043 A 
ATOM     23  C   UNL     1      -4.234  -1.308   5.433  0.00  0.00    +0.007 A 
ATOM     24  C   UNL     1      -4.863  -1.302   6.662  0.00  0.00    +0.046 A 
BRANCH  19  25
ATOM     25  O   UNL     1      -4.796  -0.858   8.999  0.00  0.00    -0.492 OA
BRANCH  25  27
ATOM     26  C   UNL     1      -6.675  -1.220  10.474  0.00  0.00    +0.048 C 
ATOM     27  C   UNL     1      -6.153  -1.304   9.039  0.00  0.00    +0.225 C 
ENDBRANCH  25  27
ENDBRANCH  19  25
ENDBRANCH   1  22
BRANCH   5  28
ATOM     28  C   UNL     1       0.122  -0.182  -0.065  0.00  0.00    +0.023 A 
ATOM     29  C   UNL     1       0.679   0.141   1.159  0.00  0.00    +0.009 A 
ATOM     30  C   UNL     1       1.739   1.025   1.228  0.00  0.00    +0.004 A 
ATOM     31  C   UNL     1       2.248   1.590   0.073  0.00  0.00    +0.049 A 
ATOM     32  C   UNL     1       1.695   1.271  -1.156  0.00  0.00    +0.162 A 
ATOM     33  C   UNL     1       0.627   0.381  -1.225  0.00  0.00    +0.167 A 
BRANCH  33  34
ATOM     34  O   UNL     1       0.084   0.059  -2.430  0.00  0.00    -0.491 OA
ATOM     35  C   UNL     1      -0.915   0.940  -2.948  0.00  0.00    +0.277 C 
ENDBRANCH  33  34
BRANCH  32  36
ATOM     36  O   UNL     1       2.194   1.825  -2.293  0.00  0.00    -0.491 OA
ATOM     37  C   UNL     1       3.290   2.731  -2.146  0.00  0.00    +0.277 C 
ENDBRANCH  32  36
ENDBRANCH   5  28
TORSDOF 6
