REMARK  Name = ZINC29767763
REMARK  5 active torsions:
REMARK  status: ('A' for Active; 'I' for Inactive)
REMARK    1  A    between atoms: C_1  and  C_2
REMARK    2  A    between atoms: C_3  and  C_13
REMARK    3  A    between atoms: C_5  and  C_7
REMARK    4  A    between atoms: C_17  and  C_26
REMARK    5  A    between atoms: N_28  and  C_29
REMARK                            x       y       z     vdW  Elec       q    Type
REMARK                         _______ _______ _______ _____ _____    ______ ____
ROOT
ATOM      1  C   UNL     1      -0.014   1.213   0.009  0.00  0.00    +0.259 C 
ATOM      2  O   UNL     1      -1.080   1.800  -0.009  0.00  0.00    -0.269 OA
ATOM      3  N   UNL     1       1.138   1.906  -0.080  0.00  0.00    -0.260 N 
ATOM      4  C   UNL     1       2.442   1.221  -0.064  0.00  0.00    +0.168 C 
ATOM      5  C   UNL     1       3.326   1.891  -1.131  0.00  0.00    +0.276 C 
ATOM      6  O   UNL     1       3.445   3.282  -0.820  0.00  0.00    -0.476 OA
ATOM      7  C   UNL     1       2.303   3.972  -0.559  0.00  0.00    +0.143 A 
ATOM      8  C   UNL     1       1.138   3.307  -0.185  0.00  0.00    +0.079 A 
ATOM      9  C   UNL     1      -0.017   4.023   0.083  0.00  0.00    +0.027 A 
ATOM     10  C   UNL     1      -0.013   5.402  -0.023  0.00  0.00    +0.002 A 
ATOM     11  C   UNL     1       1.142   6.064  -0.397  0.00  0.00    +0.004 A 
ATOM     12  C   UNL     1       2.297   5.354  -0.665  0.00  0.00    +0.047 A 
ENDROOT
BRANCH   1  15
ATOM     13  C   UNL     1      -2.448  -0.715  -0.139  0.00  0.00    +0.067 C 
ATOM     14  C   UNL     1      -1.026  -1.164   0.077  0.00  0.00    +0.058 A 
ATOM     15  C   UNL     1       0.016  -0.247   0.133  0.00  0.00    +0.097 A 
ATOM     16  S   UNL     1       1.402  -1.341   0.407  0.00  0.00    -0.062 S 
ATOM     17  C   UNL     1       0.515  -2.834   0.413  0.00  0.00    +0.109 A 
ATOM     18  N   UNL     1      -0.732  -2.429   0.214  0.00  0.00    -0.243 NA
BRANCH  17  19
ATOM     19  C   UNL     1       1.022  -4.210   0.594  0.00  0.00    +0.007 A 
ATOM     20  C   UNL     1       2.386  -4.435   0.787  0.00  0.00    +0.010 A 
ATOM     21  C   UNL     1       2.853  -5.722   0.961  0.00  0.00    +0.001 A 
ATOM     22  C   UNL     1       1.973  -6.789   0.932  0.00  0.00    +0.000 A 
ATOM     23  C   UNL     1       0.620  -6.574   0.736  0.00  0.00    +0.001 A 
ATOM     24  C   UNL     1       0.140  -5.292   0.566  0.00  0.00    +0.010 A 
ENDBRANCH  17  19
ENDBRANCH   1  15
BRANCH   5  25
ATOM     25  C   UNL     1       4.692   1.256  -1.130  0.00  0.00    +0.255 C 
ATOM     26  O   UNL     1       5.663   1.903  -0.798  0.00  0.00    -0.272 OA
ATOM     27  N   UNL     1       4.836  -0.033  -1.497  0.00  0.00    -0.315 N 
ATOM     28  C   UNL     1       6.165  -0.651  -1.496  0.00  0.00    +0.128 C 
ATOM     29  H   UNL     1       3.957  -0.621  -1.798  0.00  0.00    +0.148 HD
ENDBRANCH   5  25
TORSDOF 3
