REMARK  Name = ZINC51039753
REMARK  3 active torsions:
REMARK  status: ('A' for Active; 'I' for Inactive)
REMARK    1  A    between atoms: C_1  and  N_2
REMARK    2  A    between atoms: N_2  and  C_3
REMARK    3  A    between atoms: C_3  and  C_4
REMARK                            x       y       z     vdW  Elec       q    Type
REMARK                         _______ _______ _______ _____ _____    ______ ____
ROOT
ATOM      1  C   UNL     1      -0.018   1.461   0.010  0.00  0.00    +0.131 C 
ATOM      2  N   UNL     1       0.002  -0.004   0.002  0.00  0.00    -0.313 N 
ATOM      3  C   UNL     1       0.000  -0.690  -1.202  0.00  0.00    +0.145 A 
ATOM      4  C   UNL     1       0.090  -0.003  -2.416  0.00  0.00    +0.178 A 
ATOM      5  N   UNL     1       0.085  -0.690  -3.542  0.00  0.00    -0.151 NA
ATOM      6  N   UNL     1      -0.001  -1.973  -3.524  0.00  0.00    -0.117 NA
ATOM      7  C   UNL     1      -0.087  -2.645  -2.390  0.00  0.00    +0.245 A 
ATOM      8  N   UNL     1      -0.082  -2.018  -1.227  0.00  0.00    -0.200 NA
ATOM      9 CL   UNL     1      -0.202  -4.377  -2.428  0.00  0.00    -0.039 Cl
ENDROOT
BRANCH   2  10
ATOM     10  C   UNL     1       0.024  -0.743   1.267  0.00  0.00    +0.141 C 
BRANCH  10  11
ATOM     11  C   UNL     1      -1.389  -1.016   1.714  0.00  0.00    -0.030 A 
ATOM     12  C   UNL     1      -2.047  -0.105   2.518  0.00  0.00    +0.006 A 
ATOM     13  C   UNL     1      -3.343  -0.354   2.929  0.00  0.00    +0.020 A 
ATOM     14  C   UNL     1      -3.982  -1.517   2.534  0.00  0.00    +0.041 A 
ATOM     15  C   UNL     1      -3.322  -2.428   1.729  0.00  0.00    +0.020 A 
ATOM     16  C   UNL     1      -2.028  -2.175   1.314  0.00  0.00    +0.006 A 
ATOM     17 CL   UNL     1      -5.609  -1.831   3.050  0.00  0.00    -0.084 Cl
ENDBRANCH  10  11
ENDBRANCH   2  10
TORSDOF 2
