REMARK  Name = ZINC22878811
REMARK  6 active torsions:
REMARK  status: ('A' for Active; 'I' for Inactive)
REMARK    1  A    between atoms: C_9  and  C_18
REMARK    2  A    between atoms: C_18  and  N_19
REMARK    3  A    between atoms: C_20  and  C_22
REMARK    4  A    between atoms: C_22  and  C_23
REMARK    5  A    between atoms: C_23  and  C_24
REMARK    6  A    between atoms: C_26  and  C_29
REMARK                            x       y       z     vdW  Elec       q    Type
REMARK                         _______ _______ _______ _____ _____    ______ ____
ROOT
ATOM      1  C   UNL     1      -2.449   1.117   0.020  0.00  0.00    +0.108 C 
ENDROOT
BRANCH   1  10
ATOM      2  C   UNL     1      -7.946   4.276  -0.363  0.00  0.00    +0.000 A 
ATOM      3  C   UNL     1      -7.958   3.541   0.808  0.00  0.00    +0.000 A 
ATOM      4  C   UNL     1      -7.001   2.561   1.033  0.00  0.00    +0.004 A 
ATOM      5  C   UNL     1      -6.051   2.337   0.078  0.00  0.00    -0.036 A 
ATOM      6  C   UNL     1      -6.038   3.077  -1.102  0.00  0.00    -0.036 A 
ATOM      7  C   UNL     1      -6.977   4.043  -1.330  0.00  0.00    +0.004 A 
ATOM      8  C   UNL     1      -4.918   2.711  -2.063  0.00  0.00    +0.050 C 
ATOM      9  C   UNL     1      -3.613   2.906  -1.263  0.00  0.00    +0.018 C 
ATOM     10  C   UNL     1      -3.626   2.095   0.031  0.00  0.00    +0.019 C 
ATOM     11  C   UNL     1      -4.941   1.302   0.182  0.00  0.00    +0.054 C 
ATOM     12  C   UNL     1      -5.058   0.468  -1.084  0.00  0.00    -0.036 A 
ATOM     13  C   UNL     1      -5.045   1.209  -2.264  0.00  0.00    -0.036 A 
ATOM     14  C   UNL     1      -5.141   0.591  -3.478  0.00  0.00    +0.004 A 
ATOM     15  C   UNL     1      -5.253  -0.793  -3.517  0.00  0.00    +0.000 A 
ATOM     16  C   UNL     1      -5.265  -1.528  -2.346  0.00  0.00    +0.000 A 
ATOM     17  C   UNL     1      -5.167  -0.893  -1.115  0.00  0.00    +0.004 A 
ENDBRANCH   1  10
BRANCH   1  18
ATOM     18  N   UNL     1      -1.191   1.867   0.018  0.00  0.00    -0.315 N 
ATOM     19  C   UNL     1      -0.014   1.209   0.009  0.00  0.00    +0.213 C 
ATOM     20  O   UNL     1       0.002  -0.004   0.002  0.00  0.00    -0.276 OA
ATOM     21  H   UNL     1      -1.206   2.966   0.024  0.00  0.00    +0.149 HD
BRANCH  19  22
ATOM     22  C   UNL     1       1.280   1.980   0.001  0.00  0.00    +0.105 C 
BRANCH  22  23
ATOM     23  C   UNL     1       2.457   1.002  -0.016  0.00  0.00    +0.108 C 
BRANCH  23  24
ATOM     24  C   UNL     1       3.751   1.773  -0.024  0.00  0.00    +0.228 A 
ATOM     25  N   UNL     1       4.426   2.169   1.025  0.00  0.00    -0.191 NA
ATOM     26  C   UNL     1       5.511   2.815   0.537  0.00  0.00    +0.209 A 
ATOM     27  N   UNL     1       5.426   2.779  -0.770  0.00  0.00    -0.056 NA
ATOM     28  O   UNL     1       4.422   2.185  -1.105  0.00  0.00    -0.338 OA
BRANCH  26  29
ATOM     29  C   UNL     1       6.586   3.447   1.329  0.00  0.00    +0.060 A 
ATOM     30  C   UNL     1       7.700   4.115   0.894  0.00  0.00    +0.019 A 
ATOM     31  C   UNL     1       8.573   4.625   1.827  0.00  0.00    +0.008 A 
ATOM     32  C   UNL     1       8.306   4.452   3.148  0.00  0.00    +0.046 A 
ATOM     33  S   UNL     1       6.768   3.546   3.102  0.00  0.00    -0.093 S 
ENDBRANCH  26  29
ENDBRANCH  23  24
ENDBRANCH  22  23
ENDBRANCH  19  22
ENDBRANCH   1  18
TORSDOF 6
