REMARK  Name = ZINC11218125
REMARK  5 active torsions:
REMARK  status: ('A' for Active; 'I' for Inactive)
REMARK    1  A    between atoms: C_1  and  C_2
REMARK    2  A    between atoms: C_3  and  C_20
REMARK    3  A    between atoms: C_4  and  C_10
REMARK    4  A    between atoms: C_14  and  N_16
REMARK    5  A    between atoms: N_22  and  C_23
REMARK                            x       y       z     vdW  Elec       q    Type
REMARK                         _______ _______ _______ _____ _____    ______ ____
ROOT
ATOM      1  C   UNL     1       1.545  -5.455  -3.117  0.00  0.00    +0.061 C 
ATOM      2  C   UNL     1       2.120  -4.991  -1.804  0.00  0.00    +0.017 C 
ATOM      3  C   UNL     1       2.862  -3.864  -1.766  0.00  0.00    +0.056 C 
ATOM      4  C   UNL     1       3.422  -3.433  -0.425  0.00  0.00    +0.139 C 
ATOM      5  N   UNL     1       3.108  -4.286   0.734  0.00  0.00    -0.315 N 
ATOM      6  C   UNL     1       2.352  -5.383   0.536  0.00  0.00    +0.135 C 
ATOM      7  S   UNL     1       1.978  -6.383   1.875  0.00  0.00    -0.019 S 
ATOM      8  N   UNL     1       1.883  -5.718  -0.672  0.00  0.00    -0.300 N 
ATOM      9  H   UNL     1       3.438  -4.062   1.619  0.00  0.00    +0.149 HD
ATOM     10  H   UNL     1       1.344  -6.521  -0.749  0.00  0.00    +0.154 HD
ENDROOT
BRANCH   4  11
ATOM     11  C   UNL     1       2.912  -2.046  -0.133  0.00  0.00    -0.020 A 
ATOM     12  C   UNL     1       1.592  -1.857   0.233  0.00  0.00    +0.007 A 
ATOM     13  C   UNL     1       1.123  -0.585   0.500  0.00  0.00    +0.018 A 
ATOM     14  C   UNL     1       1.975   0.500   0.402  0.00  0.00    +0.048 A 
ATOM     15  C   UNL     1       3.296   0.312   0.037  0.00  0.00    +0.140 A 
ATOM     16  C   UNL     1       3.762  -0.961  -0.235  0.00  0.00    +0.039 A 
ATOM     17 BR   UNL     1       1.335   2.242   0.767  0.00  0.00    -0.048 Br
BRANCH  15  18
ATOM     18  N   UNL     1       4.208   1.472  -0.068  0.00  0.00    +0.058 N 
ATOM     19  O   UNL     1       5.371   1.306  -0.390  0.00  0.00    -0.126 OA
ATOM     20  O   UNL     1       3.794   2.595   0.162  0.00  0.00    -0.126 OA
ENDBRANCH  15  18
ENDBRANCH   4  11
BRANCH   3  21
ATOM     21  C   UNL     1       3.109  -3.109  -2.938  0.00  0.00    +0.248 C 
ATOM     22  O   UNL     1       4.214  -3.123  -3.450  0.00  0.00    -0.270 OA
ATOM     23  N   UNL     1       2.121  -2.376  -3.489  0.00  0.00    -0.279 N 
ATOM     24  H   UNL     1       1.264  -2.303  -3.040  0.00  0.00    +0.155 HD
BRANCH  23  25
ATOM     25  C   UNL     1       2.331  -1.721  -4.707  0.00  0.00    +0.069 A 
ATOM     26  C   UNL     1       3.603  -1.287  -5.054  0.00  0.00    +0.026 A 
ATOM     27  C   UNL     1       3.808  -0.645  -6.260  0.00  0.00    +0.002 A 
ATOM     28  C   UNL     1       2.746  -0.424  -7.117  0.00  0.00    +0.003 A 
ATOM     29  C   UNL     1       1.476  -0.849  -6.774  0.00  0.00    +0.040 A 
ATOM     30  C   UNL     1       1.264  -1.497  -5.571  0.00  0.00    +0.144 A 
ATOM     31  F   UNL     1       0.023  -1.912  -5.236  0.00  0.00    -0.204 F 
ENDBRANCH  23  25
ENDBRANCH   3  21
TORSDOF 4
