REMARK  Name = ZINC12104807
REMARK  9 active torsions:
REMARK  status: ('A' for Active; 'I' for Inactive)
REMARK    1  A    between atoms: C_1  and  C_2
REMARK    2  A    between atoms: C_3  and  C_30
REMARK    3  A    between atoms: C_11  and  C_13
REMARK    4  A    between atoms: C_13  and  C_15
REMARK    5  A    between atoms: C_13  and  S_16
REMARK    6  A    between atoms: S_16  and  C_17
REMARK    7  A    between atoms: C_20  and  C_23
REMARK    8  A    between atoms: C_23  and  C_24
REMARK    9  A    between atoms: C_24  and  C_25
REMARK                            x       y       z     vdW  Elec       q    Type
REMARK                         _______ _______ _______ _____ _____    ______ ____
ROOT
ATOM      1  C   UNL     1       1.475   8.362   0.241  0.00  0.00    +0.117 C 
ATOM      2  C   UNL     1      -0.046   8.240   0.359  0.00  0.00    +0.027 C 
ENDROOT
BRANCH   1  13
ATOM      3  C   UNL     1       3.341  14.733   1.178  0.00  0.00    +0.045 C 
ATOM      4  C   UNL     1       3.090  13.519   2.035  0.00  0.00    -0.026 A 
ATOM      5  C   UNL     1       3.243  13.584   3.367  0.00  0.00    -0.008 A 
ATOM      6  S   UNL     1       2.840  11.934   3.910  0.00  0.00    -0.073 S 
ATOM      7  C   UNL     1       2.478  11.206   2.333  0.00  0.00    +0.116 A 
ATOM      8  C   UNL     1       2.681  12.265   1.429  0.00  0.00    +0.075 A 
ATOM      9  C   UNL     1       2.454  11.954   0.049  0.00  0.00    +0.260 A 
ATOM     10  O   UNL     1       2.602  12.805  -0.810  0.00  0.00    -0.267 OA
ATOM     11  N   UNL     1       2.073  10.706  -0.283  0.00  0.00    -0.309 N 
ATOM     12  H   UNL     1       1.918  10.489  -1.216  0.00  0.00    +0.170 HD
ATOM     13  C   UNL     1       1.902   9.745   0.661  0.00  0.00    +0.124 A 
ATOM     14  N   UNL     1       2.096   9.999   1.927  0.00  0.00    -0.225 NA
ATOM     15  C   UNL     1       3.657  14.767   4.203  0.00  0.00    +0.052 C 
ENDBRANCH   1  13
BRANCH   1  16
ATOM     16  S   UNL     1       2.264   7.135   1.312  0.00  0.00    -0.075 S 
BRANCH  16  17
ATOM     17  C   UNL     1       1.728   5.652   0.525  0.00  0.00    +0.190 A 
ATOM     18  N   UNL     1       2.021   4.376   0.912  0.00  0.00    -0.320 N 
ATOM     19  H   UNL     1       2.562   4.104   1.669  0.00  0.00    +0.169 HD
ATOM     20  C   UNL     1       1.396   3.562   0.008  0.00  0.00    +0.132 A 
ATOM     21  N   UNL     1       0.775   4.331  -0.842  0.00  0.00    -0.134 NA
ATOM     22  N   UNL     1       0.967   5.566  -0.542  0.00  0.00    -0.123 NA
BRANCH  20  23
ATOM     23  C   UNL     1       1.417   2.055  -0.000  0.00  0.00    +0.076 C 
BRANCH  23  24
ATOM     24  C   UNL     1      -0.019   1.526   0.010  0.00  0.00    +0.011 C 
BRANCH  24  25
ATOM     25  C   UNL     1       0.002  -0.004   0.002  0.00  0.00    -0.011 C 
ATOM     26  C   UNL     1       0.543  -0.518  -1.348  0.00  0.00    +0.003 C 
ATOM     27  C   UNL     1      -0.301  -1.783  -1.639  0.00  0.00    +0.000 C 
ATOM     28  C   UNL     1      -1.708  -1.379  -1.133  0.00  0.00    +0.000 C 
ATOM     29  C   UNL     1      -1.429  -0.551   0.139  0.00  0.00    +0.003 C 
ENDBRANCH  24  25
ENDBRANCH  23  24
ENDBRANCH  20  23
ENDBRANCH  16  17
ENDBRANCH   1  16
TORSDOF 6
