REMARK  Name = ZINC15672363
REMARK  4 active torsions:
REMARK  status: ('A' for Active; 'I' for Inactive)
REMARK    1  A    between atoms: C_1  and  N_2
REMARK    2  A    between atoms: C_5  and  N_8
REMARK    3  A    between atoms: C_17  and  N_24
REMARK    4  A    between atoms: N_27  and  C_28
REMARK                            x       y       z     vdW  Elec       q    Type
REMARK                         _______ _______ _______ _____ _____    ______ ____
ROOT
ATOM      1  N   UNL     1       1.322  -3.937  -0.099  0.00  0.00    -0.299 NA
ATOM      2  C   UNL     1       2.167  -4.416   1.000  0.00  0.00    +0.090 C 
ATOM      3  C   UNL     1       2.228  -5.936   1.021  0.00  0.00    +0.024 C 
ATOM      4  C   UNL     1       2.697  -6.480  -0.331  0.00  0.00    +0.017 C 
ATOM      5  C   UNL     1       1.736  -5.952  -1.402  0.00  0.00    +0.052 C 
ATOM      6  C   UNL     1       1.818  -4.416  -1.398  0.00  0.00    +0.094 C 
ATOM      7  C   UNL     1       0.322  -6.344  -1.036  0.00  0.00    +0.047 A 
ATOM      8  C   UNL     1      -0.570  -6.509  -2.055  0.00  0.00    +0.055 A 
ATOM      9  C   UNL     1      -1.911  -6.820  -1.780  0.00  0.00    +0.030 A 
ATOM     10  C   UNL     1      -2.313  -6.911  -0.480  0.00  0.00    +0.072 A 
ATOM     11  C   UNL     1      -1.373  -6.722   0.541  0.00  0.00    +0.252 A 
ATOM     12  O   UNL     1      -1.737  -6.736   1.707  0.00  0.00    -0.268 OA
ATOM     13  N   UNL     1      -0.064  -6.524   0.251  0.00  0.00    -0.310 N 
ATOM     14  C   UNL     1       0.881  -6.551   1.361  0.00  0.00    +0.130 C 
ENDROOT
BRANCH   1  19
ATOM     15  C   UNL     1      -0.695   1.329   0.139  0.00  0.00    -0.096 C 
ATOM     16  N   UNL     1      -0.464  -0.121   0.109  0.00  0.00    +0.378 N 
ATOM     17  C   UNL     1       0.157  -0.490  -1.169  0.00  0.00    -0.078 C 
ATOM     18  C   UNL     1       0.326  -2.009  -1.238  0.00  0.00    +0.000 C 
ATOM     19  C   UNL     1       1.218  -2.472  -0.083  0.00  0.00    +0.053 C 
ATOM     20  C   UNL     1       0.598  -2.017   1.241  0.00  0.00    +0.000 C 
ATOM     21  C   UNL     1       0.419  -0.497   1.219  0.00  0.00    -0.078 C 
ATOM     22  H   UNL     1      -1.345  -0.603   0.204  0.00  0.00    -0.082 HD
ENDBRANCH   1  19
BRANCH   8  23
ATOM     23  N   UNL     1      -0.144  -6.368  -3.386  0.00  0.00    -0.268 N 
ATOM     24  C   UNL     1      -0.315  -7.380  -4.259  0.00  0.00    +0.308 C 
ATOM     25  O   UNL     1      -0.920  -8.379  -3.921  0.00  0.00    -0.252 OA
ATOM     26  N   UNL     1       0.184  -7.285  -5.507  0.00  0.00    -0.269 N 
ATOM     27  H   UNL     1       0.272  -5.542  -3.676  0.00  0.00    +0.156 HD
ATOM     28  H   UNL     1       0.731  -6.522  -5.754  0.00  0.00    +0.156 HD
BRANCH  26  29
ATOM     29  C   UNL     1      -0.085  -8.286  -6.447  0.00  0.00    +0.035 A 
ATOM     30  C   UNL     1       0.863  -8.610  -7.409  0.00  0.00    +0.023 A 
ATOM     31  C   UNL     1       0.594  -9.599  -8.335  0.00  0.00    +0.002 A 
ATOM     32  C   UNL     1      -0.617 -10.266  -8.305  0.00  0.00    +0.000 A 
ATOM     33  C   UNL     1      -1.563  -9.945  -7.348  0.00  0.00    +0.002 A 
ATOM     34  C   UNL     1      -1.298  -8.961  -6.416  0.00  0.00    +0.023 A 
ENDBRANCH  26  29
ENDBRANCH   8  23
TORSDOF 3
