REMARK  Name = ZINC09877677
REMARK  7 active torsions:
REMARK  status: ('A' for Active; 'I' for Inactive)
REMARK    1  A    between atoms: C_1  and  C_2
REMARK    2  A    between atoms: C_2  and  C_4
REMARK    3  A    between atoms: C_2  and  S_14
REMARK    4  A    between atoms: S_14  and  C_15
REMARK    5  A    between atoms: C_18  and  C_26
REMARK    6  A    between atoms: N_19  and  C_20
REMARK    7  A    between atoms: C_26  and  N_56
REMARK                            x       y       z     vdW  Elec       q    Type
REMARK                         _______ _______ _______ _____ _____    ______ ____
ROOT
ATOM      1  C   UNL     1       0.001  -0.002  -0.004  0.00  0.00    +0.197 A 
ATOM      2  N   UNL     1      -0.017   1.311   0.003  0.00  0.00    -0.122 NA
ATOM      3  N   UNL     1       1.185   1.766  -0.008  0.00  0.00    -0.135 NA
ATOM      4  C   UNL     1       2.038   0.780  -0.022  0.00  0.00    +0.122 A 
ATOM      5  N   UNL     1       1.315  -0.383  -0.021  0.00  0.00    -0.276 N 
ENDROOT
BRANCH   5   6
ATOM      6  C   UNL     1       1.817  -1.693  -0.033  0.00  0.00    +0.050 A 
ATOM      7  C   UNL     1       2.557  -2.164   1.043  0.00  0.00    +0.026 A 
ATOM      8  C   UNL     1       3.046  -3.456   1.030  0.00  0.00    +0.002 A 
ATOM      9  C   UNL     1       2.808  -4.276  -0.058  0.00  0.00    +0.000 A 
ATOM     10  C   UNL     1       2.076  -3.807  -1.133  0.00  0.00    +0.002 A 
ATOM     11  C   UNL     1       1.580  -2.518  -1.124  0.00  0.00    +0.026 A 
ENDBRANCH   5   6
BRANCH   1  12
ATOM     12  S   UNL     1      -1.400  -1.070   0.004  0.00  0.00    -0.073 S 
BRANCH  12  14
ATOM     13  C   UNL     1      -2.706   0.959  -1.278  0.00  0.00    +0.029 C 
ATOM     14  C   UNL     1      -2.730   0.158   0.026  0.00  0.00    +0.137 C 
BRANCH  14  15
ATOM     15  C   UNL     1      -4.058  -0.543   0.160  0.00  0.00    +0.231 C 
ATOM     16  O   UNL     1      -4.155  -1.718  -0.125  0.00  0.00    -0.274 OA
ATOM     17  N   UNL     1      -5.137   0.136   0.596  0.00  0.00    -0.269 N 
ATOM     18  C   UNL     1      -6.387  -0.481   0.620  0.00  0.00    +0.125 A 
ATOM     19  C   UNL     1      -7.513   0.256   0.971  0.00  0.00    +0.045 A 
ATOM     20  C   UNL     1      -8.747  -0.369   0.990  0.00  0.00    +0.025 A 
ATOM     21  C   UNL     1      -8.813  -1.716   0.657  0.00  0.00    +0.059 A 
ATOM     22  C   UNL     1      -7.653  -2.387   0.318  0.00  0.00    +0.132 A 
ATOM     23  N   UNL     1      -6.491  -1.762   0.303  0.00  0.00    -0.239 NA
ATOM     24 CL   UNL     1     -10.337  -2.548   0.666  0.00  0.00    -0.082 Cl
ATOM     25  H   UNL     1      -5.044   1.055   0.894  0.00  0.00    +0.156 HD
ENDBRANCH  14  15
ENDBRANCH  12  14
ENDBRANCH   1  12
BRANCH   4  26
ATOM     26  C   UNL     1       3.540   0.899  -0.038  0.00  0.00    -0.001 C 
BRANCH  26  32
ATOM     27  C   UNL     1       3.751  -0.326  -2.115  0.00  0.00    -0.078 C 
ATOM     28  C   UNL     1       4.123  -0.194  -3.593  0.00  0.00    -0.019 C 
ATOM     29  C   UNL     1       5.604   0.175  -3.712  0.00  0.00    -0.004 C 
ATOM     30  C   UNL     1       5.860   1.477  -2.947  0.00  0.00    -0.019 C 
ATOM     31  C   UNL     1       5.438   1.297  -1.487  0.00  0.00    -0.078 C 
ATOM     32  N   UNL     1       3.997   0.967  -1.441  0.00  0.00    +0.384 N 
ATOM     33  H   UNL     1       3.471   1.702  -1.928  0.00  0.00    -0.081 HD
ENDBRANCH  26  32
ENDBRANCH   4  26
TORSDOF 6
