REMARK  Name = ZINC13548627
REMARK  9 active torsions:
REMARK  status: ('A' for Active; 'I' for Inactive)
REMARK    1  A    between atoms: C_1  and  C_2
REMARK    2  A    between atoms: C_2  and  C_3
REMARK    3  A    between atoms: C_3  and  C_4
REMARK    4  A    between atoms: C_4  and  C_5
REMARK    5  A    between atoms: C_6  and  C_25
REMARK    6  A    between atoms: N_12  and  N_13
REMARK    7  A    between atoms: C_14  and  C_15
REMARK    8  A    between atoms: C_14  and  C_16
REMARK    9  A    between atoms: C_19  and  N_22
REMARK                            x       y       z     vdW  Elec       q    Type
REMARK                         _______ _______ _______ _____ _____    ______ ____
ROOT
ATOM      1  C   UNL     1       1.444  -2.513  -2.505  0.00  0.00    +0.038 A 
ATOM      2  C   UNL     1       2.772  -2.829  -2.469  0.00  0.00    +0.050 A 
ATOM      3  N   UNL     1       3.386  -3.257  -3.569  0.00  0.00    -0.220 NA
ATOM      4  C   UNL     1       2.739  -3.388  -4.710  0.00  0.00    +0.216 A 
ATOM      5  N   UNL     1       1.414  -3.088  -4.806  0.00  0.00    -0.294 N 
ATOM      6  C   UNL     1       0.744  -2.655  -3.717  0.00  0.00    +0.256 A 
ATOM      7  O   UNL     1      -0.444  -2.386  -3.783  0.00  0.00    -0.267 OA
ATOM      8  N   UNL     1       3.410  -3.833  -5.819  0.00  0.00    -0.206 N 
ATOM      9  C   UNL     1       3.543  -2.691  -1.182  0.00  0.00    +0.066 C 
ATOM     10  H   UNL     1       2.942  -3.932  -6.662  0.00  0.00    +0.177 HD
ATOM     11  H   UNL     1       0.952  -3.190  -5.653  0.00  0.00    +0.172 HD
ENDROOT
BRANCH   8  12
ATOM     12  N   UNL     1       4.774  -4.144  -5.734  0.00  0.00    -0.184 NA
ATOM     13  C   UNL     1       5.410  -4.565  -6.783  0.00  0.00    +0.063 C 
ATOM     14  C   UNL     1       4.682  -4.719  -8.094  0.00  0.00    +0.068 C 
BRANCH  13  15
ATOM     15  C   UNL     1       6.845  -4.892  -6.694  0.00  0.00    -0.002 A 
ATOM     16  C   UNL     1       7.535  -5.340  -7.823  0.00  0.00    +0.012 A 
ATOM     17  C   UNL     1       8.877  -5.645  -7.732  0.00  0.00    +0.033 A 
ATOM     18  C   UNL     1       9.540  -5.508  -6.526  0.00  0.00    +0.126 A 
ATOM     19  C   UNL     1       8.864  -5.065  -5.403  0.00  0.00    +0.033 A 
ATOM     20  C   UNL     1       7.523  -4.751  -5.481  0.00  0.00    +0.012 A 
BRANCH  18  21
ATOM     21  N   UNL     1      10.980  -5.838  -6.435  0.00  0.00    +0.056 N 
ATOM     22  O   UNL     1      11.574  -6.226  -7.415  0.00  0.00    -0.126 OA
ATOM     23  O   UNL     1      11.563  -5.719  -5.383  0.00  0.00    -0.126 OA
ENDBRANCH  18  21
ENDBRANCH  13  15
ENDBRANCH   8  12
BRANCH   1  24
ATOM     24  C   UNL     1       0.739  -2.027  -1.265  0.00  0.00    +0.042 C 
BRANCH  24  25
ATOM     25  C   UNL     1       0.718  -0.497  -1.257  0.00  0.00    +0.005 C 
BRANCH  25  27
ATOM     26  C   UNL     1      -0.019   1.526   0.010  0.00  0.00    +0.004 C 
ATOM     27  C   UNL     1       0.002  -0.004   0.002  0.00  0.00    -0.003 C 
ENDBRANCH  25  27
ENDBRANCH  24  25
ENDBRANCH   1  24
TORSDOF 6
