REMARK  Name = ZINC15753021
REMARK  12 active torsions:
REMARK  status: ('A' for Active; 'I' for Inactive)
REMARK    1  A    between atoms: C_1  and  C_2
REMARK    2  A    between atoms: C_3  and  C_31
REMARK    3  A    between atoms: C_4  and  C_30
REMARK    4  A    between atoms: C_7  and  C_8
REMARK    5  A    between atoms: C_8  and  C_10
REMARK    6  A    between atoms: C_10  and  C_12
REMARK    7  A    between atoms: C_10  and  S_13
REMARK    8  A    between atoms: S_13  and  C_14
REMARK    9  A    between atoms: C_17  and  C_25
REMARK   10  A    between atoms: N_18  and  C_19
REMARK   11  A    between atoms: C_25  and  N_61
REMARK   12  A    between atoms: C_31  and  C_33
REMARK                            x       y       z     vdW  Elec       q    Type
REMARK                         _______ _______ _______ _____ _____    ______ ____
ROOT
ATOM      1  C   UNL     1      -9.407   2.529   1.634  0.00  0.00    +0.197 A 
ATOM      2  N   UNL     1      -9.441   2.537   0.321  0.00  0.00    -0.122 NA
ATOM      3  N   UNL     1     -10.638   2.313  -0.087  0.00  0.00    -0.135 NA
ATOM      4  C   UNL     1     -11.436   2.148   0.929  0.00  0.00    +0.122 A 
ATOM      5  N   UNL     1     -10.680   2.274   2.065  0.00  0.00    -0.276 N 
ENDROOT
BRANCH   5   6
ATOM      6  C   UNL     1     -11.120   2.167   3.392  0.00  0.00    +0.050 A 
ATOM      7  C   UNL     1     -11.569   0.947   3.880  0.00  0.00    +0.026 A 
ATOM      8  C   UNL     1     -11.996   0.843   5.189  0.00  0.00    +0.002 A 
ATOM      9  C   UNL     1     -11.988   1.956   6.011  0.00  0.00    +0.000 A 
ATOM     10  C   UNL     1     -11.547   3.173   5.526  0.00  0.00    +0.002 A 
ATOM     11  C   UNL     1     -11.113   3.282   4.219  0.00  0.00    +0.026 A 
ENDBRANCH   5   6
BRANCH   1  12
ATOM     12  S   UNL     1      -7.990   2.788   2.648  0.00  0.00    -0.074 S 
BRANCH  12  13
ATOM     13  C   UNL     1      -6.733   3.044   1.371  0.00  0.00    +0.124 C 
ATOM     14  C   UNL     1      -7.048   4.324   0.595  0.00  0.00    +0.028 C 
BRANCH  13  15
ATOM     15  C   UNL     1      -5.378   3.170   2.018  0.00  0.00    +0.192 C 
ATOM     16  O   UNL     1      -5.287   3.546   3.169  0.00  0.00    -0.289 OA
BRANCH  15  23
ATOM     17  C   UNL     1      -2.481   3.350   3.130  0.00  0.00    +0.047 C 
ATOM     18  C   UNL     1      -2.916   2.921   1.752  0.00  0.00    -0.012 A 
ATOM     19  C   UNL     1      -2.075   2.515   0.691  0.00  0.00    +0.041 A 
ATOM     20  C   UNL     1      -2.895   2.216  -0.388  0.00  0.00    +0.024 A 
ATOM     21  N   UNL     1      -4.170   2.414  -0.025  0.00  0.00    -0.355 N 
ATOM     22  H   UNL     1      -4.943   2.276  -0.594  0.00  0.00    +0.166 HD
ATOM     23  C   UNL     1      -4.210   2.851   1.284  0.00  0.00    +0.087 A 
ATOM     24  C   UNL     1      -2.430   1.744  -1.741  0.00  0.00    +0.064 C 
BRANCH  19  25
ATOM     25  C   UNL     1      -0.612   2.430   0.723  0.00  0.00    +0.162 C 
ATOM     26  O   UNL     1       0.058   3.415   0.492  0.00  0.00    -0.292 OA
ATOM     27  C   UNL     1       0.061   1.120   1.042  0.00  0.00    +0.091 C 
ENDBRANCH  19  25
ENDBRANCH  15  23
ENDBRANCH  13  15
ENDBRANCH  12  13
ENDBRANCH   1  12
BRANCH   4  28
ATOM     28  C   UNL     1     -12.915   1.865   0.868  0.00  0.00    -0.001 C 
BRANCH  28  33
ATOM     29  C   UNL     1     -13.277   4.078  -0.081  0.00  0.00    -0.078 C 
ATOM     30  C   UNL     1     -14.472   5.064  -0.123  0.00  0.00    -0.020 C 
ATOM     31  C   UNL     1     -15.688   4.144   0.129  0.00  0.00    -0.020 C 
ATOM     32  C   UNL     1     -15.113   2.900   0.831  0.00  0.00    -0.078 C 
ATOM     33  N   UNL     1     -13.678   3.145   0.983  0.00  0.00    +0.384 N 
ATOM     34  H   UNL     1     -13.493   3.565   1.901  0.00  0.00    -0.081 HD
ENDBRANCH  28  33
ENDBRANCH   4  28
TORSDOF 8
