REMARK  Name = ZINC08191000
REMARK  9 active torsions:
REMARK  status: ('A' for Active; 'I' for Inactive)
REMARK    1  A    between atoms: C_1  and  C_2
REMARK    2  A    between atoms: C_2  and  C_3
REMARK    3  A    between atoms: C_2  and  C_4
REMARK    4  A    between atoms: C_4  and  C_6
REMARK    5  A    between atoms: C_4  and  N_23
REMARK    6  A    between atoms: N_8  and  N_9
REMARK    7  A    between atoms: C_10  and  C_12
REMARK    8  A    between atoms: C_12  and  C_13
REMARK    9  A    between atoms: C_24  and  C_26
REMARK                            x       y       z     vdW  Elec       q    Type
REMARK                         _______ _______ _______ _____ _____    ______ ____
ROOT
ATOM      1  C   UNL     1      -1.156  -0.694   0.009  0.00  0.00    +0.250 C 
ATOM      2  O   UNL     1      -2.214  -0.102   0.023  0.00  0.00    -0.272 OA
ATOM      3  N   UNL     1       0.002  -0.004   0.002  0.00  0.00    -0.233 N 
ATOM      4  H   UNL     1       0.849  -0.478  -0.009  0.00  0.00    +0.173 HD
ENDROOT
BRANCH   3   5
ATOM      5  N   UNL     1      -0.017   1.397   0.010  0.00  0.00    -0.234 N 
ATOM      6  C   UNL     1       1.141   2.087   0.002  0.00  0.00    +0.230 C 
ATOM      7  O   UNL     1       2.199   1.494  -0.011  0.00  0.00    -0.274 OA
ATOM      8  H   UNL     1      -0.864   1.870   0.016  0.00  0.00    +0.173 HD
BRANCH   6   9
ATOM      9  C   UNL     1       1.121   3.593   0.011  0.00  0.00    +0.104 C 
BRANCH   9  10
ATOM     10  C   UNL     1       2.556   4.123  -0.000  0.00  0.00    -0.020 C 
ATOM     11  C   UNL     1       3.296   3.616   1.239  0.00  0.00    +0.011 C 
ATOM     12  C   UNL     1       4.731   4.146   1.228  0.00  0.00    -0.010 C 
ATOM     13  C   UNL     1       4.711   5.676   1.237  0.00  0.00    +0.007 C 
ATOM     14  C   UNL     1       3.971   6.182  -0.003  0.00  0.00    -0.010 C 
ATOM     15  C   UNL     1       2.535   5.653   0.008  0.00  0.00    +0.011 C 
ATOM     16  C   UNL     1       4.687   5.689  -1.262  0.00  0.00    +0.007 C 
ATOM     17  C   UNL     1       4.707   4.159  -1.270  0.00  0.00    -0.010 C 
ATOM     18  C   UNL     1       5.447   3.652  -0.030  0.00  0.00    +0.007 C 
ATOM     19  C   UNL     1       3.272   3.630  -1.259  0.00  0.00    +0.011 C 
ENDBRANCH   9  10
ENDBRANCH   6   9
ENDBRANCH   3   5
BRANCH   1  20
ATOM     20  C   UNL     1      -1.135  -2.201   0.001  0.00  0.00    +0.163 C 
BRANCH  20  21
ATOM     21  N   UNL     1      -2.510  -2.708   0.011  0.00  0.00    -0.297 N 
ATOM     22  C   UNL     1      -2.771  -3.936   0.501  0.00  0.00    +0.280 C 
ATOM     23  O   UNL     1      -1.865  -4.624   0.934  0.00  0.00    -0.267 OA
ATOM     24  H   UNL     1      -3.232  -2.159  -0.334  0.00  0.00    +0.150 HD
BRANCH  22  25
ATOM     25  C   UNL     1      -4.147  -4.444   0.511  0.00  0.00    +0.189 A 
ATOM     26  C   UNL     1      -4.549  -5.663   0.975  0.00  0.00    +0.054 A 
ATOM     27  C   UNL     1      -5.939  -5.726   0.793  0.00  0.00    +0.042 A 
ATOM     28  C   UNL     1      -6.320  -4.557   0.233  0.00  0.00    +0.196 A 
ATOM     29  O   UNL     1      -5.238  -3.785   0.069  0.00  0.00    -0.458 OA
ENDBRANCH  22  25
ENDBRANCH  20  21
BRANCH  20  31
ATOM     30  C   UNL     1      -0.399  -4.224  -1.266  0.00  0.00    +0.009 C 
ATOM     31  C   UNL     1      -0.419  -2.694  -1.258  0.00  0.00    +0.012 C 
ATOM     32  C   UNL     1      -1.159  -2.187  -2.497  0.00  0.00    +0.009 C 
ENDBRANCH  20  31
ENDBRANCH   1  20
TORSDOF 7
