REMARK  Name = ZINC16572008
REMARK  7 active torsions:
REMARK  status: ('A' for Active; 'I' for Inactive)
REMARK    1  A    between atoms: C_4  and  C_7
REMARK    2  A    between atoms: C_7  and  C_8
REMARK    3  A    between atoms: C_8  and  C_10
REMARK    4  A    between atoms: C_8  and  N_25
REMARK    5  A    between atoms: C_16  and  C_18
REMARK    6  A    between atoms: C_26  and  C_28
REMARK    7  A    between atoms: C_32  and  N_34
REMARK                            x       y       z     vdW  Elec       q    Type
REMARK                         _______ _______ _______ _____ _____    ______ ____
ROOT
ATOM      1  C   UNL     1       1.068   7.478   0.029  0.00  0.00    +0.164 C 
ENDROOT
BRANCH   1   2
ATOM      2  C   UNL     1       2.354   7.995   0.619  0.00  0.00    +0.239 C 
ATOM      3  O   UNL     1       3.204   7.216   0.997  0.00  0.00    -0.273 OA
ATOM      4  N   UNL     1       2.561   9.322   0.728  0.00  0.00    -0.262 N 
ATOM      5  C   UNL     1       3.747   9.799   1.272  0.00  0.00    +0.188 A 
ATOM      6  N   UNL     1       4.786   9.129   1.744  0.00  0.00    -0.125 NA
ATOM      7  N   UNL     1       5.803   9.714   2.208  0.00  0.00    -0.140 NA
ATOM      8  C   UNL     1       5.856  11.040   2.246  0.00  0.00    +0.134 A 
ATOM      9  S   UNL     1       4.267  11.438   1.527  0.00  0.00    -0.030 S 
ATOM     10  H   UNL     1       1.881   9.945   0.425  0.00  0.00    +0.157 HD
BRANCH   8  11
ATOM     11  C   UNL     1       6.924  11.933   2.743  0.00  0.00    +0.010 A 
ATOM     12  C   UNL     1       8.098  11.395   3.272  0.00  0.00    +0.011 A 
ATOM     13  C   UNL     1       9.091  12.234   3.733  0.00  0.00    +0.002 A 
ATOM     14  C   UNL     1       8.926  13.606   3.673  0.00  0.00    +0.020 A 
ATOM     15  C   UNL     1       7.764  14.147   3.150  0.00  0.00    +0.042 A 
ATOM     16  C   UNL     1       6.764  13.318   2.680  0.00  0.00    +0.030 A 
ATOM     17 CL   UNL     1       7.565  15.870   3.079  0.00  0.00    -0.084 Cl
ENDBRANCH   8  11
ENDBRANCH   1   2
BRANCH   1  18
ATOM     18  N   UNL     1       1.088   6.013   0.022  0.00  0.00    -0.300 N 
ATOM     19  C   UNL     1      -0.070   5.323   0.029  0.00  0.00    +0.245 C 
ATOM     20  O   UNL     1      -1.131   5.916   0.042  0.00  0.00    -0.270 OA
ATOM     21  H   UNL     1       1.934   5.539   0.011  0.00  0.00    +0.150 HD
BRANCH  19  22
ATOM     22  C   UNL     1      -0.050   3.845   0.022  0.00  0.00    +0.039 A 
ATOM     23  C   UNL     1       1.166   3.160   0.007  0.00  0.00    +0.013 A 
ATOM     24  C   UNL     1       1.178   1.781   0.000  0.00  0.00    +0.003 A 
ATOM     25  C   UNL     1      -0.013   1.076   0.008  0.00  0.00    +0.033 A 
ATOM     26  C   UNL     1      -1.222   1.748   0.017  0.00  0.00    +0.127 A 
ATOM     27  C   UNL     1      -1.247   3.128   0.030  0.00  0.00    +0.045 A 
BRANCH  26  28
ATOM     28  N   UNL     1      -2.490   0.986   0.019  0.00  0.00    +0.056 N 
ATOM     29  O   UNL     1      -2.469  -0.232   0.013  0.00  0.00    -0.126 OA
ATOM     30  O   UNL     1      -3.556   1.576   0.028  0.00  0.00    -0.126 OA
ENDBRANCH  26  28
ENDBRANCH  19  22
ENDBRANCH   1  18
BRANCH   1  31
ATOM     31  C   UNL     1       0.922   7.993  -1.405  0.00  0.00    +0.067 C 
BRANCH  31  35
ATOM     32  C   UNL     1      -2.880   6.819  -2.959  0.00  0.00    +0.000 A 
ATOM     33  C   UNL     1      -2.748   8.023  -2.293  0.00  0.00    +0.000 A 
ATOM     34  C   UNL     1      -1.517   8.403  -1.790  0.00  0.00    +0.004 A 
ATOM     35  C   UNL     1      -0.420   7.578  -1.953  0.00  0.00    -0.045 A 
ATOM     36  C   UNL     1      -0.551   6.376  -2.623  0.00  0.00    +0.004 A 
ATOM     37  C   UNL     1      -1.783   5.994  -3.121  0.00  0.00    +0.000 A 
ENDBRANCH  31  35
ENDBRANCH   1  31
TORSDOF 7
