REMARK  Name = ZINC05377560
REMARK  3 active torsions:
REMARK  status: ('A' for Active; 'I' for Inactive)
REMARK    1  A    between atoms: C_4  and  N_7
REMARK    2  A    between atoms: C_16  and  C_30
REMARK    3  A    between atoms: N_31  and  O_32
REMARK                            x       y       z     vdW  Elec       q    Type
REMARK                         _______ _______ _______ _____ _____    ______ ____
ROOT
ATOM      1  N   UNL     1       3.626  -0.654  -0.103  0.00  0.00    -0.210 N 
ATOM      2  C   UNL     1       4.845  -0.026  -0.092  0.00  0.00    +0.231 C 
ATOM      3  O   UNL     1       5.108   1.100   0.274  0.00  0.00    -0.274 OA
ATOM      4  C   UNL     1       5.798  -1.090  -0.655  0.00  0.00    +0.101 C 
ATOM      5  C   UNL     1       5.155  -2.224   0.225  0.00  0.00    +0.109 C 
ATOM      6  C   UNL     1       3.732  -2.025  -0.097  0.00  0.00    +0.232 C 
ATOM      7  O   UNL     1       2.875  -2.857  -0.304  0.00  0.00    -0.274 OA
ATOM      8  C   UNL     1       5.957  -3.520   0.113  0.00  0.00    +0.071 C 
ATOM      9  C   UNL     1       6.836  -3.106   1.343  0.00  0.00    -0.027 A 
ATOM     10  C   UNL     1       7.096  -3.932   2.387  0.00  0.00    +0.005 A 
ATOM     11  C   UNL     1       7.811  -3.416   3.465  0.00  0.00    +0.000 A 
ATOM     12  C   UNL     1       8.217  -2.095   3.448  0.00  0.00    +0.000 A 
ATOM     13  C   UNL     1       7.966  -1.279   2.356  0.00  0.00    +0.004 A 
ATOM     14  C   UNL     1       7.304  -1.807   1.267  0.00  0.00    -0.035 A 
ATOM     15  C   UNL     1       7.252  -1.008  -0.057  0.00  0.00    +0.062 C 
ATOM     16  C   UNL     1       7.774  -2.122  -1.006  0.00  0.00    -0.035 A 
ATOM     17  C   UNL     1       7.052  -3.326  -0.966  0.00  0.00    -0.027 A 
ATOM     18  C   UNL     1       7.341  -4.334  -1.857  0.00  0.00    +0.005 A 
ATOM     19  C   UNL     1       8.382  -4.153  -2.755  0.00  0.00    +0.000 A 
ATOM     20  C   UNL     1       9.126  -2.988  -2.755  0.00  0.00    +0.000 A 
ATOM     21  C   UNL     1       8.819  -1.938  -1.862  0.00  0.00    +0.004 A 
ENDROOT
BRANCH   1  25
ATOM     22  C   UNL     1      -0.014   1.377  -0.135  0.00  0.00    +0.000 A 
ATOM     23  C   UNL     1       1.172   2.087  -0.130  0.00  0.00    +0.002 A 
ATOM     24  C   UNL     1       2.380   1.417  -0.119  0.00  0.00    +0.024 A 
ATOM     25  C   UNL     1       2.402   0.029  -0.113  0.00  0.00    +0.044 A 
ATOM     26  C   UNL     1       1.209  -0.682  -0.118  0.00  0.00    +0.024 A 
ATOM     27  C   UNL     1       0.005  -0.006  -0.129  0.00  0.00    +0.002 A 
ENDBRANCH   1  25
BRANCH   8  28
ATOM     28  C   UNL     1       5.203  -4.825   0.118  0.00  0.00    +0.142 C 
ATOM     29  N   UNL     1       5.514  -5.739   0.958  0.00  0.00    -0.099 NA
BRANCH  29  30
ATOM     30  O   UNL     1       4.805  -6.965   0.963  0.00  0.00    -0.409 OA
ATOM     31  H   UNL     1       5.111  -7.594   1.631  0.00  0.00    +0.328 HD
ENDBRANCH  29  30
ENDBRANCH   8  28
TORSDOF 3
