REMARK  Name = ZINC19892694
REMARK  16 active torsions:
REMARK  status: ('A' for Active; 'I' for Inactive)
REMARK    1  A    between atoms: C_1  and  C_2
REMARK    2  A    between atoms: C_2  and  C_3
REMARK    3  A    between atoms: C_3  and  C_4
REMARK    4  A    between atoms: C_4  and  O_5
REMARK    5  A    between atoms: O_5  and  C_6
REMARK    6  A    between atoms: C_6  and  C_8
REMARK    7  A    between atoms: C_9  and  C_40
REMARK    8  A    between atoms: C_13  and  C_15
REMARK    9  A    between atoms: C_20  and  O_21
REMARK   10  A    between atoms: O_21  and  C_22
REMARK   11  A    between atoms: C_22  and  C_23
REMARK   12  A    between atoms: C_27  and  C_30
REMARK   13  A    between atoms: C_33  and  O_38
REMARK   14  A    between atoms: C_34  and  O_36
REMARK   15  A    between atoms: O_36  and  C_37
REMARK   16  A    between atoms: O_38  and  C_39
REMARK                            x       y       z     vdW  Elec       q    Type
REMARK                         _______ _______ _______ _____ _____    ______ ____
ROOT
ATOM      1  C   UNL     1       1.375   2.062   0.000  0.00  0.00    +0.065 C 
ATOM      2  C   UNL     1       2.433   1.303   0.334  0.00  0.00    +0.016 C 
ATOM      3  N   UNL     1       2.261  -0.007   0.685  0.00  0.00    -0.321 N 
ATOM      4  C   UNL     1       1.122  -0.680   0.334  0.00  0.00    +0.016 C 
ATOM      5  C   UNL     1       0.002  -0.004   0.002  0.00  0.00    +0.024 C 
ATOM      6  C   UNL     1      -0.018   1.504   0.010  0.00  0.00    +0.096 C 
ATOM      7  C   UNL     1      -1.175  -0.683  -0.358  0.00  0.00    +0.162 C 
ATOM      8  O   UNL     1      -2.163  -0.044  -0.664  0.00  0.00    -0.292 OA
ATOM      9  C   UNL     1      -1.235  -2.186  -0.370  0.00  0.00    +0.088 C 
ATOM     10  C   UNL     1      -0.238  -2.733   0.657  0.00  0.00    +0.032 C 
ATOM     11  C   UNL     1       1.152  -2.189   0.322  0.00  0.00    +0.059 C 
ATOM     12  C   UNL     1       3.816   1.900   0.321  0.00  0.00    +0.061 C 
ATOM     13  H   UNL     1       3.043  -0.530   1.256  0.00  0.00    +0.152 HD
ENDROOT
BRANCH   6  14
ATOM     14  C   UNL     1      -0.734   1.982   1.248  0.00  0.00    +0.006 A 
ATOM     15  C   UNL     1      -0.254   1.644   2.498  0.00  0.00    +0.008 A 
ATOM     16  C   UNL     1      -0.909   2.082   3.633  0.00  0.00    +0.001 A 
ATOM     17  C   UNL     1      -2.047   2.861   3.521  0.00  0.00    +0.004 A 
ATOM     18  C   UNL     1      -2.530   3.202   2.273  0.00  0.00    +0.046 A 
ATOM     19  C   UNL     1      -1.871   2.767   1.132  0.00  0.00    +0.125 A 
BRANCH  19  20
ATOM     20  O   UNL     1      -2.342   3.106  -0.097  0.00  0.00    -0.492 OA
BRANCH  20  21
ATOM     21  C   UNL     1      -3.518   3.917  -0.140  0.00  0.00    +0.225 C 
ATOM     22  C   UNL     1      -3.894   4.193  -1.597  0.00  0.00    +0.048 C 
ENDBRANCH  20  21
ENDBRANCH  19  20
ENDBRANCH   6  14
BRANCH  10  23
ATOM     23  C   UNL     1      -0.220  -4.239   0.599  0.00  0.00    -0.040 A 
ATOM     24  C   UNL     1       0.113  -4.880  -0.580  0.00  0.00    +0.008 A 
ATOM     25  C   UNL     1       0.131  -6.261  -0.637  0.00  0.00    +0.049 A 
ATOM     26  C   UNL     1      -0.184  -7.006   0.488  0.00  0.00    +0.161 A 
ATOM     27  C   UNL     1      -0.518  -6.361   1.674  0.00  0.00    +0.162 A 
ATOM     28  C   UNL     1      -0.530  -4.976   1.727  0.00  0.00    +0.053 A 
BRANCH  27  29
ATOM     29  O   UNL     1      -0.828  -7.087   2.781  0.00  0.00    -0.491 OA
ATOM     30  C   UNL     1      -1.161  -6.358   3.964  0.00  0.00    +0.277 C 
ENDBRANCH  27  29
BRANCH  26  31
ATOM     31  O   UNL     1      -0.166  -8.364   0.432  0.00  0.00    -0.491 OA
ATOM     32  C   UNL     1       0.186  -8.958  -0.819  0.00  0.00    +0.277 C 
ENDBRANCH  26  31
ENDBRANCH  10  23
BRANCH   1  33
ATOM     33  C   UNL     1       1.578   3.412  -0.368  0.00  0.00    +0.338 C 
ATOM     34  O   UNL     1       2.703   3.876  -0.381  0.00  0.00    -0.245 OA
BRANCH  33  35
ATOM     35  O   UNL     1       0.525   4.185  -0.706  0.00  0.00    -0.461 OA
BRANCH  35  36
ATOM     36  C   UNL     1       0.804   5.540  -1.068  0.00  0.00    +0.232 C 
BRANCH  36  37
ATOM     37  C   UNL     1      -0.503   6.254  -1.416  0.00  0.00    +0.041 C 
BRANCH  37  39
ATOM     38  C   UNL     1      -1.511   8.419  -2.151  0.00  0.00    +0.004 C 
ATOM     39  C   UNL     1      -0.204   7.704  -1.803  0.00  0.00    -0.000 C 
ENDBRANCH  37  39
ENDBRANCH  36  37
ENDBRANCH  35  36
ENDBRANCH  33  35
ENDBRANCH   1  33
TORSDOF 11
