REMARK  Name = ZINC12211530
REMARK  11 active torsions:
REMARK  status: ('A' for Active; 'I' for Inactive)
REMARK    1  A    between atoms: C_1  and  C_2
REMARK    2  A    between atoms: C_4  and  C_16
REMARK    3  A    between atoms: C_8  and  O_14
REMARK    4  A    between atoms: C_11  and  O_12
REMARK    5  A    between atoms: O_12  and  C_13
REMARK    6  A    between atoms: O_14  and  C_15
REMARK    7  A    between atoms: C_20  and  O_22
REMARK    8  A    between atoms: O_22  and  C_23
REMARK    9  A    between atoms: C_28  and  C_29
REMARK   10  A    between atoms: C_28  and  N_66
REMARK   11  A    between atoms: C_32  and  O_35
REMARK                            x       y       z     vdW  Elec       q    Type
REMARK                         _______ _______ _______ _____ _____    ______ ____
ROOT
ATOM      1  C   UNL     1       3.756   3.122   0.022  0.00  0.00    +0.004 A 
ATOM      2  C   UNL     1       3.297   2.451  -1.113  0.00  0.00    +0.015 A 
ATOM      3  C   UNL     1       2.062   1.844  -1.092  0.00  0.00    -0.018 A 
ATOM      4  C   UNL     1       1.278   1.874   0.046  0.00  0.00    +0.163 A 
ATOM      5  C   UNL     1       1.725   2.551   1.180  0.00  0.00    +0.162 A 
ATOM      6  C   UNL     1       2.960   3.173   1.166  0.00  0.00    +0.059 A 
ATOM      7  O   UNL     1       0.076   1.238   0.065  0.00  0.00    -0.490 OA
ATOM      8  C   UNL     1       0.139  -0.194   0.037  0.00  0.00    +0.211 C 
ATOM      9  C   UNL     1       0.241  -0.697  -1.387  0.00  0.00    -0.036 C 
ATOM     10  C   UNL     1       1.541   1.135  -2.329  0.00  0.00    -0.039 C 
ATOM     11  N   UNL     1       1.512  -0.319  -2.040  0.00  0.00    +0.387 N 
ATOM     12  H   UNL     1       2.288  -0.545  -1.407  0.00  0.00    -0.081 HD
ENDROOT
BRANCH   1  16
ATOM     13  C   UNL     1       7.345   5.587   2.453  0.00  0.00    +0.044 C 
ATOM     14  C   UNL     1       6.797   4.960   1.197  0.00  0.00    -0.036 A 
ATOM     15  C   UNL     1       5.573   4.359   1.192  0.00  0.00    +0.032 A 
ATOM     16  C   UNL     1       5.086   3.777   0.012  0.00  0.00    +0.072 A 
ATOM     17  N   UNL     1       5.782   3.804  -1.109  0.00  0.00    -0.243 NA
ATOM     18  C   UNL     1       6.984   4.384  -1.163  0.00  0.00    +0.117 A 
ATOM     19  C   UNL     1       7.533   4.984  -0.003  0.00  0.00    +0.049 A 
ATOM     20  C   UNL     1       8.801   5.594  -0.069  0.00  0.00    +0.130 A 
ATOM     21  C   UNL     1       9.491   5.599  -1.260  0.00  0.00    +0.050 A 
ATOM     22  C   UNL     1       8.949   5.008  -2.398  0.00  0.00    +0.051 A 
ATOM     23  C   UNL     1       7.722   4.409  -2.365  0.00  0.00    +0.146 A 
BRANCH  23  24
ATOM     24  O   UNL     1       7.213   3.838  -3.489  0.00  0.00    -0.493 OA
ATOM     25  C   UNL     1       8.015   3.901  -4.669  0.00  0.00    +0.277 C 
ENDBRANCH  23  24
BRANCH  20  26
ATOM     26  O   UNL     1       9.339   6.174   1.036  0.00  0.00    -0.494 OA
ATOM     27  C   UNL     1      10.629   6.773   0.891  0.00  0.00    +0.277 C 
ENDBRANCH  20  26
ENDBRANCH   1  16
BRANCH   5  28
ATOM     28  O   UNL     1       0.949   2.600   2.295  0.00  0.00    -0.491 OA
ATOM     29  C   UNL     1       1.472   3.312   3.419  0.00  0.00    +0.277 C 
ENDBRANCH   5  28
BRANCH  11  30
ATOM     30  C   UNL     1       1.679  -1.082  -3.288  0.00  0.00    -0.042 C 
BRANCH  30  31
ATOM     31  C   UNL     1       1.905  -2.530  -2.936  0.00  0.00    -0.064 A 
ATOM     32  C   UNL     1       3.188  -2.994  -2.714  0.00  0.00    +0.005 A 
ATOM     33  C   UNL     1       3.397  -4.320  -2.386  0.00  0.00    +0.045 A 
ATOM     34  C   UNL     1       2.320  -5.188  -2.291  0.00  0.00    +0.117 A 
ATOM     35  C   UNL     1       1.033  -4.721  -2.519  0.00  0.00    +0.045 A 
ATOM     36  C   UNL     1       0.829  -3.393  -2.841  0.00  0.00    +0.005 A 
BRANCH  34  37
ATOM     37  O   UNL     1       2.523  -6.494  -1.973  0.00  0.00    -0.507 OA
ATOM     38  H   UNL     1       2.663  -7.067  -2.739  0.00  0.00    +0.292 HD
ENDBRANCH  34  37
ENDBRANCH  30  31
ENDBRANCH  11  30
TORSDOF 7
