REMARK  Name = ZINC14233099
REMARK  8 active torsions:
REMARK  status: ('A' for Active; 'I' for Inactive)
REMARK    1  A    between atoms: C_1  and  C_2
REMARK    2  A    between atoms: C_4  and  C_28
REMARK    3  A    between atoms: C_9  and  C_10
REMARK    4  A    between atoms: C_10  and  N_11
REMARK    5  A    between atoms: C_14  and  C_27
REMARK    6  A    between atoms: C_15  and  C_26
REMARK    7  A    between atoms: C_19  and  C_21
REMARK    8  A    between atoms: C_21  and  N_55
REMARK                            x       y       z     vdW  Elec       q    Type
REMARK                         _______ _______ _______ _____ _____    ______ ____
ROOT
ATOM      1  N   UNL     1       2.005  -2.694   1.473  0.00  0.00    -0.324 N 
ATOM      2  C   UNL     1       1.935  -4.056   1.707  0.00  0.00    +0.131 A 
ATOM      3  C   UNL     1       1.550  -4.549   2.984  0.00  0.00    +0.051 A 
ATOM      4  C   UNL     1       1.185  -3.824   4.188  0.00  0.00    -0.028 A 
ATOM      5  C   UNL     1       0.853  -4.511   5.291  0.00  0.00    -0.008 A 
ATOM      6  S   UNL     1       1.008  -6.213   4.784  0.00  0.00    -0.074 S 
ATOM      7  C   UNL     1       1.515  -5.955   3.104  0.00  0.00    +0.114 A 
ATOM      8  N   UNL     1       1.823  -6.740   2.090  0.00  0.00    -0.227 NA
ATOM      9  C   UNL     1       2.174  -6.223   0.929  0.00  0.00    +0.116 A 
ATOM     10  N   UNL     1       2.222  -4.916   0.743  0.00  0.00    -0.219 NA
ATOM     11  C   UNL     1       0.446  -3.972   6.638  0.00  0.00    +0.052 C 
ATOM     12  C   UNL     1       1.181  -2.317   4.199  0.00  0.00    +0.045 C 
ATOM     13  H   UNL     1       1.704  -2.070   2.152  0.00  0.00    +0.148 HD
ENDROOT
BRANCH   1  14
ATOM     14  C   UNL     1       2.532  -2.195   0.201  0.00  0.00    +0.144 C 
BRANCH  14  23
ATOM     15  C   UNL     1       4.870  -0.685   0.968  0.00  0.00    +0.044 C 
ATOM     16  C   UNL     1       3.604   0.025   0.562  0.00  0.00    -0.039 A 
ATOM     17  C   UNL     1       3.549   1.426   0.553  0.00  0.00    +0.024 A 
ATOM     18  C   UNL     1       2.407   2.055   0.188  0.00  0.00    +0.016 A 
ATOM     19  N   UNL     1       1.309   1.343  -0.172  0.00  0.00    -0.326 N 
ATOM     20  H   UNL     1       0.500   1.810  -0.435  0.00  0.00    +0.169 HD
ATOM     21  C   UNL     1       1.331  -0.003  -0.173  0.00  0.00    +0.254 A 
ATOM     22  O   UNL     1       0.335  -0.629  -0.500  0.00  0.00    -0.268 OA
ATOM     23  C   UNL     1       2.499  -0.688   0.201  0.00  0.00    +0.037 A 
ATOM     24  C   UNL     1       2.356   3.561   0.180  0.00  0.00    +0.063 C 
ENDBRANCH  14  23
ENDBRANCH   1  14
BRANCH   9  25
ATOM     25  C   UNL     1       2.520  -7.143  -0.213  0.00  0.00    -0.001 C 
BRANCH  25  30
ATOM     26  C   UNL     1       0.610  -6.195  -1.389  0.00  0.00    -0.078 C 
ATOM     27  C   UNL     1      -0.275  -6.651  -2.576  0.00  0.00    -0.020 C 
ATOM     28  C   UNL     1       0.625  -7.676  -3.304  0.00  0.00    -0.020 C 
ATOM     29  C   UNL     1       1.639  -8.144  -2.244  0.00  0.00    -0.078 C 
ATOM     30  N   UNL     1       1.291  -7.443  -1.008  0.00  0.00    +0.384 N 
ATOM     31  H   UNL     1       0.659  -8.025  -0.445  0.00  0.00    -0.081 HD
ENDBRANCH  25  30
ENDBRANCH   9  25
TORSDOF 4
