REMARK  Name = ZINC06078351
REMARK  17 active torsions:
REMARK  status: ('A' for Active; 'I' for Inactive)
REMARK    1  A    between atoms: C_1  and  C_2
REMARK    2  A    between atoms: C_2  and  N_68
REMARK    3  A    between atoms: C_3  and  C_4
REMARK    4  A    between atoms: C_3  and  N_68
REMARK    5  A    between atoms: C_5  and  C_6
REMARK    6  A    between atoms: C_5  and  N_68
REMARK    7  A    between atoms: C_6  and  N_7
REMARK    8  A    between atoms: N_7  and  C_8
REMARK    9  A    between atoms: N_7  and  C_24
REMARK   10  A    between atoms: C_8  and  C_9
REMARK   11  A    between atoms: C_13  and  O_21
REMARK   12  A    between atoms: O_21  and  C_22
REMARK   13  A    between atoms: C_22  and  C_23
REMARK   14  A    between atoms: C_24  and  N_26
REMARK   15  A    between atoms: N_26  and  C_27
REMARK   16  A    between atoms: C_32  and  O_33
REMARK   17  A    between atoms: O_33  and  C_34
REMARK                            x       y       z     vdW  Elec       q    Type
REMARK                         _______ _______ _______ _____ _____    ______ ____
ROOT
ATOM      1  N   UNL     1      -0.016  -0.131   0.099  0.00  0.00    -0.310 N 
ENDROOT
BRANCH   1   2
ATOM      2  C   UNL     1       0.041   1.209   0.225  0.00  0.00    +0.137 C 
ATOM      3  S   UNL     1       1.545   1.981   0.496  0.00  0.00    -0.018 S 
BRANCH   2   4
ATOM      4  N   UNL     1      -1.086   1.943   0.131  0.00  0.00    -0.294 N 
ATOM      5  H   UNL     1      -1.946   1.503   0.052  0.00  0.00    +0.154 HD
BRANCH   4   6
ATOM      6  C   UNL     1      -1.014   3.342   0.145  0.00  0.00    +0.075 A 
ATOM      7  C   UNL     1      -0.047   3.997  -0.603  0.00  0.00    +0.027 A 
ATOM      8  C   UNL     1       0.019   5.378  -0.591  0.00  0.00    +0.002 A 
ATOM      9  C   UNL     1      -0.871   6.109   0.175  0.00  0.00    +0.004 A 
ATOM     10  C   UNL     1      -1.833   5.463   0.928  0.00  0.00    +0.047 A 
ATOM     11  C   UNL     1      -1.909   4.080   0.917  0.00  0.00    +0.141 A 
BRANCH  11  12
ATOM     12  O   UNL     1      -2.855   3.443   1.658  0.00  0.00    -0.493 OA
ATOM     13  C   UNL     1      -3.740   4.263   2.424  0.00  0.00    +0.277 C 
ENDBRANCH  11  12
ENDBRANCH   4   6
ENDBRANCH   2   4
ENDBRANCH   1   2
BRANCH   1  14
ATOM     14  C   UNL     1      -1.313  -0.801  -0.024  0.00  0.00    +0.088 C 
BRANCH  14  15
ATOM     15  C   UNL     1      -1.697  -0.903  -1.501  0.00  0.00    -0.060 C 
BRANCH  15  16
ATOM     16  N   UNL     1      -2.933  -1.706  -1.615  0.00  0.00    +0.380 N 
ATOM     17  H   UNL     1      -2.869  -2.508  -0.978  0.00  0.00    -0.082 HD
BRANCH  16  19
ATOM     18  C   UNL     1      -5.333  -1.793  -1.149  0.00  0.00    -0.017 C 
ATOM     19  C   UNL     1      -4.104  -0.886  -1.239  0.00  0.00    -0.082 C 
ENDBRANCH  16  19
BRANCH  16  20
ATOM     20  C   UNL     1      -3.087  -2.203  -2.998  0.00  0.00    -0.082 C 
ATOM     21  C   UNL     1      -2.146  -3.392  -3.200  0.00  0.00    -0.017 C 
ENDBRANCH  16  20
ENDBRANCH  15  16
ENDBRANCH  14  15
ENDBRANCH   1  14
BRANCH   1  22
ATOM     22  C   UNL     1       1.220  -0.919   0.085  0.00  0.00    +0.147 C 
BRANCH  22  23
ATOM     23  C   UNL     1       1.514  -1.417   1.476  0.00  0.00    +0.035 A 
ATOM     24  C   UNL     1       2.342  -0.711   2.286  0.00  0.00    +0.020 A 
ATOM     25  C   UNL     1       2.604  -1.219   3.634  0.00  0.00    +0.002 A 
ATOM     26  C   UNL     1       3.445  -0.531   4.514  0.00  0.00    +0.055 A 
ATOM     27  C   UNL     1       3.675  -1.041   5.776  0.00  0.00    +0.121 A 
ATOM     28  C   UNL     1       3.073  -2.233   6.173  0.00  0.00    +0.047 A 
ATOM     29  C   UNL     1       2.243  -2.920   5.315  0.00  0.00    +0.030 A 
ATOM     30  C   UNL     1       1.998  -2.424   4.039  0.00  0.00    +0.049 A 
ATOM     31  N   UNL     1       1.169  -3.097   3.164  0.00  0.00    -0.322 N 
ATOM     32  H   UNL     1       0.739  -3.952   3.453  0.00  0.00    +0.169 HD
ATOM     33  C   UNL     1       0.931  -2.619   1.930  0.00  0.00    +0.254 A 
ATOM     34  O   UNL     1       0.193  -3.240   1.185  0.00  0.00    -0.268 OA
BRANCH  27  35
ATOM     35  O   UNL     1       4.492  -0.377   6.636  0.00  0.00    -0.492 OA
BRANCH  35  36
ATOM     36  C   UNL     1       4.687  -0.959   7.926  0.00  0.00    +0.225 C 
ATOM     37  C   UNL     1       5.629  -0.076   8.746  0.00  0.00    +0.048 C 
ENDBRANCH  35  36
ENDBRANCH  27  35
ENDBRANCH  22  23
ENDBRANCH   1  22
TORSDOF 13
