REMARK  Name = ZINC20837782
REMARK  9 active torsions:
REMARK  status: ('A' for Active; 'I' for Inactive)
REMARK    1  A    between atoms: C_1  and  C_2
REMARK    2  A    between atoms: N_5  and  S_8
REMARK    3  A    between atoms: S_8  and  C_11
REMARK    4  A    between atoms: C_14  and  N_17
REMARK    5  A    between atoms: C_18  and  C_20
REMARK    6  A    between atoms: C_20  and  C_21
REMARK    7  A    between atoms: C_21  and  S_22
REMARK    8  A    between atoms: S_22  and  C_23
REMARK    9  A    between atoms: N_29  and  N_30
REMARK                            x       y       z     vdW  Elec       q    Type
REMARK                         _______ _______ _______ _____ _____    ______ ____
ROOT
ATOM      1  N   UNL     1       0.080  -9.073  -0.004  0.00  0.00    -0.285 N 
ATOM      2  C   UNL     1       1.285  -9.625   0.241  0.00  0.00    +0.218 C 
ATOM      3  O   UNL     1       2.083  -9.050   0.950  0.00  0.00    -0.275 OA
ATOM      4  H   UNL     1      -0.586  -9.566  -0.509  0.00  0.00    +0.155 HD
ENDROOT
BRANCH   1   8
ATOM      5  C   UNL     1      -0.787  -5.251   1.409  0.00  0.00    +0.106 A 
ATOM      6  C   UNL     1       0.502  -5.567   1.020  0.00  0.00    +0.030 A 
ATOM      7  C   UNL     1       0.792  -6.833   0.551  0.00  0.00    +0.025 A 
ATOM      8  C   UNL     1      -0.211  -7.790   0.471  0.00  0.00    +0.033 A 
ATOM      9  C   UNL     1      -1.504  -7.470   0.863  0.00  0.00    +0.025 A 
ATOM     10  C   UNL     1      -1.788  -6.203   1.336  0.00  0.00    +0.030 A 
BRANCH   5  11
ATOM     11  S   UNL     1      -1.154  -3.635   2.007  0.00  0.00    +0.061 S 
ATOM     12  O   UNL     1      -2.544  -3.431   1.798  0.00  0.00    -0.153 OA
ATOM     13  O   UNL     1      -0.167  -2.768   1.465  0.00  0.00    -0.153 OA
BRANCH  11  18
ATOM     14  C   UNL     1      -0.983  -1.558   7.349  0.00  0.00    +0.007 C 
ATOM     15  C   UNL     1      -0.827  -2.650   6.289  0.00  0.00    -0.012 C 
ATOM     16  C   UNL     1       0.216  -2.215   5.258  0.00  0.00    +0.020 C 
ATOM     17  C   UNL     1       0.395  -3.326   4.218  0.00  0.00    +0.110 C 
ATOM     18  N   UNL     1      -0.918  -3.654   3.646  0.00  0.00    -0.177 NA
ATOM     19  C   UNL     1      -2.019  -3.998   4.556  0.00  0.00    +0.110 C 
ATOM     20  C   UNL     1      -2.170  -2.880   5.592  0.00  0.00    +0.020 C 
ENDBRANCH  11  18
ENDBRANCH   5  11
ENDBRANCH   1   8
BRANCH   2  21
ATOM     21  C   UNL     1       1.641 -10.957  -0.367  0.00  0.00    +0.107 C 
BRANCH  21  22
ATOM     22  C   UNL     1       3.054 -11.354   0.066  0.00  0.00    +0.086 C 
BRANCH  22  23
ATOM     23  S   UNL     1       3.483 -12.958  -0.666  0.00  0.00    -0.086 S 
BRANCH  23  24
ATOM     24  C   UNL     1       5.115 -13.270  -0.082  0.00  0.00    +0.190 A 
ATOM     25  N   UNL     1       5.875 -14.368  -0.371  0.00  0.00    -0.303 N 
ATOM     26  H   UNL     1       5.611 -15.112  -0.934  0.00  0.00    +0.171 HD
ATOM     27  C   UNL     1       7.074 -14.233   0.273  0.00  0.00    +0.235 A 
ATOM     28  N   UNL     1       7.055 -13.100   0.931  0.00  0.00    -0.111 NA
ATOM     29  N   UNL     1       5.817 -12.487   0.702  0.00  0.00    -0.121 NA
ATOM     30  N   UNL     1       8.126 -15.138   0.235  0.00  0.00    -0.205 N 
ATOM     31  H   UNL     1       8.046 -15.954  -0.283  0.00  0.00    +0.177 HD
BRANCH  30  32
ATOM     32  N   UNL     1       9.304 -14.873   0.946  0.00  0.00    -0.189 NA
ATOM     33  C   UNL     1      10.311 -15.655   0.832  0.00  0.00    +0.037 C 
ATOM     34  C   UNL     1      10.215 -16.914  -0.025  0.00  0.00    +0.052 C 
ATOM     35  C   UNL     1      11.489 -17.148  -0.790  0.00  0.00    +0.006 C 
ATOM     36  C   UNL     1      12.454 -17.998   0.048  0.00  0.00    +0.000 C 
ATOM     37  C   UNL     1      13.181 -17.209   1.047  0.00  0.00    +0.000 C 
ATOM     38  C   UNL     1      12.252 -16.588   2.099  0.00  0.00    +0.006 C 
ATOM     39  C   UNL     1      11.621 -15.335   1.545  0.00  0.00    +0.052 C 
ENDBRANCH  30  32
ENDBRANCH  23  24
ENDBRANCH  22  23
ENDBRANCH  21  22
ENDBRANCH   2  21
TORSDOF 8
