REMARK  Name = ZINC58378140
REMARK  9 active torsions:
REMARK  status: ('A' for Active; 'I' for Inactive)
REMARK    1  A    between atoms: C_1  and  C_2
REMARK    2  A    between atoms: C_2  and  C_3
REMARK    3  A    between atoms: C_2  and  C_4
REMARK    4  A    between atoms: C_2  and  C_5
REMARK    5  A    between atoms: C_5  and  C_6
REMARK    6  A    between atoms: C_8  and  C_18
REMARK    7  A    between atoms: C_10  and  C_15
REMARK    8  A    between atoms: N_20  and  C_21
REMARK    9  A    between atoms: C_26  and  O_27
REMARK                            x       y       z     vdW  Elec       q    Type
REMARK                         _______ _______ _______ _____ _____    ______ ____
ROOT
ATOM      1  C   UNL     1       1.980   0.179  -1.161  0.00  0.00    +0.094 A 
ATOM      2  C   UNL     1       2.322   1.486  -1.723  0.00  0.00    +0.076 A 
ATOM      3  C   UNL     1       1.569   2.547  -2.263  0.00  0.00    +0.053 A 
ATOM      4  C   UNL     1       2.260   3.671  -2.714  0.00  0.00    +0.037 A 
ATOM      5  C   UNL     1       3.642   3.699  -2.615  0.00  0.00    +0.049 A 
ATOM      6  N   UNL     1       4.319   2.692  -2.106  0.00  0.00    -0.215 NA
ATOM      7  C   UNL     1       3.721   1.598  -1.660  0.00  0.00    +0.259 A 
ATOM      8  O   UNL     1       4.181   0.457  -1.108  0.00  0.00    -0.334 OA
ATOM      9  N   UNL     1       3.091  -0.391  -0.807  0.00  0.00    -0.080 NA
ENDROOT
BRANCH   3  10
ATOM     10  C   UNL     1       0.093   2.471  -2.349  0.00  0.00    +0.249 C 
ATOM     11  O   UNL     1      -0.480   1.440  -2.057  0.00  0.00    -0.270 OA
ATOM     12  N   UNL     1      -0.614   3.545  -2.751  0.00  0.00    -0.279 N 
ATOM     13  H   UNL     1      -0.154   4.343  -3.054  0.00  0.00    +0.155 HD
BRANCH  12  14
ATOM     14  C   UNL     1      -2.014   3.509  -2.731  0.00  0.00    +0.076 A 
ATOM     15  C   UNL     1      -2.677   2.780  -1.755  0.00  0.00    +0.027 A 
ATOM     16  C   UNL     1      -4.058   2.746  -1.738  0.00  0.00    +0.002 A 
ATOM     17  C   UNL     1      -4.783   3.437  -2.692  0.00  0.00    +0.004 A 
ATOM     18  C   UNL     1      -4.129   4.165  -3.668  0.00  0.00    +0.047 A 
ATOM     19  C   UNL     1      -2.744   4.210  -3.689  0.00  0.00    +0.138 A 
BRANCH  19  20
ATOM     20  O   UNL     1      -2.100   4.931  -4.644  0.00  0.00    -0.505 OA
ATOM     21  H   UNL     1      -1.902   4.431  -5.448  0.00  0.00    +0.292 HD
ENDBRANCH  19  20
ENDBRANCH  12  14
ENDBRANCH   3  10
BRANCH   5  22
ATOM     22  C   UNL     1       4.388   4.914  -3.103  0.00  0.00    +0.038 C 
ATOM     23  C   UNL     1       3.639   5.882  -4.022  0.00  0.00    +0.010 C 
ATOM     24  C   UNL     1       4.735   4.979  -4.592  0.00  0.00    +0.010 C 
ENDBRANCH   5  22
BRANCH   1  25
ATOM     25  C   UNL     1       0.595  -0.395  -1.014  0.00  0.00    +0.065 C 
BRANCH  25  27
ATOM     26  C   UNL     1       1.343  -1.602   1.042  0.00  0.00    +0.011 C 
ATOM     27  C   UNL     1       0.679  -1.760  -0.327  0.00  0.00    -0.032 C 
ATOM     28  C   UNL     1       1.508  -2.714  -1.189  0.00  0.00    +0.011 C 
ATOM     29  C   UNL     1      -0.730  -2.328  -0.148  0.00  0.00    +0.011 C 
ENDBRANCH  25  27
ENDBRANCH   1  25
TORSDOF 6
