REMARK  Name = ZINC57934667
REMARK  4 active torsions:
REMARK  status: ('A' for Active; 'I' for Inactive)
REMARK    1  A    between atoms: C_1  and  C_2
REMARK    2  A    between atoms: C_7  and  C_8
REMARK    3  A    between atoms: C_8  and  N_9
REMARK    4  A    between atoms: C_17  and  C_21
REMARK                            x       y       z     vdW  Elec       q    Type
REMARK                         _______ _______ _______ _____ _____    ______ ____
ROOT
ATOM      1  N   UNL     1      -1.388   0.091   3.019  0.00  0.00    -0.264 N 
ATOM      2  C   UNL     1      -2.048   1.255   2.599  0.00  0.00    +0.061 A 
ATOM      3  C   UNL     1      -1.337   2.312   2.054  0.00  0.00    +0.075 A 
ATOM      4  C   UNL     1      -2.005   3.454   1.639  0.00  0.00    +0.168 A 
ATOM      5  C   UNL     1      -3.389   3.541   1.769  0.00  0.00    +0.168 A 
ATOM      6  C   UNL     1      -4.101   2.484   2.316  0.00  0.00    +0.074 A 
ATOM      7  C   UNL     1      -3.434   1.346   2.732  0.00  0.00    +0.053 A 
ATOM      8  N   UNL     1      -4.129   0.266   3.300  0.00  0.00    -0.332 N 
ATOM      9  C   UNL     1      -3.421  -0.567   4.283  0.00  0.00    +0.154 C 
ATOM     10  C   UNL     1      -2.016  -0.813   3.795  0.00  0.00    +0.240 C 
ATOM     11  O   UNL     1      -1.443  -1.836   4.107  0.00  0.00    -0.273 OA
ATOM     12  C   UNL     1      -3.382   0.154   5.632  0.00  0.00    +0.038 C 
ATOM     13  O   UNL     1      -3.797   4.753   1.290  0.00  0.00    -0.453 OA
ATOM     14  C   UNL     1      -2.611   5.568   1.246  0.00  0.00    +0.466 C 
ATOM     15  O   UNL     1      -1.546   4.614   1.080  0.00  0.00    -0.453 OA
ATOM     16  H   UNL     1      -5.047   0.076   3.052  0.00  0.00    +0.147 HD
ENDROOT
BRANCH   1  17
ATOM     17  C   UNL     1      -0.004  -0.147   2.604  0.00  0.00    +0.149 C 
BRANCH  17  24
ATOM     18  C   UNL     1       2.499  -0.980   1.426  0.00  0.00    +0.044 C 
ATOM     19  C   UNL     1       1.206  -1.203   0.684  0.00  0.00    -0.046 A 
ATOM     20  C   UNL     1       1.217  -1.812  -0.557  0.00  0.00    +0.003 A 
ATOM     21  C   UNL     1       0.031  -2.016  -1.237  0.00  0.00    +0.000 A 
ATOM     22  C   UNL     1      -1.166  -1.613  -0.675  0.00  0.00    +0.000 A 
ATOM     23  C   UNL     1      -1.177  -1.005   0.567  0.00  0.00    +0.005 A 
ATOM     24  C   UNL     1       0.009  -0.804   1.248  0.00  0.00    -0.027 A 
ENDBRANCH  17  24
ENDBRANCH   1  17
TORSDOF 2
