REMARK  Name = ZINC41661110
REMARK  3 active torsions:
REMARK  status: ('A' for Active; 'I' for Inactive)
REMARK    1  A    between atoms: C_1  and  C_2
REMARK    2  A    between atoms: C_6  and  C_7
REMARK    3  A    between atoms: N_19  and  C_22
REMARK                            x       y       z     vdW  Elec       q    Type
REMARK                         _______ _______ _______ _____ _____    ______ ____
ROOT
ATOM      1  C   UNL     1       0.030  -0.306   2.517  0.00  0.00    +0.065 C 
ATOM      2  C   UNL     1       0.052  -1.211   3.537  0.00  0.00    +0.177 C 
ATOM      3  C   UNL     1       0.055  -0.900   4.923  0.00  0.00    +0.231 C 
ATOM      4  O   UNL     1       0.040   0.208   5.434  0.00  0.00    -0.283 OA
ATOM      5  C   UNL     1       0.081  -2.203   5.611  0.00  0.00    +0.068 A 
ATOM      6  C   UNL     1       0.095  -2.581   6.953  0.00  0.00    +0.019 A 
ATOM      7  C   UNL     1       0.119  -3.905   7.284  0.00  0.00    +0.047 A 
ATOM      8  C   UNL     1       0.130  -4.883   6.289  0.00  0.00    +0.130 A 
ATOM      9  C   UNL     1       0.114  -4.521   4.953  0.00  0.00    +0.051 A 
ATOM     10  C   UNL     1       0.090  -3.177   4.600  0.00  0.00    +0.147 A 
ATOM     11  O   UNL     1       0.069  -2.558   3.399  0.00  0.00    -0.451 OA
ATOM     12  C   UNL     1       0.117  -5.567   3.868  0.00  0.00    +0.130 C 
ATOM     13  N   UNL     1       0.551  -6.855   4.426  0.00  0.00    -0.263 NA
ATOM     14  C   UNL     1      -0.200  -7.153   5.657  0.00  0.00    +0.319 C 
ATOM     15  O   UNL     1       0.157  -6.192   6.653  0.00  0.00    -0.476 OA
ENDROOT
BRANCH   1  21
ATOM     16  C   UNL     1      -0.018   1.503   0.010  0.00  0.00    +0.045 C 
ATOM     17  C   UNL     1       0.002  -0.004   0.002  0.00  0.00    -0.036 A 
ATOM     18  C   UNL     1       0.007  -0.729  -1.164  0.00  0.00    +0.011 A 
ATOM     19  C   UNL     1       0.026  -2.084  -1.099  0.00  0.00    +0.046 A 
ATOM     20  S   UNL     1       0.038  -2.420   0.547  0.00  0.00    -0.097 S 
ATOM     21  C   UNL     1       0.023  -0.752   1.176  0.00  0.00    +0.019 A 
ENDBRANCH   1  21
BRANCH  13  22
ATOM     22  C   UNL     1       0.398  -7.934   3.442  0.00  0.00    +0.060 C 
ATOM     23  C   UNL     1      -1.098  -8.191   3.168  0.00  0.00    +0.019 C 
ATOM     24  C   UNL     1      -1.194  -9.727   2.994  0.00  0.00    +0.002 C 
ATOM     25  C   UNL     1      -0.193 -10.255   4.051  0.00  0.00    +0.002 C 
ATOM     26  C   UNL     1       0.974  -9.246   4.003  0.00  0.00    +0.019 C 
ENDBRANCH  13  22
TORSDOF 2
