REMARK  Name = ZINC05774569
REMARK  3 active torsions:
REMARK  status: ('A' for Active; 'I' for Inactive)
REMARK    1  A    between atoms: C_4  and  N_7
REMARK    2  A    between atoms: N_13  and  C_14
REMARK    3  A    between atoms: C_14  and  C_15
REMARK                            x       y       z     vdW  Elec       q    Type
REMARK                         _______ _______ _______ _____ _____    ______ ____
ROOT
ATOM      1  N   UNL     1      -3.718   4.906  -3.035  0.00  0.00    -0.219 N 
ATOM      2  C   UNL     1      -5.006   5.183  -3.141  0.00  0.00    +0.236 C 
ATOM      3  O   UNL     1      -5.446   5.868  -4.039  0.00  0.00    -0.274 OA
ATOM      4  C   UNL     1      -5.901   4.595  -2.062  0.00  0.00    +0.173 C 
ATOM      5  S   UNL     1      -4.657   3.700  -1.050  0.00  0.00    -0.081 S 
ATOM      6  C   UNL     1      -3.213   4.120  -2.015  0.00  0.00    +0.164 C 
ATOM      7  N   UNL     1      -1.976   3.773  -1.804  0.00  0.00    -0.255 NA
ENDROOT
BRANCH   1  11
ATOM      8  C   UNL     1      -1.089   6.441  -5.883  0.00  0.00    +0.000 A 
ATOM      9  C   UNL     1      -1.365   7.164  -4.737  0.00  0.00    +0.002 A 
ATOM     10  C   UNL     1      -2.235   6.658  -3.792  0.00  0.00    +0.024 A 
ATOM     11  C   UNL     1      -2.834   5.422  -3.993  0.00  0.00    +0.043 A 
ATOM     12  C   UNL     1      -2.550   4.695  -5.141  0.00  0.00    +0.024 A 
ATOM     13  C   UNL     1      -1.683   5.209  -6.086  0.00  0.00    +0.002 A 
ENDBRANCH   1  11
BRANCH   7  14
ATOM     14  C   UNL     1      -1.637   2.932  -0.653  0.00  0.00    +0.218 C 
BRANCH  14  15
ATOM     15  C   UNL     1      -1.115   1.604  -1.137  0.00  0.00    +0.126 A 
ATOM     16  C   UNL     1       0.172   1.311  -1.395  0.00  0.00    +0.046 A 
ATOM     17  C   UNL     1       0.208  -0.036  -1.823  0.00  0.00    +0.041 A 
ATOM     18  C   UNL     1      -1.060  -0.486  -1.801  0.00  0.00    +0.195 A 
ATOM     19  O   UNL     1      -1.857   0.513  -1.390  0.00  0.00    -0.466 OA
ENDBRANCH  14  15
ENDBRANCH   7  14
TORSDOF 3
