REMARK  Name = ZINC63491406
REMARK  12 active torsions:
REMARK  status: ('A' for Active; 'I' for Inactive)
REMARK    1  A    between atoms: C_1  and  C_2
REMARK    2  A    between atoms: C_7  and  O_32
REMARK    3  A    between atoms: C_13  and  C_15
REMARK    4  A    between atoms: C_15  and  C_16
REMARK    5  A    between atoms: N_18  and  C_19
REMARK    6  A    between atoms: C_19  and  C_20
REMARK    7  A    between atoms: C_20  and  C_21
REMARK    8  A    between atoms: C_25  and  O_30
REMARK    9  A    between atoms: O_30  and  C_31
REMARK   10  A    between atoms: O_32  and  C_33
REMARK   11  A    between atoms: C_33  and  C_34
REMARK   12  A    between atoms: C_34  and  C_36
REMARK                            x       y       z     vdW  Elec       q    Type
REMARK                         _______ _______ _______ _____ _____    ______ ____
ROOT
ATOM      1  C   UNL     1       0.290   0.270   2.476  0.00  0.00    +0.111 C 
ENDROOT
BRANCH   1  13
ATOM      2  C   UNL     1      -0.019   1.526   0.010  0.00  0.00    +0.013 C 
ATOM      3  C   UNL     1       0.002  -0.004   0.002  0.00  0.00    +0.034 C 
ATOM      4  C   UNL     1      -1.413  -0.524   0.009  0.00  0.00    +0.000 A 
ATOM      5  C   UNL     1      -2.362   0.134  -0.759  0.00  0.00    +0.031 A 
ATOM      6  C   UNL     1      -3.668  -0.311  -0.790  0.00  0.00    +0.083 A 
ATOM      7  C   UNL     1      -4.039  -1.425  -0.048  0.00  0.00    +0.143 A 
ATOM      8  C   UNL     1      -3.095  -2.083   0.722  0.00  0.00    +0.093 A 
ATOM      9  C   UNL     1      -1.781  -1.631   0.754  0.00  0.00    +0.139 A 
ATOM     10  O   UNL     1      -0.889  -2.295   1.540  0.00  0.00    -0.425 OA
ATOM     11  C   UNL     1       0.414  -1.979   1.408  0.00  0.00    +0.316 C 
ATOM     12  O   UNL     1       1.276  -2.826   1.423  0.00  0.00    -0.250 OA
ATOM     13  C   UNL     1       0.747  -0.510   1.241  0.00  0.00    +0.114 C 
ATOM     14 CL   UNL     1      -4.847   0.523  -1.754  0.00  0.00    -0.080 Cl
BRANCH   7  15
ATOM     15  O   UNL     1      -5.324  -1.867  -0.078  0.00  0.00    -0.486 OA
BRANCH  15  16
ATOM     16  C   UNL     1      -5.632  -3.019   0.710  0.00  0.00    +0.259 C 
BRANCH  16  17
ATOM     17  C   UNL     1      -7.091  -3.360   0.552  0.00  0.00    -0.043 C 
ATOM     18  C   UNL     1      -7.855  -2.629  -0.222  0.00  0.00    +0.011 C 
ATOM     19  C   UNL     1      -7.672  -4.541   1.285  0.00  0.00    +0.042 C 
ENDBRANCH  16  17
ENDBRANCH  15  16
ENDBRANCH   7  15
ENDBRANCH   1  13
BRANCH   1  20
ATOM     20  C   UNL     1       1.113  -0.147   3.667  0.00  0.00    +0.214 C 
ATOM     21  O   UNL     1       1.980  -0.986   3.541  0.00  0.00    -0.276 OA
ATOM     22  N   UNL     1       0.886   0.412   4.872  0.00  0.00    -0.315 N 
ATOM     23  H   UNL     1       0.193   1.083   4.973  0.00  0.00    +0.149 HD
BRANCH  22  24
ATOM     24  C   UNL     1       1.686   0.006   6.030  0.00  0.00    +0.108 C 
BRANCH  24  25
ATOM     25  C   UNL     1       1.230   0.786   7.264  0.00  0.00    +0.052 C 
BRANCH  25  26
ATOM     26  C   UNL     1       2.053   0.368   8.456  0.00  0.00    -0.040 C 
ATOM     27  C   UNL     1       3.160   0.979   8.931  0.00  0.00    -0.001 A 
ATOM     28  C   UNL     1       3.901   2.171   8.497  0.00  0.00    +0.013 A 
ATOM     29  C   UNL     1       4.999   2.549   9.186  0.00  0.00    +0.046 A 
ATOM     30  C   UNL     1       5.450   1.829  10.309  0.00  0.00    +0.122 A 
ATOM     31  C   UNL     1       4.816   0.720  10.768  0.00  0.00    +0.071 A 
ATOM     32  C   UNL     1       3.653   0.239  10.116  0.00  0.00    +0.046 A 
ATOM     33  N   UNL     1       2.877  -0.792  10.362  0.00  0.00    -0.380 N 
ATOM     34  C   UNL     1       1.802  -0.815   9.364  0.00  0.00    +0.144 C 
ATOM     35  H   UNL     1       2.993  -1.428  11.084  0.00  0.00    +0.160 HD
BRANCH  30  36
ATOM     36  O   UNL     1       6.560   2.261  10.958  0.00  0.00    -0.495 OA
ATOM     37  C   UNL     1       7.197   3.432  10.444  0.00  0.00    +0.277 C 
ENDBRANCH  30  36
ENDBRANCH  25  26
ENDBRANCH  24  25
ENDBRANCH  22  24
ENDBRANCH   1  20
TORSDOF 9
