REMARK  Name = ZINC54579920
REMARK  11 active torsions:
REMARK  status: ('A' for Active; 'I' for Inactive)
REMARK    1  A    between atoms: C_1  and  C_2
REMARK    2  A    between atoms: C_2  and  C_4
REMARK    3  A    between atoms: C_2  and  N_15
REMARK    4  A    between atoms: C_7  and  S_10
REMARK    5  A    between atoms: S_10  and  N_13
REMARK    6  A    between atoms: N_13  and  C_14
REMARK    7  A    between atoms: C_21  and  C_24
REMARK    8  A    between atoms: C_24  and  C_25
REMARK    9  A    between atoms: C_25  and  N_26
REMARK   10  A    between atoms: N_26  and  C_27
REMARK   11  A    between atoms: N_26  and  C_28
REMARK                            x       y       z     vdW  Elec       q    Type
REMARK                         _______ _______ _______ _____ _____    ______ ____
ROOT
ATOM      1  N   UNL     1       2.745  -0.264   0.066  0.00  0.00    -0.293 N 
ATOM      2  C   UNL     1       2.054  -0.600   1.174  0.00  0.00    +0.303 C 
ATOM      3  O   UNL     1       0.853  -0.414   1.220  0.00  0.00    -0.253 OA
ATOM      4  N   UNL     1       2.694  -1.141   2.229  0.00  0.00    -0.286 N 
ATOM      5  C   UNL     1       1.940  -1.618   3.397  0.00  0.00    +0.109 C 
ATOM      6  C   UNL     1       2.336  -3.071   3.679  0.00  0.00    +0.022 C 
ATOM      7  C   UNL     1       3.856  -3.161   3.832  0.00  0.00    -0.010 C 
ATOM      8  C   UNL     1       4.529  -2.721   2.529  0.00  0.00    +0.022 C 
ATOM      9  C   UNL     1       4.157  -1.270   2.232  0.00  0.00    +0.109 C 
ATOM     10  H   UNL     1       3.712  -0.343   0.056  0.00  0.00    +0.151 HD
ENDROOT
BRANCH   1  12
ATOM     11  C   UNL     1       1.565  -0.974  -1.955  0.00  0.00    +0.033 C 
ATOM     12  C   UNL     1       2.036   0.219  -1.121  0.00  0.00    +0.102 C 
BRANCH  12  13
ATOM     13  C   UNL     1       2.964   1.073  -1.946  0.00  0.00    -0.027 A 
ATOM     14  C   UNL     1       4.285   0.702  -2.109  0.00  0.00    +0.007 A 
ATOM     15  C   UNL     1       5.136   1.485  -2.866  0.00  0.00    +0.029 A 
ATOM     16  C   UNL     1       4.665   2.640  -3.461  0.00  0.00    +0.105 A 
ATOM     17  C   UNL     1       3.343   3.012  -3.300  0.00  0.00    +0.029 A 
ATOM     18  C   UNL     1       2.491   2.226  -2.546  0.00  0.00    +0.007 A 
BRANCH  16  19
ATOM     19  S   UNL     1       5.750   3.640  -4.425  0.00  0.00    +0.058 S 
ATOM     20  O   UNL     1       5.203   4.951  -4.423  0.00  0.00    -0.153 OA
ATOM     21  O   UNL     1       7.067   3.363  -3.971  0.00  0.00    -0.153 OA
BRANCH  19  22
ATOM     22  N   UNL     1       5.662   3.092  -5.986  0.00  0.00    -0.193 NA
ATOM     23  C   UNL     1       4.408   3.210  -6.734  0.00  0.00    +0.127 C 
ATOM     24  H   UNL     1       6.441   2.694  -6.404  0.00  0.00    +0.148 HD
ENDBRANCH  19  22
ENDBRANCH  16  19
ENDBRANCH  12  13
ENDBRANCH   1  12
BRANCH   7  25
ATOM     25  C   UNL     1       4.252  -4.604   4.148  0.00  0.00    -0.015 C 
BRANCH  25  26
ATOM     26  C   UNL     1       5.756  -4.672   4.423  0.00  0.00    -0.079 C 
BRANCH  26  27
ATOM     27  N   UNL     1       6.136  -6.058   4.727  0.00  0.00    +0.376 N 
ATOM     28  C   UNL     1       7.595  -6.145   4.874  0.00  0.00    -0.097 C 
ATOM     29  C   UNL     1       5.492  -6.480   5.978  0.00  0.00    -0.097 C 
ATOM     30  H   UNL     1       5.838  -6.661   3.975  0.00  0.00    -0.083 HD
ENDBRANCH  26  27
ENDBRANCH  25  26
ENDBRANCH   7  25
TORSDOF 7
