REMARK  Name = ZINC37822378
REMARK  3 active torsions:
REMARK  status: ('A' for Active; 'I' for Inactive)
REMARK    1  A    between atoms: C_5  and  C_6
REMARK    2  A    between atoms: C_14  and  C_16
REMARK    3  A    between atoms: C_19  and  O_23
REMARK                            x       y       z     vdW  Elec       q    Type
REMARK                         _______ _______ _______ _____ _____    ______ ____
ROOT
ATOM      1  C   UNL     1      -1.242  -0.791   0.010  0.00  0.00    +0.247 C 
ATOM      2  O   UNL     1      -0.216  -0.142  -0.067  0.00  0.00    -0.270 OA
ATOM      3  N   UNL     1      -1.183  -2.135   0.104  0.00  0.00    -0.295 N 
ATOM      4  C   UNL     1       0.112  -2.822   0.205  0.00  0.00    +0.127 C 
ATOM      5  C   UNL     1       0.104  -3.700   1.462  0.00  0.00    +0.126 C 
ATOM      6  N   UNL     1      -1.127  -4.504   1.466  0.00  0.00    -0.300 N 
ATOM      7  C   UNL     1      -2.422  -3.816   1.365  0.00  0.00    +0.126 C 
ATOM      8  C   UNL     1      -2.414  -2.938   0.114  0.00  0.00    +0.127 C 
ATOM      9  C   UNL     1      -1.069  -5.847   1.560  0.00  0.00    +0.202 C 
ATOM     10  O   UNL     1       0.006  -6.403   1.643  0.00  0.00    -0.277 OA
ENDROOT
BRANCH   9  11
ATOM     11  C   UNL     1      -2.339  -6.658   1.563  0.00  0.00    +0.019 C 
ATOM     12  C   UNL     1      -2.849  -6.866   0.115  0.00  0.00    +0.023 C 
ATOM     13  C   UNL     1      -3.697  -8.157   0.264  0.00  0.00    +0.097 C 
ATOM     14  C   UNL     1      -2.906  -8.973   1.308  0.00  0.00    -0.050 C 
ATOM     15  N   UNL     1      -2.079  -8.020   2.074  0.00  0.00    +0.388 N 
ATOM     16  H   UNL     1      -1.103  -8.247   1.955  0.00  0.00    -0.085 HD
ATOM     17  H   UNL     1      -2.321  -8.068   3.053  0.00  0.00    -0.085 HD
BRANCH  13  18
ATOM     18  O   UNL     1      -3.772  -8.858  -0.979  0.00  0.00    -0.394 OA
ATOM     19  H   UNL     1      -4.291  -9.673  -0.940  0.00  0.00    +0.210 HD
ENDBRANCH  13  18
ENDBRANCH   9  11
BRANCH   1  24
ATOM     20  C   UNL     1      -2.822   1.006   0.872  0.00  0.00    +0.020 A 
ATOM     21  C   UNL     1      -4.054   1.542   0.765  0.00  0.00    +0.046 A 
ATOM     22  S   UNL     1      -4.820   0.546  -0.495  0.00  0.00    -0.104 S 
ATOM     23  C   UNL     1      -3.561  -0.508  -0.841  0.00  0.00    +0.058 A 
ATOM     24  C   UNL     1      -2.546  -0.110   0.000  0.00  0.00    +0.044 A 
ENDBRANCH   1  24
TORSDOF 3
