REMARK  Name = ZINC35024135
REMARK  10 active torsions:
REMARK  status: ('A' for Active; 'I' for Inactive)
REMARK    1  A    between atoms: C_1  and  C_2
REMARK    2  A    between atoms: C_2  and  O_3
REMARK    3  A    between atoms: O_3  and  C_4
REMARK    4  A    between atoms: C_7  and  C_12
REMARK    5  A    between atoms: C_9  and  O_10
REMARK    6  A    between atoms: O_10  and  C_11
REMARK    7  A    between atoms: C_14  and  C_15
REMARK    8  A    between atoms: C_15  and  C_16
REMARK    9  A    between atoms: N_31  and  C_32
REMARK   10  A    between atoms: C_32  and  C_33
REMARK                            x       y       z     vdW  Elec       q    Type
REMARK                         _______ _______ _______ _____ _____    ______ ____
ROOT
ATOM      1  C   UNL     1      -2.037  -5.880   0.119  0.00  0.00    +0.145 C 
ATOM      2  C   UNL     1      -1.894  -6.509   1.485  0.00  0.00    +0.076 C 
ATOM      3  C   UNL     1      -0.977  -7.497   1.366  0.00  0.00    +0.249 C 
ATOM      4  O   UNL     1      -0.562  -8.307   2.367  0.00  0.00    -0.282 OA
ATOM      5  C   UNL     1      -0.500  -7.551  -0.032  0.00  0.00    +0.288 C 
ATOM      6  O   UNL     1       0.327  -8.334  -0.457  0.00  0.00    -0.266 OA
ATOM      7  N   UNL     1      -1.118  -6.607  -0.765  0.00  0.00    -0.276 N 
ENDROOT
BRANCH   1  11
ATOM      8  C   UNL     1      -0.949  -1.747   0.285  0.00  0.00    +0.162 A 
ATOM      9  C   UNL     1       0.016  -2.728   0.450  0.00  0.00    +0.050 A 
ATOM     10  C   UNL     1      -0.339  -4.063   0.396  0.00  0.00    +0.009 A 
ATOM     11  C   UNL     1      -1.655  -4.423   0.177  0.00  0.00    -0.019 A 
ATOM     12  C   UNL     1      -2.623  -3.450   0.012  0.00  0.00    +0.055 A 
ATOM     13  C   UNL     1      -2.275  -2.110   0.071  0.00  0.00    +0.162 A 
BRANCH  13  14
ATOM     14  O   UNL     1      -3.227  -1.151  -0.086  0.00  0.00    -0.491 OA
ATOM     15  C   UNL     1      -4.580  -1.593  -0.201  0.00  0.00    +0.277 C 
ENDBRANCH  13  14
BRANCH   8  16
ATOM     16  O   UNL     1      -0.601  -0.434   0.339  0.00  0.00    -0.489 OA
BRANCH  16  18
ATOM     17  C   UNL     1       0.975   1.381   0.590  0.00  0.00    +0.048 C 
ATOM     18  C   UNL     1       0.778  -0.136   0.562  0.00  0.00    +0.226 C 
ENDBRANCH  16  18
ENDBRANCH   8  16
ENDBRANCH   1  11
BRANCH   2  19
ATOM     19  C   UNL     1      -2.611  -6.124   2.705  0.00  0.00    +0.195 C 
ATOM     20  O   UNL     1      -1.994  -5.705   3.666  0.00  0.00    -0.287 OA
BRANCH  19  21
ATOM     21  C   UNL     1      -4.081  -6.246   2.766  0.00  0.00    +0.026 A 
ATOM     22  C   UNL     1      -4.784  -6.804   1.694  0.00  0.00    +0.015 A 
ATOM     23  C   UNL     1      -6.155  -6.915   1.754  0.00  0.00    +0.050 A 
ATOM     24  C   UNL     1      -6.845  -6.475   2.879  0.00  0.00    +0.162 A 
ATOM     25  C   UNL     1      -6.150  -5.920   3.951  0.00  0.00    +0.163 A 
ATOM     26  C   UNL     1      -4.773  -5.808   3.899  0.00  0.00    +0.061 A 
ATOM     27  O   UNL     1      -6.811  -5.492   5.062  0.00  0.00    -0.485 OA
ATOM     28  C   UNL     1      -8.221  -5.282   4.931  0.00  0.00    +0.270 C 
ATOM     29  C   UNL     1      -8.820  -6.491   4.200  0.00  0.00    +0.270 C 
ATOM     30  O   UNL     1      -8.199  -6.592   2.914  0.00  0.00    -0.485 OA
ENDBRANCH  19  21
ENDBRANCH   2  19
BRANCH   7  31
ATOM     31  C   UNL     1      -0.910  -6.350  -2.192  0.00  0.00    +0.183 C 
BRANCH  31  32
ATOM     32  C   UNL     1       0.195  -5.340  -2.365  0.00  0.00    +0.122 A 
ATOM     33  C   UNL     1       1.504  -5.621  -2.499  0.00  0.00    +0.046 A 
ATOM     34  C   UNL     1       2.177  -4.385  -2.634  0.00  0.00    +0.041 A 
ATOM     35  C   UNL     1       1.239  -3.422  -2.573  0.00  0.00    +0.195 A 
ATOM     36  O   UNL     1       0.040  -4.007  -2.416  0.00  0.00    -0.466 OA
ENDBRANCH  31  32
ENDBRANCH   7  31
TORSDOF 8
