REMARK  Name = ZINC40121083
REMARK  6 active torsions:
REMARK  status: ('A' for Active; 'I' for Inactive)
REMARK    1  A    between atoms: C_1  and  C_2
REMARK    2  A    between atoms: C_7  and  C_10
REMARK    3  A    between atoms: C_14  and  N_17
REMARK    4  A    between atoms: N_20  and  C_21
REMARK    5  A    between atoms: C_21  and  C_22
REMARK    6  A    between atoms: C_22  and  C_23
REMARK                            x       y       z     vdW  Elec       q    Type
REMARK                         _______ _______ _______ _____ _____    ______ ____
ROOT
ATOM      1  C   UNL     1      -0.087  -2.145   3.741  0.00  0.00    +0.039 C 
ATOM      2  C   UNL     1      -1.032  -1.756   2.602  0.00  0.00    +0.133 C 
ATOM      3  C   UNL     1      -0.630  -2.505   1.326  0.00  0.00    +0.137 C 
ATOM      4  N   UNL     1      -1.428  -1.976   0.208  0.00  0.00    -0.312 N 
ATOM      5  C   UNL     1      -1.471  -0.518   0.017  0.00  0.00    +0.137 C 
ATOM      6  C   UNL     1      -1.831   0.134   1.357  0.00  0.00    +0.133 C 
ATOM      7  O   UNL     1      -0.944  -0.348   2.370  0.00  0.00    -0.371 OA
ATOM      8  C   UNL     1      -3.272  -0.222   1.728  0.00  0.00    +0.039 C 
ATOM      9  C   UNL     1      -2.120  -2.831  -0.645  0.00  0.00    +0.099 A 
ATOM     10  C   UNL     1      -2.951  -2.300  -1.626  0.00  0.00    +0.043 A 
ATOM     11  C   UNL     1      -3.634  -3.157  -2.468  0.00  0.00    +0.028 A 
ATOM     12  C   UNL     1      -3.463  -4.530  -2.299  0.00  0.00    +0.051 A 
ATOM     13  C   UNL     1      -2.619  -4.988  -1.299  0.00  0.00    +0.107 A 
ATOM     14  N   UNL     1      -1.978  -4.141  -0.517  0.00  0.00    -0.348 N 
ATOM     15  H   UNL     1      -1.390  -4.487   0.173  0.00  0.00    +0.167 HD
ENDROOT
BRANCH  12  16
ATOM     16  N   UNL     1      -4.137  -5.437  -3.129  0.00  0.00    -0.268 N 
ATOM     17  C   UNL     1      -4.361  -5.129  -4.422  0.00  0.00    +0.304 C 
ATOM     18  O   UNL     1      -3.893  -4.111  -4.894  0.00  0.00    -0.253 OA
ATOM     19  N   UNL     1      -5.104  -5.949  -5.191  0.00  0.00    -0.299 N 
ATOM     20  H   UNL     1      -4.441  -6.287  -2.774  0.00  0.00    +0.156 HD
ATOM     21  H   UNL     1      -5.478  -6.761  -4.815  0.00  0.00    +0.150 HD
BRANCH  19  22
ATOM     22  C   UNL     1      -5.348  -5.613  -6.596  0.00  0.00    +0.110 C 
BRANCH  22  23
ATOM     23  C   UNL     1      -6.213  -6.701  -7.238  0.00  0.00    +0.049 C 
BRANCH  23  24
ATOM     24  C   UNL     1      -6.464  -6.356  -8.683  0.00  0.00    -0.072 C 
ATOM     25  C   UNL     1      -5.683  -6.874  -9.575  0.00  0.00    -0.028 C 
ATOM     26  C   UNL     1      -5.802  -6.616 -11.049  0.00  0.00    +0.027 C 
ATOM     27  C   UNL     1      -7.179  -6.033 -11.373  0.00  0.00    +0.004 C 
ATOM     28  C   UNL     1      -7.450  -4.868 -10.412  0.00  0.00    +0.005 C 
ATOM     29  C   UNL     1      -7.608  -5.437  -8.999  0.00  0.00    +0.030 C 
ENDBRANCH  23  24
ENDBRANCH  22  23
ENDBRANCH  19  22
ENDBRANCH  12  16
TORSDOF 4
