REMARK  Name = ZINC55382841
REMARK  7 active torsions:
REMARK  status: ('A' for Active; 'I' for Inactive)
REMARK    1  A    between atoms: C_4  and  C_7
REMARK    2  A    between atoms: C_9  and  C_12
REMARK    3  A    between atoms: C_12  and  N_13
REMARK    4  A    between atoms: C_14  and  C_16
REMARK    5  A    between atoms: C_16  and  C_17
REMARK    6  A    between atoms: N_24  and  C_25
REMARK    7  A    between atoms: C_25  and  C_26
REMARK                            x       y       z     vdW  Elec       q    Type
REMARK                         _______ _______ _______ _____ _____    ______ ____
ROOT
ATOM      1  C   UNL     1       6.277  -5.559  -2.952  0.00  0.00    +0.124 C 
ENDROOT
BRANCH   1   2
ATOM      2  C   UNL     1       6.813  -6.981  -3.125  0.00  0.00    +0.152 C 
ATOM      3  C   UNL     1       7.040  -7.255  -4.585  0.00  0.00    +0.231 C 
ATOM      4  O   UNL     1       7.553  -6.392  -5.265  0.00  0.00    -0.274 OA
ATOM      5  N   UNL     1       6.699  -8.411  -5.165  0.00  0.00    -0.313 N 
ATOM      6  C   UNL     1       6.043  -9.498  -4.444  0.00  0.00    +0.119 C 
ATOM      7  C   UNL     1       6.226  -9.313  -2.937  0.00  0.00    +0.104 C 
ATOM      8  N   UNL     1       5.840  -7.938  -2.582  0.00  0.00    -0.285 NA
ATOM      9  H   UNL     1       6.895  -8.531  -6.107  0.00  0.00    +0.149 HD
BRANCH   8  10
ATOM     10  C   UNL     1       5.711  -7.789  -1.126  0.00  0.00    +0.123 C 
BRANCH  10  11
ATOM     11  C   UNL     1       4.545  -8.609  -0.638  0.00  0.00    +0.002 A 
ATOM     12  C   UNL     1       3.299  -8.027  -0.502  0.00  0.00    +0.008 A 
ATOM     13  C   UNL     1       2.228  -8.778  -0.055  0.00  0.00    +0.000 A 
ATOM     14  C   UNL     1       2.403 -10.114   0.257  0.00  0.00    +0.003 A 
ATOM     15  C   UNL     1       3.647 -10.699   0.122  0.00  0.00    +0.038 A 
ATOM     16  C   UNL     1       4.719  -9.948  -0.331  0.00  0.00    +0.128 A 
ATOM     17  F   UNL     1       5.935 -10.520  -0.469  0.00  0.00    -0.205 F 
ENDBRANCH  10  11
ENDBRANCH   8  10
ENDBRANCH   1   2
BRANCH   1  19
ATOM     18  N   UNL     1       4.220  -4.304  -3.513  0.00  0.00    -0.306 N 
ATOM     19  C   UNL     1       4.931  -5.444  -3.619  0.00  0.00    +0.215 C 
ATOM     20  O   UNL     1       4.486  -6.379  -4.252  0.00  0.00    -0.276 OA
ATOM     21  H   UNL     1       4.576  -3.557  -3.007  0.00  0.00    +0.149 HD
BRANCH  18  22
ATOM     22  C   UNL     1       2.912  -4.193  -4.162  0.00  0.00    +0.203 C 
BRANCH  22  25
ATOM     23  C   UNL     1       1.843  -0.725  -4.096  0.00  0.00    +0.202 A 
ATOM     24  N   UNL     1       2.502  -1.769  -4.629  0.00  0.00    -0.190 NA
ATOM     25  C   UNL     1       2.331  -2.829  -3.891  0.00  0.00    +0.245 A 
ATOM     26  O   UNL     1       1.551  -2.502  -2.853  0.00  0.00    -0.336 OA
ATOM     27  N   UNL     1       1.246  -1.123  -2.999  0.00  0.00    -0.056 NA
BRANCH  23  31
ATOM     28  C   UNL     1       1.730   3.215  -5.691  0.00  0.00    +0.000 A 
ATOM     29  C   UNL     1       1.051   2.926  -4.521  0.00  0.00    +0.001 A 
ATOM     30  C   UNL     1       1.085   1.649  -3.999  0.00  0.00    +0.012 A 
ATOM     31  C   UNL     1       1.803   0.650  -4.653  0.00  0.00    +0.022 A 
ATOM     32  C   UNL     1       2.484   0.947  -5.831  0.00  0.00    +0.012 A 
ATOM     33  C   UNL     1       2.444   2.227  -6.345  0.00  0.00    +0.001 A 
ENDBRANCH  23  31
ENDBRANCH  22  25
ENDBRANCH  18  22
ENDBRANCH   1  19
TORSDOF 7
