REMARK  Name = ZINC38661947
REMARK  15 active torsions:
REMARK  status: ('A' for Active; 'I' for Inactive)
REMARK    1  A    between atoms: C_1  and  C_2
REMARK    2  A    between atoms: C_5  and  N_9
REMARK    3  A    between atoms: C_6  and  C_8
REMARK    4  A    between atoms: C_10  and  C_12
REMARK    5  A    between atoms: C_12  and  S_13
REMARK    6  A    between atoms: S_13  and  C_14
REMARK    7  A    between atoms: C_18  and  C_21
REMARK    8  A    between atoms: C_21  and  C_23
REMARK    9  A    between atoms: C_21  and  N_33
REMARK   10  A    between atoms: C_23  and  C_24
REMARK   11  A    between atoms: C_34  and  O_36
REMARK   12  A    between atoms: O_36  and  C_37
REMARK   13  A    between atoms: C_37  and  C_38
REMARK   14  A    between atoms: C_37  and  C_39
REMARK   15  A    between atoms: C_37  and  C_40
REMARK                            x       y       z     vdW  Elec       q    Type
REMARK                         _______ _______ _______ _____ _____    ______ ____
ROOT
ATOM      1  C   UNL     1       1.868  -9.282  -0.103  0.00  0.00    +0.133 C 
ENDROOT
BRANCH   1   5
ATOM      2  C   UNL     1       0.746 -10.568  -3.205  0.00  0.00    +0.319 C 
ATOM      3  N   UNL     1       0.840  -9.110  -3.356  0.00  0.00    -0.146 NA
ATOM      4  N   UNL     1       0.886  -8.569  -2.244  0.00  0.00    -0.155 NA
ATOM      5  C   UNL     1       0.830  -9.586  -1.186  0.00  0.00    +0.280 C 
ATOM      6  O   UNL     1       1.138 -10.835  -1.842  0.00  0.00    -0.316 OA
BRANCH   2   7
ATOM      7  S   UNL     1       1.877 -11.394  -4.358  0.00  0.00    -0.095 S 
BRANCH   7   8
ATOM      8  C   UNL     1       3.513 -10.757  -3.901  0.00  0.00    +0.169 C 
BRANCH   8  10
ATOM      9  N   UNL     1       5.819 -10.848  -4.792  0.00  0.00    -0.285 N 
ATOM     10  C   UNL     1       4.543 -11.276  -4.871  0.00  0.00    +0.227 C 
ATOM     11  O   UNL     1       4.224 -12.079  -5.722  0.00  0.00    -0.275 OA
ATOM     12  H   UNL     1       6.085 -10.244  -4.081  0.00  0.00    +0.155 HD
BRANCH   9  17
ATOM     13  C   UNL     1       9.632 -12.578  -8.620  0.00  0.00    +0.044 C 
ATOM     14  C   UNL     1       8.619 -12.119  -7.603  0.00  0.00    -0.050 A 
ATOM     15  C   UNL     1       7.492 -12.883  -7.356  0.00  0.00    +0.005 A 
ATOM     16  C   UNL     1       6.562 -12.465  -6.425  0.00  0.00    +0.024 A 
ATOM     17  C   UNL     1       6.759 -11.275  -5.736  0.00  0.00    +0.036 A 
ATOM     18  C   UNL     1       7.891 -10.510  -5.985  0.00  0.00    -0.029 A 
ATOM     19  C   UNL     1       8.820 -10.937  -6.914  0.00  0.00    +0.008 A 
ATOM     20  C   UNL     1       8.108  -9.219  -5.239  0.00  0.00    +0.045 C 
ENDBRANCH   9  17
ENDBRANCH   8  10
ENDBRANCH   7   8
ENDBRANCH   2   7
ENDBRANCH   1   5
BRANCH   1  21
ATOM     21  N   UNL     1       1.628  -7.943   0.441  0.00  0.00    -0.274 N 
ATOM     22  C   UNL     1       0.424  -7.632   0.960  0.00  0.00    +0.401 C 
ATOM     23  O   UNL     1      -0.449  -8.475   1.018  0.00  0.00    -0.226 OA
ATOM     24  H   UNL     1       2.337  -7.280   0.428  0.00  0.00    +0.152 HD
BRANCH  22  25
ATOM     25  O   UNL     1       0.188  -6.386   1.414  0.00  0.00    -0.445 OA
BRANCH  25  26
ATOM     26  C   UNL     1      -1.143  -6.094   1.844  0.00  0.00    +0.107 C 
ATOM     27  C   UNL     1      -1.520  -7.020   3.002  0.00  0.00    +0.055 C 
ATOM     28  C   UNL     1      -1.221  -4.638   2.309  0.00  0.00    +0.055 C 
ATOM     29  C   UNL     1      -2.114  -6.311   0.681  0.00  0.00    +0.055 C 
ENDBRANCH  25  26
ENDBRANCH  22  25
ENDBRANCH   1  21
BRANCH   1  30
ATOM     30  C   UNL     1       1.752 -10.316   1.019  0.00  0.00    +0.064 C 
BRANCH  30  31
ATOM     31  C   UNL     1       2.852 -10.091   2.024  0.00  0.00    -0.020 A 
ATOM     32  C   UNL     1       2.825  -9.154   3.150  0.00  0.00    +0.003 A 
ATOM     33  C   UNL     1       1.883  -8.245   3.633  0.00  0.00    +0.010 A 
ATOM     34  C   UNL     1       2.169  -7.495   4.739  0.00  0.00    +0.001 A 
ATOM     35  C   UNL     1       3.390  -7.630   5.386  0.00  0.00    +0.002 A 
ATOM     36  C   UNL     1       4.334  -8.522   4.926  0.00  0.00    +0.026 A 
ATOM     37  C   UNL     1       4.064  -9.295   3.802  0.00  0.00    +0.047 A 
ATOM     38  N   UNL     1       4.779 -10.250   3.114  0.00  0.00    -0.360 N 
ATOM     39  C   UNL     1       4.039 -10.717   2.062  0.00  0.00    +0.087 A 
ATOM     40  H   UNL     1       5.673 -10.549   3.343  0.00  0.00    +0.165 HD
ENDBRANCH  30  31
ENDBRANCH   1  30
TORSDOF 10
