REMARK  Name = ZINC63367591
REMARK  8 active torsions:
REMARK  status: ('A' for Active; 'I' for Inactive)
REMARK    1  A    between atoms: C_7  and  C_10
REMARK    2  A    between atoms: C_10  and  C_11
REMARK    3  A    between atoms: C_11  and  N_12
REMARK    4  A    between atoms: C_15  and  C_20
REMARK    5  A    between atoms: C_18  and  O_19
REMARK    6  A    between atoms: C_20  and  C_21
REMARK    7  A    between atoms: C_21  and  C_22
REMARK    8  A    between atoms: N_24  and  C_25
REMARK                            x       y       z     vdW  Elec       q    Type
REMARK                         _______ _______ _______ _____ _____    ______ ____
ROOT
ATOM      1  N   UNL     1      -0.458  -4.798  -1.460  0.00  0.00    -0.224 N 
ATOM      2  C   UNL     1      -0.073  -6.088  -1.370  0.00  0.00    +0.248 C 
ATOM      3  O   UNL     1       1.057  -6.516  -1.277  0.00  0.00    -0.273 OA
ATOM      4  C   UNL     1      -1.362  -6.886  -1.409  0.00  0.00    +0.197 C 
ATOM      5  N   UNL     1      -2.409  -5.860  -1.528  0.00  0.00    -0.224 NA
ATOM      6  C   UNL     1      -1.824  -4.705  -1.544  0.00  0.00    +0.285 C 
ENDROOT
BRANCH   6   7
ATOM      7  O   UNL     1      -2.488  -3.533  -1.639  0.00  0.00    -0.481 OA
ATOM      8  H   UNL     1      -3.449  -3.628  -1.691  0.00  0.00    +0.295 HD
ENDBRANCH   6   7
BRANCH   1   9
ATOM      9  C   UNL     1       0.457  -3.653  -1.462  0.00  0.00    +0.122 C 
BRANCH   9  10
ATOM     10  C   UNL     1       0.691  -3.186  -0.024  0.00  0.00    +0.052 C 
BRANCH  10  17
ATOM     11  C   UNL     1      -0.016   1.348   0.009  0.00  0.00    +0.001 A 
ATOM     12  C   UNL     1       1.166   2.101   0.002  0.00  0.00    +0.002 A 
ATOM     13  C   UNL     1       2.391   1.535  -0.013  0.00  0.00    +0.026 A 
ATOM     14  C   UNL     1       2.529   0.120  -0.022  0.00  0.00    +0.043 A 
ATOM     15  N   UNL     1       3.587  -0.654  -0.037  0.00  0.00    -0.380 N 
ATOM     16  C   UNL     1       3.143  -2.053  -0.041  0.00  0.00    +0.144 C 
ATOM     17  C   UNL     1       1.631  -2.008  -0.025  0.00  0.00    -0.040 C 
ATOM     18  C   UNL     1       1.295  -0.698  -0.014  0.00  0.00    -0.001 A 
ATOM     19  C   UNL     1       0.002  -0.004   0.002  0.00  0.00    +0.010 A 
ATOM     20  H   UNL     1       4.509  -0.353  -0.045  0.00  0.00    +0.160 HD
ENDBRANCH  10  17
ENDBRANCH   9  10
ENDBRANCH   1   9
BRANCH   4  21
ATOM     21  C   UNL     1      -1.536  -7.690  -0.119  0.00  0.00    +0.045 C 
BRANCH  21  22
ATOM     22  C   UNL     1      -2.775  -8.579  -0.235  0.00  0.00    +0.098 C 
BRANCH  22  23
ATOM     23  C   UNL     1      -2.947  -9.370   1.036  0.00  0.00    +0.213 C 
ATOM     24  O   UNL     1      -2.155  -9.236   1.946  0.00  0.00    -0.276 OA
ATOM     25  N   UNL     1      -3.979 -10.227   1.163  0.00  0.00    -0.312 N 
ATOM     26  H   UNL     1      -4.612 -10.335   0.435  0.00  0.00    +0.149 HD
BRANCH  25  27
ATOM     27  C   UNL     1      -4.146 -10.996   2.399  0.00  0.00    +0.073 C 
ATOM     28  C   UNL     1      -3.293 -12.264   2.329  0.00  0.00    +0.022 C 
ATOM     29  C   UNL     1      -3.146 -12.857   3.732  0.00  0.00    +0.002 C 
ATOM     30  C   UNL     1      -2.848 -11.737   4.731  0.00  0.00    +0.000 C 
ATOM     31  C   UNL     1      -4.032 -11.578   5.686  0.00  0.00    +0.000 C 
ATOM     32  C   UNL     1      -5.172 -10.853   4.967  0.00  0.00    +0.000 C 
ATOM     33  C   UNL     1      -5.868 -11.821   4.009  0.00  0.00    +0.002 C 
ATOM     34  C   UNL     1      -5.618 -11.380   2.566  0.00  0.00    +0.022 C 
ENDBRANCH  25  27
ENDBRANCH  22  23
ENDBRANCH  21  22
ENDBRANCH   4  21
TORSDOF 8
