REMARK  Name = ZINC28284931
REMARK  5 active torsions:
REMARK  status: ('A' for Active; 'I' for Inactive)
REMARK    1  A    between atoms: C_1  and  C_2
REMARK    2  A    between atoms: C_5  and  C_25
REMARK    3  A    between atoms: C_6  and  N_8
REMARK    4  A    between atoms: N_8  and  C_9
REMARK    5  A    between atoms: N_14  and  C_17
REMARK                            x       y       z     vdW  Elec       q    Type
REMARK                         _______ _______ _______ _____ _____    ______ ____
ROOT
ATOM      1  C   UNL     1       0.048  -2.074   3.664  0.00  0.00    +0.166 C 
ATOM      2  C   UNL     1      -0.495  -2.970   4.796  0.00  0.00    +0.128 C 
ATOM      3  C   UNL     1       0.669  -3.073   5.757  0.00  0.00    +0.229 C 
ATOM      4  O   UNL     1       0.668  -3.696   6.797  0.00  0.00    -0.275 OA
ATOM      5  N   UNL     1       1.700  -2.368   5.276  0.00  0.00    -0.207 N 
ATOM      6  C   UNL     1       1.462  -1.761   4.103  0.00  0.00    +0.247 C 
ATOM      7  O   UNL     1       2.251  -1.073   3.491  0.00  0.00    -0.273 OA
ENDROOT
BRANCH   5   8
ATOM      8  C   UNL     1       2.930  -2.270   5.944  0.00  0.00    +0.064 A 
ATOM      9  C   UNL     1       3.936  -3.191   5.688  0.00  0.00    +0.025 A 
ATOM     10  C   UNL     1       5.146  -3.093   6.348  0.00  0.00    +0.003 A 
ATOM     11  C   UNL     1       5.356  -2.078   7.262  0.00  0.00    +0.021 A 
ATOM     12  C   UNL     1       4.356  -1.157   7.520  0.00  0.00    +0.061 A 
ATOM     13  C   UNL     1       3.145  -1.247   6.858  0.00  0.00    +0.081 A 
ATOM     14 CL   UNL     1       1.893  -0.087   7.176  0.00  0.00    -0.080 Cl
ATOM     15 CL   UNL     1       4.625   0.116   8.670  0.00  0.00    -0.082 Cl
ENDBRANCH   5   8
BRANCH   1  16
ATOM     16  N   UNL     1       0.051  -2.796   2.390  0.00  0.00    -0.332 N 
ATOM     17  H   UNL     1       0.064  -3.766   2.383  0.00  0.00    +0.147 HD
BRANCH  16  23
ATOM     18  C   UNL     1      -0.018   1.503   0.010  0.00  0.00    +0.044 C 
ATOM     19  C   UNL     1       0.002  -0.004   0.002  0.00  0.00    -0.049 A 
ATOM     20  C   UNL     1       0.006  -0.688  -1.200  0.00  0.00    +0.004 A 
ATOM     21  C   UNL     1       0.024  -2.071  -1.212  0.00  0.00    +0.005 A 
ATOM     22  C   UNL     1       0.039  -2.773  -0.023  0.00  0.00    -0.030 A 
ATOM     23  C   UNL     1       0.036  -2.089   1.186  0.00  0.00    +0.031 A 
ATOM     24  C   UNL     1       0.023  -0.700   1.194  0.00  0.00    +0.026 A 
ATOM     25  C   UNL     1       0.059  -4.280  -0.037  0.00  0.00    +0.045 C 
ENDBRANCH  16  23
ENDBRANCH   1  16
TORSDOF 3
