REMARK  Name = ZINC08747378
REMARK  7 active torsions:
REMARK  status: ('A' for Active; 'I' for Inactive)
REMARK    1  A    between atoms: C_4  and  C_7
REMARK    2  A    between atoms: C_7  and  N_8
REMARK    3  A    between atoms: C_9  and  C_26
REMARK    4  A    between atoms: C_12  and  S_13
REMARK    5  A    between atoms: S_13  and  C_14
REMARK    6  A    between atoms: C_14  and  C_15
REMARK    7  A    between atoms: C_23  and  N_25
REMARK                            x       y       z     vdW  Elec       q    Type
REMARK                         _______ _______ _______ _____ _____    ______ ____
ROOT
ATOM      1  N   UNL     1      -2.884   0.606   1.387  0.00  0.00    -0.298 N 
ATOM      2  C   UNL     1      -3.700   1.305   2.247  0.00  0.00    +0.167 A 
ATOM      3  N   UNL     1      -3.716   0.646   3.383  0.00  0.00    -0.128 NA
ATOM      4  N   UNL     1      -2.977  -0.401   3.293  0.00  0.00    -0.122 NA
ATOM      5  C   UNL     1      -2.448  -0.479   2.093  0.00  0.00    +0.193 A 
ENDROOT
BRANCH   2   6
ATOM      6  C   UNL     1      -4.421   2.560   1.948  0.00  0.00    +0.038 A 
ATOM      7  C   UNL     1      -5.179   2.672   0.781  0.00  0.00    +0.013 A 
ATOM      8  C   UNL     1      -5.849   3.846   0.508  0.00  0.00    +0.001 A 
ATOM      9  C   UNL     1      -5.774   4.912   1.389  0.00  0.00    +0.001 A 
ATOM     10  C   UNL     1      -5.026   4.808   2.547  0.00  0.00    +0.021 A 
ATOM     11  C   UNL     1      -4.353   3.636   2.836  0.00  0.00    +0.052 A 
ATOM     12 CL   UNL     1      -3.420   3.505   4.294  0.00  0.00    -0.083 Cl
ENDBRANCH   2   6
BRANCH   1  13
ATOM     13  C   UNL     1      -2.557   0.950   0.001  0.00  0.00    +0.161 C 
BRANCH  13  17
ATOM     14  C   UNL     1       0.872   3.497  -0.067  0.00  0.00    +0.000 A 
ATOM     15  C   UNL     1       1.030   2.124  -0.094  0.00  0.00    +0.000 A 
ATOM     16  C   UNL     1      -0.079   1.300  -0.068  0.00  0.00    +0.005 A 
ATOM     17  C   UNL     1      -1.347   1.849  -0.021  0.00  0.00    -0.028 A 
ATOM     18  C   UNL     1      -1.506   3.222   0.011  0.00  0.00    +0.005 A 
ATOM     19  C   UNL     1      -0.396   4.046  -0.015  0.00  0.00    +0.000 A 
ENDBRANCH  13  17
ENDBRANCH   1  13
BRANCH   5  20
ATOM     20  S   UNL     1      -1.373  -1.745   1.505  0.00  0.00    -0.078 S 
BRANCH  20  21
ATOM     21  C   UNL     1      -1.275  -2.786   2.982  0.00  0.00    +0.153 C 
BRANCH  21  22
ATOM     22  C   UNL     1      -0.381  -3.967   2.706  0.00  0.00    +0.142 A 
ATOM     23  N   UNL     1      -0.921  -5.064   2.231  0.00  0.00    -0.231 NA
ATOM     24  C   UNL     1      -0.161  -6.137   1.966  0.00  0.00    +0.076 A 
ATOM     25  C   UNL     1      -0.704  -7.323   1.453  0.00  0.00    +0.028 A 
ATOM     26  C   UNL     1       0.113  -8.386   1.208  0.00  0.00    +0.002 A 
ATOM     27  C   UNL     1       1.481  -8.313   1.458  0.00  0.00    +0.001 A 
ATOM     28  C   UNL     1       2.041  -7.174   1.957  0.00  0.00    +0.013 A 
ATOM     29  C   UNL     1       1.230  -6.065   2.220  0.00  0.00    +0.040 A 
ATOM     30  C   UNL     1       1.753  -4.855   2.739  0.00  0.00    +0.127 A 
ATOM     31  N   UNL     1       0.913  -3.853   2.960  0.00  0.00    -0.216 NA
BRANCH  30  32
ATOM     32  N   UNL     1       3.099  -4.723   3.007  0.00  0.00    -0.343 N 
ATOM     33  H   UNL     1       3.443  -3.888   3.361  0.00  0.00    +0.144 HD
ATOM     34  H   UNL     1       3.702  -5.465   2.840  0.00  0.00    +0.144 HD
ENDBRANCH  30  32
ENDBRANCH  21  22
ENDBRANCH  20  21
ENDBRANCH   5  20
TORSDOF 7
