REMARK  Name = ZINC63850631
REMARK  8 active torsions:
REMARK  status: ('A' for Active; 'I' for Inactive)
REMARK    1  A    between atoms: C_7  and  C_10
REMARK    2  A    between atoms: C_10  and  C_11
REMARK    3  A    between atoms: C_11  and  C_13
REMARK    4  A    between atoms: C_11  and  N_24
REMARK    5  A    between atoms: N_15  and  N_16
REMARK    6  A    between atoms: C_17  and  C_19
REMARK    7  A    between atoms: N_24  and  S_25
REMARK    8  A    between atoms: S_25  and  C_28
REMARK                            x       y       z     vdW  Elec       q    Type
REMARK                         _______ _______ _______ _____ _____    ______ ____
ROOT
ATOM      1  C   UNL     1       0.457  -3.653  -1.462  0.00  0.00    +0.168 C 
ENDROOT
BRANCH   1   2
ATOM      2  C   UNL     1      -0.385  -4.904  -1.452  0.00  0.00    +0.248 C 
ATOM      3  O   UNL     1      -1.459  -4.916  -2.016  0.00  0.00    -0.273 OA
ATOM      4  N   UNL     1       0.057  -6.008  -0.819  0.00  0.00    -0.233 N 
ATOM      5  H   UNL     1       0.915  -5.998  -0.368  0.00  0.00    +0.173 HD
BRANCH   4   6
ATOM      6  N   UNL     1      -0.726  -7.170  -0.810  0.00  0.00    -0.228 N 
ATOM      7  C   UNL     1      -0.284  -8.275  -0.176  0.00  0.00    +0.295 C 
ATOM      8  O   UNL     1       0.793  -8.262   0.389  0.00  0.00    -0.265 OA
ATOM      9  H   UNL     1      -1.585  -7.180  -1.260  0.00  0.00    +0.173 HD
BRANCH   7  10
ATOM     10  C   UNL     1      -1.103  -9.492  -0.167  0.00  0.00    +0.190 A 
ATOM     11  C   UNL     1      -0.780 -10.672   0.439  0.00  0.00    +0.054 A 
ATOM     12  C   UNL     1      -1.843 -11.555   0.195  0.00  0.00    +0.042 A 
ATOM     13  C   UNL     1      -2.757 -10.884  -0.540  0.00  0.00    +0.196 A 
ATOM     14  O   UNL     1      -2.310  -9.639  -0.751  0.00  0.00    -0.458 OA
ENDBRANCH   7  10
ENDBRANCH   4   6
ENDBRANCH   1   2
BRANCH   1  15
ATOM     15  N   UNL     1      -0.238  -2.603  -2.210  0.00  0.00    -0.178 NA
ATOM     16  H   UNL     1      -1.205  -2.539  -2.172  0.00  0.00    +0.149 HD
BRANCH  15  17
ATOM     17  S   UNL     1       0.628  -1.524  -3.121  0.00  0.00    +0.059 S 
ATOM     18  O   UNL     1      -0.318  -0.661  -3.736  0.00  0.00    -0.153 OA
ATOM     19  O   UNL     1       1.674  -1.040  -2.291  0.00  0.00    -0.153 OA
BRANCH  17  20
ATOM     20  C   UNL     1       1.395  -2.437  -4.418  0.00  0.00    +0.105 A 
ATOM     21  C   UNL     1       2.652  -2.981  -4.230  0.00  0.00    +0.030 A 
ATOM     22  C   UNL     1       3.255  -3.697  -5.247  0.00  0.00    +0.022 A 
ATOM     23  C   UNL     1       2.600  -3.868  -6.454  0.00  0.00    +0.041 A 
ATOM     24  C   UNL     1       1.343  -3.323  -6.642  0.00  0.00    +0.022 A 
ATOM     25  C   UNL     1       0.739  -2.612  -5.622  0.00  0.00    +0.030 A 
ATOM     26 CL   UNL     1       3.357  -4.767  -7.732  0.00  0.00    -0.084 Cl
ENDBRANCH  17  20
ENDBRANCH  15  17
ENDBRANCH   1  15
BRANCH   1  27
ATOM     27  C   UNL     1       0.691  -3.186  -0.024  0.00  0.00    +0.063 C 
BRANCH  27  34
ATOM     28  C   UNL     1      -0.016   1.348   0.009  0.00  0.00    +0.001 A 
ATOM     29  C   UNL     1       1.166   2.101   0.002  0.00  0.00    +0.002 A 
ATOM     30  C   UNL     1       2.391   1.535  -0.013  0.00  0.00    +0.026 A 
ATOM     31  C   UNL     1       2.529   0.120  -0.022  0.00  0.00    +0.043 A 
ATOM     32  N   UNL     1       3.587  -0.654  -0.037  0.00  0.00    -0.380 N 
ATOM     33  C   UNL     1       3.143  -2.053  -0.041  0.00  0.00    +0.144 C 
ATOM     34  C   UNL     1       1.631  -2.008  -0.025  0.00  0.00    -0.040 C 
ATOM     35  C   UNL     1       1.295  -0.698  -0.014  0.00  0.00    -0.001 A 
ATOM     36  C   UNL     1       0.002  -0.004   0.002  0.00  0.00    +0.010 A 
ATOM     37  H   UNL     1       4.509  -0.353  -0.045  0.00  0.00    +0.160 HD
ENDBRANCH  27  34
ENDBRANCH   1  27
TORSDOF 8
