REMARK  Name = ZINC06149105
REMARK  14 active torsions:
REMARK  status: ('A' for Active; 'I' for Inactive)
REMARK    1  A    between atoms: C_1  and  C_2
REMARK    2  A    between atoms: C_2  and  C_3
REMARK    3  A    between atoms: C_3  and  C_4
REMARK    4  A    between atoms: C_3  and  C_5
REMARK    5  A    between atoms: C_3  and  N_6
REMARK    6  A    between atoms: C_7  and  C_11
REMARK    7  A    between atoms: C_11  and  C_13
REMARK    8  A    between atoms: C_11  and  N_68
REMARK    9  A    between atoms: C_17  and  C_26
REMARK   10  A    between atoms: C_19  and  C_25
REMARK   11  A    between atoms: C_27  and  C_28
REMARK   12  A    between atoms: C_27  and  N_68
REMARK   13  A    between atoms: C_29  and  C_30
REMARK   14  A    between atoms: C_29  and  N_68
REMARK                            x       y       z     vdW  Elec       q    Type
REMARK                         _______ _______ _______ _____ _____    ______ ____
ROOT
ATOM      1  C   UNL     1       5.462  -1.344  -0.783  0.00  0.00    +0.039 C 
ENDROOT
BRANCH   1   2
ATOM      2  C   UNL     1       6.009  -0.969  -2.137  0.00  0.00    +0.011 A 
ATOM      3  C   UNL     1       6.495  -1.932  -2.959  0.00  0.00    +0.017 A 
ATOM      4  C   UNL     1       7.018  -1.535  -4.268  0.00  0.00    -0.001 A 
ATOM      5  C   UNL     1       7.533  -2.483  -5.159  0.00  0.00    +0.013 A 
ATOM      6  C   UNL     1       8.013  -2.080  -6.373  0.00  0.00    -0.050 A 
ATOM      7  C   UNL     1       7.996  -0.739  -6.730  0.00  0.00    +0.008 A 
ATOM      8  C   UNL     1       7.494   0.212  -5.868  0.00  0.00    -0.026 A 
ATOM      9  C   UNL     1       6.999  -0.174  -4.626  0.00  0.00    +0.052 A 
ATOM     10  N   UNL     1       6.491   0.756  -3.744  0.00  0.00    -0.322 N 
ATOM     11  H   UNL     1       6.482   1.723  -3.998  0.00  0.00    +0.169 HD
ATOM     12  C   UNL     1       6.007   0.381  -2.547  0.00  0.00    +0.251 A 
ATOM     13  O   UNL     1       5.561   1.230  -1.794  0.00  0.00    -0.268 OA
ATOM     14  C   UNL     1       7.480   1.665  -6.269  0.00  0.00    +0.046 C 
ATOM     15  C   UNL     1       8.567  -3.101  -7.333  0.00  0.00    +0.044 C 
ENDBRANCH   1   2
BRANCH   1  17
ATOM     16  N   UNL     1       6.140  -3.577   0.245  0.00  0.00    -0.225 N 
ATOM     17  C   UNL     1       5.447  -2.844  -0.646  0.00  0.00    +0.143 A 
ATOM     18  N   UNL     1       4.759  -3.690  -1.374  0.00  0.00    -0.115 NA
ATOM     19  N   UNL     1       5.013  -4.879  -0.949  0.00  0.00    -0.023 NA
ATOM     20  N   UNL     1       5.845  -4.815   0.031  0.00  0.00    -0.043 NA
BRANCH  16  21
ATOM     21  C   UNL     1       7.056  -3.065   1.268  0.00  0.00    +0.061 C 
ATOM     22  C   UNL     1       8.188  -2.287   0.595  0.00  0.00    +0.036 C 
ATOM     23  C   UNL     1       6.294  -2.138   2.217  0.00  0.00    +0.036 C 
BRANCH  21  25
ATOM     24  C   UNL     1       8.599  -3.701   3.127  0.00  0.00    +0.006 C 
ATOM     25  C   UNL     1       7.642  -4.236   2.059  0.00  0.00    +0.026 C 
ENDBRANCH  21  25
ENDBRANCH  16  21
ENDBRANCH   1  17
BRANCH   1  26
ATOM     26  N   UNL     1       4.095  -0.797  -0.654  0.00  0.00    +0.392 N 
ATOM     27  H   UNL     1       4.108   0.197  -0.909  0.00  0.00    -0.080 HD
BRANCH  26  28
ATOM     28  C   UNL     1       3.176  -1.514  -1.563  0.00  0.00    -0.080 C 
ATOM     29  C   UNL     1       3.440  -1.048  -2.996  0.00  0.00    -0.017 C 
ENDBRANCH  26  28
BRANCH  26  30
ATOM     30  C   UNL     1       3.629  -0.929   0.742  0.00  0.00    -0.042 C 
BRANCH  30  31
ATOM     31  C   UNL     1       2.341  -0.162   0.899  0.00  0.00    -0.064 A 
ATOM     32  C   UNL     1       1.129  -0.816   0.784  0.00  0.00    +0.002 A 
ATOM     33  C   UNL     1      -0.052  -0.112   0.928  0.00  0.00    +0.000 A 
ATOM     34  C   UNL     1      -0.021   1.246   1.186  0.00  0.00    +0.000 A 
ATOM     35  C   UNL     1       1.191   1.899   1.301  0.00  0.00    +0.000 A 
ATOM     36  C   UNL     1       2.372   1.196   1.157  0.00  0.00    +0.002 A 
ENDBRANCH  30  31
ENDBRANCH  26  30
ENDBRANCH   1  26
TORSDOF 8
