REMARK  Name = ZINC67382624
REMARK  10 active torsions:
REMARK  status: ('A' for Active; 'I' for Inactive)
REMARK    1  A    between atoms: C_1  and  C_2
REMARK    2  A    between atoms: C_6  and  C_7
REMARK    3  A    between atoms: N_9  and  N_10
REMARK    4  A    between atoms: N_13  and  C_14
REMARK    5  A    between atoms: C_14  and  C_15
REMARK    6  A    between atoms: C_15  and  C_17
REMARK    7  A    between atoms: C_15  and  N_24
REMARK    8  A    between atoms: C_17  and  C_18
REMARK    9  A    between atoms: N_24  and  C_25
REMARK   10  A    between atoms: N_24  and  C_26
REMARK                            x       y       z     vdW  Elec       q    Type
REMARK                         _______ _______ _______ _____ _____    ______ ____
ROOT
ATOM      1  N   UNL     1       1.770  -0.853   7.463  0.00  0.00    -0.218 N 
ATOM      2  C   UNL     1       1.355  -2.068   7.872  0.00  0.00    +0.316 C 
ATOM      3  O   UNL     1       1.115  -2.265   9.047  0.00  0.00    -0.251 OA
ATOM      4  N   UNL     1       1.208  -3.066   6.977  0.00  0.00    -0.300 N 
ATOM      5  H   UNL     1       1.876  -0.135   8.107  0.00  0.00    +0.174 HD
ATOM      6  H   UNL     1       1.400  -2.909   6.040  0.00  0.00    +0.150 HD
ENDROOT
BRANCH   1   9
ATOM      7  C   UNL     1       2.462   0.590   5.700  0.00  0.00    +0.267 C 
ATOM      8  O   UNL     1       2.595   1.490   6.508  0.00  0.00    -0.268 OA
ATOM      9  N   UNL     1       2.047  -0.626   6.109  0.00  0.00    -0.229 N 
ATOM     10  H   UNL     1       1.941  -1.344   5.465  0.00  0.00    +0.173 HD
BRANCH   7  16
ATOM     11  C   UNL     1       3.431   3.263   4.429  0.00  0.00    +0.045 C 
ATOM     12  C   UNL     1       3.184   1.989   3.663  0.00  0.00    -0.031 A 
ATOM     13  C   UNL     1       3.378   1.904   2.305  0.00  0.00    +0.011 A 
ATOM     14  C   UNL     1       3.137   0.726   1.677  0.00  0.00    +0.046 A 
ATOM     15  S   UNL     1       2.639  -0.302   2.909  0.00  0.00    -0.092 S 
ATOM     16  C   UNL     1       2.752   0.827   4.283  0.00  0.00    +0.078 A 
ENDBRANCH   7  16
ENDBRANCH   1   9
BRANCH   4  17
ATOM     17  C   UNL     1       0.757  -4.387   7.421  0.00  0.00    +0.091 C 
BRANCH  17  18
ATOM     18  C   UNL     1       0.493  -5.272   6.202  0.00  0.00    -0.048 C 
BRANCH  18  19
ATOM     19  N   UNL     1      -0.676  -4.764   5.472  0.00  0.00    +0.379 N 
ATOM     20  C   UNL     1      -1.816  -4.652   6.391  0.00  0.00    -0.096 C 
ATOM     21  C   UNL     1      -0.367  -3.442   4.912  0.00  0.00    -0.096 C 
ATOM     22  H   UNL     1      -0.908  -5.401   4.724  0.00  0.00    -0.082 HD
ENDBRANCH  18  19
BRANCH  18  23
ATOM     23  C   UNL     1       0.224  -6.707   6.661  0.00  0.00    +0.021 C 
BRANCH  23  24
ATOM     24  C   UNL     1       0.030  -7.592   5.457  0.00  0.00    -0.049 A 
ATOM     25  C   UNL     1      -1.235  -7.773   4.929  0.00  0.00    +0.003 A 
ATOM     26  C   UNL     1      -1.413  -8.585   3.825  0.00  0.00    +0.000 A 
ATOM     27  C   UNL     1      -0.326  -9.216   3.248  0.00  0.00    +0.000 A 
ATOM     28  C   UNL     1       0.938  -9.034   3.776  0.00  0.00    +0.000 A 
ATOM     29  C   UNL     1       1.117  -8.219   4.878  0.00  0.00    +0.003 A 
ENDBRANCH  23  24
ENDBRANCH  18  23
ENDBRANCH  17  18
ENDBRANCH   4  17
TORSDOF 7
