REMARK  Name = ZINC40019558
REMARK  19 active torsions:
REMARK  status: ('A' for Active; 'I' for Inactive)
REMARK    1  A    between atoms: C_1  and  C_2
REMARK    2  A    between atoms: C_2  and  C_3
REMARK    3  A    between atoms: C_3  and  C_4
REMARK    4  A    between atoms: C_4  and  N_5
REMARK    5  A    between atoms: N_5  and  C_6
REMARK    6  A    between atoms: N_5  and  C_10
REMARK    7  A    between atoms: C_6  and  C_7
REMARK    8  A    between atoms: C_7  and  C_8
REMARK    9  A    between atoms: C_8  and  C_9
REMARK   10  A    between atoms: C_10  and  C_11
REMARK   11  A    between atoms: C_11  and  C_12
REMARK   12  A    between atoms: C_12  and  N_13
REMARK   13  A    between atoms: C_14  and  C_34
REMARK   14  A    between atoms: C_16  and  C_21
REMARK   15  A    between atoms: C_21  and  C_23
REMARK   16  A    between atoms: C_26  and  O_30
REMARK   17  A    between atoms: C_27  and  C_29
REMARK   18  A    between atoms: O_30  and  C_31
REMARK   19  A    between atoms: C_31  and  C_32
REMARK                            x       y       z     vdW  Elec       q    Type
REMARK                         _______ _______ _______ _____ _____    ______ ____
ROOT
ATOM      1  N   UNL     1       2.143  -4.983  -5.270  0.00  0.00    -0.284 N 
ATOM      2  C   UNL     1       1.631  -4.918  -6.644  0.00  0.00    +0.147 C 
ATOM      3  C   UNL     1       2.512  -5.831  -7.465  0.00  0.00    +0.076 C 
ATOM      4  C   UNL     1       3.429  -6.353  -6.619  0.00  0.00    +0.249 C 
ATOM      5  C   UNL     1       3.198  -5.818  -5.261  0.00  0.00    +0.288 C 
ATOM      6  O   UNL     1       3.861  -6.094  -4.280  0.00  0.00    -0.266 OA
ATOM      7  O   UNL     1       4.406  -7.224  -6.963  0.00  0.00    -0.282 OA
ENDROOT
BRANCH   2   8
ATOM      8  C   UNL     1       1.719  -3.506  -7.163  0.00  0.00    +0.013 A 
ATOM      9  C   UNL     1       0.634  -2.937  -7.803  0.00  0.00    +0.008 A 
ATOM     10  C   UNL     1       0.714  -1.642  -8.280  0.00  0.00    +0.001 A 
ATOM     11  C   UNL     1       1.879  -0.914  -8.117  0.00  0.00    +0.003 A 
ATOM     12  C   UNL     1       2.964  -1.482  -7.477  0.00  0.00    +0.039 A 
ATOM     13  C   UNL     1       2.883  -2.777  -6.994  0.00  0.00    +0.129 A 
ATOM     14  F   UNL     1       3.942  -3.331  -6.364  0.00  0.00    -0.205 F 
ENDBRANCH   2   8
BRANCH   3  15
ATOM     15  C   UNL     1       2.394  -6.098  -8.902  0.00  0.00    +0.195 C 
ATOM     16  O   UNL     1       3.271  -5.732  -9.663  0.00  0.00    -0.287 OA
BRANCH  15  17
ATOM     17  C   UNL     1       1.213  -6.812  -9.426  0.00  0.00    +0.023 A 
ATOM     18  C   UNL     1       0.222  -7.266  -8.549  0.00  0.00    +0.015 A 
ATOM     19  C   UNL     1      -0.877  -7.931  -9.042  0.00  0.00    +0.046 A 
ATOM     20  C   UNL     1      -1.004  -8.153 -10.409  0.00  0.00    +0.124 A 
ATOM     21  C   UNL     1      -0.021  -7.704 -11.284  0.00  0.00    -0.008 A 
ATOM     22  C   UNL     1       1.079  -7.032 -10.800  0.00  0.00    +0.018 A 
ATOM     23  C   UNL     1      -0.163  -7.947 -12.764  0.00  0.00    +0.047 C 
BRANCH  20  24
ATOM     24  O   UNL     1      -2.089  -8.810 -10.890  0.00  0.00    -0.488 OA
BRANCH  24  25
ATOM     25  C   UNL     1      -3.060  -9.244  -9.936  0.00  0.00    +0.256 C 
BRANCH  25  26
ATOM     26  C   UNL     1      -4.185  -9.949 -10.650  0.00  0.00    +0.006 C 
ATOM     27  C   UNL     1      -4.653 -11.079 -10.180  0.00  0.00    +0.007 C 
ENDBRANCH  25  26
ENDBRANCH  24  25
ENDBRANCH  20  24
ENDBRANCH  15  17
ENDBRANCH   3  15
BRANCH   1  28
ATOM     28  C   UNL     1       1.606  -4.261  -4.114  0.00  0.00    +0.107 C 
BRANCH  28  29
ATOM     29  C   UNL     1       2.261  -2.881  -4.025  0.00  0.00    +0.000 C 
BRANCH  29  30
ATOM     30  C   UNL     1       1.796  -2.177  -2.748  0.00  0.00    -0.077 C 
BRANCH  30  31
ATOM     31  N   UNL     1       2.519  -0.907  -2.598  0.00  0.00    +0.380 N 
ATOM     32  H   UNL     1       3.512  -1.078  -2.645  0.00  0.00    -0.082 HD
BRANCH  31  33
ATOM     33  C   UNL     1       2.186  -0.305  -1.300  0.00  0.00    -0.079 C 
BRANCH  33  34
ATOM     34  C   UNL     1       2.729  -1.188  -0.174  0.00  0.00    -0.019 C 
BRANCH  34  35
ATOM     35  C   UNL     1       2.327  -0.595   1.177  0.00  0.00    -0.005 C 
ATOM     36  C   UNL     1       2.869  -1.477   2.303  0.00  0.00    +0.004 C 
ENDBRANCH  34  35
ENDBRANCH  33  34
ENDBRANCH  31  33
BRANCH  31  37
ATOM     37  C   UNL     1       2.128   0.009  -3.678  0.00  0.00    -0.079 C 
BRANCH  37  38
ATOM     38  C   UNL     1       2.971   1.283  -3.595  0.00  0.00    -0.019 C 
BRANCH  38  40
ATOM     39  C   UNL     1       3.406   3.512  -4.637  0.00  0.00    +0.004 C 
ATOM     40  C   UNL     1       2.563   2.238  -4.719  0.00  0.00    -0.005 C 
ENDBRANCH  38  40
ENDBRANCH  37  38
ENDBRANCH  31  37
ENDBRANCH  30  31
ENDBRANCH  29  30
ENDBRANCH  28  29
ENDBRANCH   1  28
TORSDOF 16
