REMARK  Name = ZINC39659360
REMARK  7 active torsions:
REMARK  status: ('A' for Active; 'I' for Inactive)
REMARK    1  A    between atoms: C_1  and  C_2
REMARK    2  A    between atoms: C_6  and  C_9
REMARK    3  A    between atoms: C_13  and  C_22
REMARK    4  A    between atoms: N_24  and  C_25
REMARK    5  A    between atoms: C_25  and  C_26
REMARK    6  A    between atoms: C_30  and  C_32
REMARK    7  A    between atoms: C_30  and  C_33
REMARK                            x       y       z     vdW  Elec       q    Type
REMARK                         _______ _______ _______ _____ _____    ______ ____
ROOT
ATOM      1  C   UNL     1       0.042  -2.832   2.442  0.00  0.00    +0.251 C 
ATOM      2  O   UNL     1       1.105  -3.122   2.955  0.00  0.00    -0.270 OA
ATOM      3  N   UNL     1      -1.113  -3.197   3.032  0.00  0.00    -0.296 N 
ATOM      4  C   UNL     1      -2.495  -2.943   2.559  0.00  0.00    +0.121 C 
ATOM      5  C   UNL     1      -3.264  -4.243   2.884  0.00  0.00    +0.100 C 
ATOM      6  C   UNL     1      -2.469  -4.894   4.028  0.00  0.00    -0.004 C 
ATOM      7  C   UNL     1      -1.289  -3.949   4.298  0.00  0.00    +0.115 C 
ATOM      8  C   UNL     1      -1.952  -6.264   3.600  0.00  0.00    -0.010 C 
ATOM      9  C   UNL     1      -1.214  -6.915   4.774  0.00  0.00    -0.082 C 
ATOM     10  N   UNL     1      -2.128  -7.049   5.915  0.00  0.00    +0.379 N 
ATOM     11  C   UNL     1      -2.548  -5.721   6.379  0.00  0.00    -0.082 C 
ATOM     12  C   UNL     1      -3.342  -5.019   5.273  0.00  0.00    -0.010 C 
ATOM     13  H   UNL     1      -2.940  -7.578   5.633  0.00  0.00    -0.086 HD
ATOM     14  H   UNL     1      -1.658  -7.533   6.665  0.00  0.00    -0.086 HD
ENDROOT
BRANCH   1  20
ATOM     15  C   UNL     1      -0.063   1.521  -0.003  0.00  0.00    +0.047 C 
ATOM     16  C   UNL     1      -0.034   0.015  -0.011  0.00  0.00    -0.014 A 
ATOM     17  C   UNL     1      -0.032  -0.668  -1.214  0.00  0.00    +0.007 A 
ATOM     18  C   UNL     1      -0.006  -2.051  -1.232  0.00  0.00    +0.021 A 
ATOM     19  C   UNL     1       0.018  -2.762  -0.048  0.00  0.00    +0.056 A 
ATOM     20  C   UNL     1       0.017  -2.080   1.172  0.00  0.00    +0.091 A 
ATOM     21  C   UNL     1      -0.004  -0.681   1.183  0.00  0.00    +0.140 A 
ATOM     22  F   UNL     1      -0.001  -0.013   2.357  0.00  0.00    -0.204 F 
ATOM     23 CL   UNL     1       0.050  -4.497  -0.075  0.00  0.00    -0.083 Cl
ENDBRANCH   1  20
BRANCH   5  24
ATOM     24  C   UNL     1      -3.292  -5.150   1.680  0.00  0.00    +0.218 C 
ATOM     25  O   UNL     1      -2.423  -5.067   0.838  0.00  0.00    -0.275 OA
ATOM     26  N   UNL     1      -4.284  -6.051   1.539  0.00  0.00    -0.312 N 
ATOM     27  H   UNL     1      -4.979  -6.117   2.213  0.00  0.00    +0.149 HD
BRANCH  26  28
ATOM     28  C   UNL     1      -4.312  -6.933   0.369  0.00  0.00    +0.138 C 
BRANCH  28  29
ATOM     29  C   UNL     1      -5.531  -7.853   0.453  0.00  0.00    +0.164 C 
ATOM     30  C   UNL     1      -5.556  -8.839  -0.741  0.00  0.00    +0.196 C 
ATOM     31  O   UNL     1      -6.306  -9.949  -0.192  0.00  0.00    -0.347 OA
ATOM     32  C   UNL     1      -5.903 -10.018   1.186  0.00  0.00    +0.165 C 
ATOM     33  O   UNL     1      -5.434  -8.724   1.598  0.00  0.00    -0.342 OA
ATOM     34  C   UNL     1      -7.096 -10.429   2.052  0.00  0.00    +0.074 C 
ATOM     35  C   UNL     1      -4.781 -11.047   1.342  0.00  0.00    +0.074 C 
ENDBRANCH  28  29
ENDBRANCH  26  28
ENDBRANCH   5  24
TORSDOF 4
