REMARK  Name = ZINC67560324
REMARK  7 active torsions:
REMARK  status: ('A' for Active; 'I' for Inactive)
REMARK    1  A    between atoms: C_1  and  C_2
REMARK    2  A    between atoms: C_7  and  C_10
REMARK    3  A    between atoms: N_18  and  C_19
REMARK    4  A    between atoms: N_23  and  C_24
REMARK    5  A    between atoms: C_24  and  C_25
REMARK    6  A    between atoms: C_25  and  C_26
REMARK    7  A    between atoms: C_25  and  C_27
REMARK                            x       y       z     vdW  Elec       q    Type
REMARK                         _______ _______ _______ _____ _____    ______ ____
ROOT
ATOM      1  C   UNL     1      -0.021   1.535   0.003  0.00  0.00    +0.039 C 
ATOM      2  C   UNL     1      -0.001   0.005   0.000  0.00  0.00    +0.133 C 
ATOM      3  C   UNL     1       0.720  -0.495  -1.256  0.00  0.00    +0.140 C 
ATOM      4  N   UNL     1       2.142  -0.130  -1.152  0.00  0.00    -0.280 N 
ATOM      5  C   UNL     1       2.856  -0.479   0.086  0.00  0.00    +0.145 C 
ATOM      6  C   UNL     1       2.031   0.021   1.278  0.00  0.00    +0.166 C 
ATOM      7  O   UNL     1       0.691  -0.465   1.160  0.00  0.00    -0.366 OA
ATOM      8  C   UNL     1       2.771   0.504  -2.161  0.00  0.00    +0.308 C 
ATOM      9  O   UNL     1       2.191   0.702  -3.211  0.00  0.00    -0.252 OA
ATOM     10  N   UNL     1       4.044   0.918  -2.006  0.00  0.00    -0.254 N 
ATOM     11  H   UNL     1       4.533   0.694  -1.199  0.00  0.00    +0.158 HD
ENDROOT
BRANCH   6  12
ATOM     12  C   UNL     1       2.640  -0.486   2.560  0.00  0.00    -0.017 A 
ATOM     13  C   UNL     1       2.398  -1.782   2.974  0.00  0.00    +0.006 A 
ATOM     14  C   UNL     1       2.957  -2.247   4.150  0.00  0.00    +0.000 A 
ATOM     15  C   UNL     1       3.757  -1.416   4.911  0.00  0.00    +0.000 A 
ATOM     16  C   UNL     1       3.999  -0.120   4.496  0.00  0.00    +0.000 A 
ATOM     17  C   UNL     1       3.444   0.344   3.318  0.00  0.00    +0.006 A 
ENDBRANCH   6  12
BRANCH  10  18
ATOM     18  C   UNL     1       4.660   1.670  -3.008  0.00  0.00    +0.124 A 
ATOM     19  C   UNL     1       4.094   2.060  -4.183  0.00  0.00    +0.065 A 
ATOM     20  C   UNL     1       5.049   2.792  -4.895  0.00  0.00    +0.136 A 
ATOM     21  N   UNL     1       6.144   2.843  -4.181  0.00  0.00    -0.178 NA
ATOM     22  N   UNL     1       5.925   2.148  -2.985  0.00  0.00    -0.250 N 
BRANCH  22  23
ATOM     23  C   UNL     1       6.894   1.969  -1.901  0.00  0.00    +0.148 C 
BRANCH  23  24
ATOM     24  C   UNL     1       7.702   0.693  -2.147  0.00  0.00    +0.004 C 
ATOM     25  C   UNL     1       8.797   0.571  -1.085  0.00  0.00    +0.009 C 
ATOM     26  C   UNL     1       6.775  -0.522  -2.065  0.00  0.00    +0.009 C 
ENDBRANCH  23  24
ENDBRANCH  22  23
ENDBRANCH  10  18
TORSDOF 4
