REMARK  Name = ZINC41006878
REMARK  11 active torsions:
REMARK  status: ('A' for Active; 'I' for Inactive)
REMARK    1  A    between atoms: C_1  and  C_2
REMARK    2  A    between atoms: C_2  and  C_3
REMARK    3  A    between atoms: C_2  and  O_4
REMARK    4  A    between atoms: O_4  and  C_5
REMARK    5  A    between atoms: C_8  and  C_11
REMARK    6  A    between atoms: C_13  and  C_32
REMARK    7  A    between atoms: C_18  and  C_30
REMARK    8  A    between atoms: C_18  and  O_31
REMARK    9  A    between atoms: C_19  and  C_21
REMARK   10  A    between atoms: N_23  and  C_24
REMARK   11  A    between atoms: N_34  and  C_35
REMARK                            x       y       z     vdW  Elec       q    Type
REMARK                         _______ _______ _______ _____ _____    ______ ____
ROOT
ATOM      1  C   UNL     1      -2.912  -5.255  -2.279  0.00  0.00    +0.053 C 
ATOM      2  C   UNL     1      -3.340  -6.189  -1.143  0.00  0.00    +0.149 C 
ATOM      3  C   UNL     1      -3.412  -7.601  -1.682  0.00  0.00    +0.148 C 
ATOM      4  O   UNL     1      -2.846  -8.507  -1.121  0.00  0.00    -0.296 OA
ATOM      5  C   UNL     1      -4.212  -7.847  -2.942  0.00  0.00    +0.110 C 
ATOM      6  C   UNL     1      -3.752  -6.853  -4.013  0.00  0.00    +0.082 C 
ATOM      7  C   UNL     1      -3.862  -5.428  -3.466  0.00  0.00    +0.115 C 
ATOM      8  C   UNL     1      -2.298  -7.144  -4.389  0.00  0.00    +0.042 C 
ENDROOT
BRANCH   1  12
ATOM      9  C   UNL     1      -3.052  -1.204  -0.924  0.00  0.00    +0.121 A 
ATOM     10  C   UNL     1      -1.855  -1.747  -1.371  0.00  0.00    +0.046 A 
ATOM     11  C   UNL     1      -1.813  -3.056  -1.808  0.00  0.00    +0.007 A 
ATOM     12  C   UNL     1      -2.961  -3.826  -1.801  0.00  0.00    -0.042 A 
ATOM     13  C   UNL     1      -4.155  -3.288  -1.357  0.00  0.00    +0.007 A 
ATOM     14  C   UNL     1      -4.201  -1.981  -0.913  0.00  0.00    +0.046 A 
BRANCH   9  15
ATOM     15  O   UNL     1      -3.096   0.084  -0.493  0.00  0.00    -0.489 OA
BRANCH  15  17
ATOM     16  C   UNL     1      -4.044   1.641   1.094  0.00  0.00    +0.051 C 
ATOM     17  C   UNL     1      -4.327   0.536   0.074  0.00  0.00    +0.167 C 
ATOM     18  C   UNL     1      -5.228   1.085  -1.035  0.00  0.00    +0.051 C 
ENDBRANCH  15  17
ENDBRANCH   9  15
ENDBRANCH   1  12
BRANCH   7  19
ATOM     19  C   UNL     1      -3.497  -4.446  -4.548  0.00  0.00    +0.224 C 
ATOM     20  O   UNL     1      -2.568  -3.682  -4.386  0.00  0.00    -0.275 OA
ATOM     21  N   UNL     1      -4.201  -4.415  -5.696  0.00  0.00    -0.285 N 
ATOM     22  H   UNL     1      -4.988  -4.973  -5.797  0.00  0.00    +0.155 HD
BRANCH  21  23
ATOM     23  C   UNL     1      -3.798  -3.579  -6.743  0.00  0.00    +0.033 A 
ATOM     24  C   UNL     1      -4.747  -2.978  -7.559  0.00  0.00    +0.023 A 
ATOM     25  C   UNL     1      -4.346  -2.152  -8.591  0.00  0.00    +0.002 A 
ATOM     26  C   UNL     1      -3.000  -1.925  -8.812  0.00  0.00    +0.000 A 
ATOM     27  C   UNL     1      -2.052  -2.522  -8.002  0.00  0.00    +0.002 A 
ATOM     28  C   UNL     1      -2.447  -3.343  -6.965  0.00  0.00    +0.023 A 
ENDBRANCH  21  23
ENDBRANCH   7  19
BRANCH   2  29
ATOM     29  C   UNL     1      -2.332  -6.121  -0.025  0.00  0.00    +0.228 C 
ATOM     30  O   UNL     1      -1.364  -5.396  -0.124  0.00  0.00    -0.275 OA
ATOM     31  N   UNL     1      -2.506  -6.865   1.086  0.00  0.00    -0.285 N 
ATOM     32  H   UNL     1      -3.236  -7.502   1.133  0.00  0.00    +0.155 HD
BRANCH  31  33
ATOM     33  C   UNL     1      -1.633  -6.719   2.170  0.00  0.00    +0.033 A 
ATOM     34  C   UNL     1      -1.323  -7.814   2.966  0.00  0.00    +0.023 A 
ATOM     35  C   UNL     1      -0.461  -7.666   4.035  0.00  0.00    +0.002 A 
ATOM     36  C   UNL     1       0.093  -6.430   4.313  0.00  0.00    +0.000 A 
ATOM     37  C   UNL     1      -0.214  -5.338   3.522  0.00  0.00    +0.002 A 
ATOM     38  C   UNL     1      -1.070  -5.480   2.448  0.00  0.00    +0.023 A 
ENDBRANCH  31  33
ENDBRANCH   2  29
BRANCH   6  39
ATOM     39  O   UNL     1      -4.580  -6.983  -5.171  0.00  0.00    -0.388 OA
ATOM     40  H   UNL     1      -4.560  -7.863  -5.571  0.00  0.00    +0.210 HD
ENDBRANCH   6  39
TORSDOF 8
