REMARK  Name = ZINC33014286
REMARK  9 active torsions:
REMARK  status: ('A' for Active; 'I' for Inactive)
REMARK    1  A    between atoms: C_1  and  C_2
REMARK    2  A    between atoms: C_7  and  C_8
REMARK    3  A    between atoms: N_9  and  C_24
REMARK    4  A    between atoms: C_18  and  C_20
REMARK    5  A    between atoms: C_21  and  C_23
REMARK    6  A    between atoms: C_24  and  C_25
REMARK    7  A    between atoms: C_30  and  O_31
REMARK    8  A    between atoms: O_31  and  C_32
REMARK    9  A    between atoms: C_32  and  C_33
REMARK                            x       y       z     vdW  Elec       q    Type
REMARK                         _______ _______ _______ _____ _____    ______ ____
ROOT
ATOM      1  C   UNL     1      -1.364   2.942   0.822  0.00  0.00    +0.044 C 
ATOM      2  C   UNL     1      -1.606   2.885   2.309  0.00  0.00    -0.046 A 
ATOM      3  C   UNL     1      -2.895   2.978   2.801  0.00  0.00    +0.004 A 
ATOM      4  C   UNL     1      -3.117   2.921   4.165  0.00  0.00    +0.009 A 
ATOM      5  C   UNL     1      -2.057   2.783   5.032  0.00  0.00    +0.019 A 
ATOM      6  C   UNL     1      -0.753   2.694   4.548  0.00  0.00    +0.046 A 
ATOM      7  C   UNL     1      -0.540   2.747   3.173  0.00  0.00    -0.026 A 
ATOM      8  C   UNL     1       0.862   2.653   2.627  0.00  0.00    +0.046 C 
ATOM      9  N   UNL     1       0.149   2.558   5.607  0.00  0.00    -0.263 N 
ATOM     10  C   UNL     1      -0.473   2.551   6.805  0.00  0.00    +0.261 C 
ATOM     11  O   UNL     1       0.050   2.447   7.895  0.00  0.00    -0.271 OA
ATOM     12  C   UNL     1      -1.935   2.696   6.520  0.00  0.00    +0.215 C 
ATOM     13  N   UNL     1      -2.753   1.639   7.114  0.00  0.00    -0.161 N 
ATOM     14  N   UNL     1      -3.700   2.079   8.021  0.00  0.00    -0.152 NA
ATOM     15  C   UNL     1      -3.858   3.335   8.327  0.00  0.00    +0.181 C 
ATOM     16  S   UNL     1      -2.629   4.175   7.336  0.00  0.00    -0.047 S 
ATOM     17  N   UNL     1      -4.768   3.893   9.215  0.00  0.00    -0.264 N 
ATOM     18  C   UNL     1      -5.629   3.100   9.883  0.00  0.00    +0.216 C 
ATOM     19  O   UNL     1      -5.610   1.900   9.708  0.00  0.00    -0.276 OA
ATOM     20  C   UNL     1      -6.617   3.705  10.847  0.00  0.00    +0.109 C 
ATOM     21  C   UNL     1      -2.596   0.339   6.803  0.00  0.00    +0.234 C 
ATOM     22  O   UNL     1      -1.749   0.005   6.000  0.00  0.00    -0.274 OA
ATOM     23  C   UNL     1      -3.472  -0.702   7.451  0.00  0.00    +0.111 C 
ATOM     24  H   UNL     1      -4.786   4.981   9.373  0.00  0.00    +0.157 HD
ENDROOT
BRANCH   9  25
ATOM     25  C   UNL     1       1.599   2.439   5.437  0.00  0.00    +0.152 C 
BRANCH  25  26
ATOM     26  C   UNL     1       2.197   3.810   5.253  0.00  0.00    +0.012 A 
ATOM     27  C   UNL     1       2.908   4.106   4.105  0.00  0.00    +0.009 A 
ATOM     28  C   UNL     1       3.454   5.364   3.934  0.00  0.00    +0.001 A 
ATOM     29  C   UNL     1       3.298   6.327   4.914  0.00  0.00    +0.004 A 
ATOM     30  C   UNL     1       2.593   6.035   6.065  0.00  0.00    +0.046 A 
ATOM     31  C   UNL     1       2.040   4.774   6.237  0.00  0.00    +0.126 A 
BRANCH  31  32
ATOM     32  O   UNL     1       1.346   4.484   7.369  0.00  0.00    -0.488 OA
BRANCH  32  33
ATOM     33  C   UNL     1       1.224   5.525   8.340  0.00  0.00    +0.256 C 
BRANCH  33  34
ATOM     34  C   UNL     1       0.428   5.024   9.517  0.00  0.00    +0.006 C 
ATOM     35  C   UNL     1       0.836   5.271  10.737  0.00  0.00    +0.007 C 
ENDBRANCH  33  34
ENDBRANCH  32  33
ENDBRANCH  31  32
ENDBRANCH  25  26
ENDBRANCH   9  25
TORSDOF 5
