REMARK  Name = ZINC58852167
REMARK  10 active torsions:
REMARK  status: ('A' for Active; 'I' for Inactive)
REMARK    1  A    between atoms: C_1  and  C_2
REMARK    2  A    between atoms: C_2  and  N_3
REMARK    3  A    between atoms: N_3  and  C_4
REMARK    4  A    between atoms: N_3  and  C_6
REMARK    5  A    between atoms: C_4  and  C_5
REMARK    6  A    between atoms: C_6  and  C_8
REMARK    7  A    between atoms: C_6  and  C_21
REMARK    8  A    between atoms: C_8  and  N_9
REMARK    9  A    between atoms: N_12  and  C_13
REMARK   10  A    between atoms: C_16  and  C_20
REMARK                            x       y       z     vdW  Elec       q    Type
REMARK                         _______ _______ _______ _____ _____    ______ ____
ROOT
ATOM      1  N   UNL     1       0.474  -1.690   1.993  0.00  0.00    -0.300 N 
ATOM      2  C   UNL     1       0.969  -1.938   3.222  0.00  0.00    +0.304 C 
ATOM      3  O   UNL     1       0.379  -2.689   3.975  0.00  0.00    -0.253 OA
ATOM      4  N   UNL     1       2.118  -1.355   3.616  0.00  0.00    -0.268 N 
ATOM      5  H   UNL     1       0.945  -1.091   1.393  0.00  0.00    +0.150 HD
ATOM      6  H   UNL     1       2.547  -0.696   3.048  0.00  0.00    +0.156 HD
ENDROOT
BRANCH   4   7
ATOM      7  C   UNL     1       2.692  -1.699   4.845  0.00  0.00    +0.049 A 
ATOM      8  C   UNL     1       2.514  -2.975   5.363  0.00  0.00    +0.025 A 
ATOM      9  C   UNL     1       3.083  -3.313   6.576  0.00  0.00    +0.005 A 
ATOM     10  C   UNL     1       3.829  -2.381   7.275  0.00  0.00    -0.049 A 
ATOM     11  C   UNL     1       4.008  -1.110   6.763  0.00  0.00    +0.020 A 
ATOM     12  C   UNL     1       3.446  -0.767   5.547  0.00  0.00    +0.039 A 
ATOM     13 BR   UNL     1       3.698   0.970   4.844  0.00  0.00    -0.048 Br
ATOM     14  C   UNL     1       4.447  -2.753   8.598  0.00  0.00    +0.044 C 
ENDBRANCH   4   7
BRANCH   1  15
ATOM     15  C   UNL     1      -0.775  -2.324   1.565  0.00  0.00    +0.095 C 
BRANCH  15  16
ATOM     16  C   UNL     1      -1.216  -1.730   0.225  0.00  0.00    -0.020 C 
BRANCH  16  17
ATOM     17  C   UNL     1      -2.073  -2.728  -0.509  0.00  0.00    -0.052 A 
ATOM     18  C   UNL     1      -1.559  -3.446  -1.573  0.00  0.00    +0.009 A 
ATOM     19  C   UNL     1      -2.357  -4.336  -2.212  0.00  0.00    +0.045 A 
ATOM     20  S   UNL     1      -3.887  -4.178  -1.306  0.00  0.00    -0.105 S 
ATOM     21  C   UNL     1      -3.358  -2.940  -0.133  0.00  0.00    +0.047 A 
ENDBRANCH  16  17
BRANCH  16  22
ATOM     22  N   UNL     1      -1.988  -0.503   0.464  0.00  0.00    +0.385 N 
ATOM     23  H   UNL     1      -2.859  -0.737   0.915  0.00  0.00    -0.081 HD
BRANCH  22  25
ATOM     24  C   UNL     1      -2.033   1.665   1.602  0.00  0.00    -0.017 C 
ATOM     25  C   UNL     1      -1.216   0.401   1.328  0.00  0.00    -0.081 C 
ENDBRANCH  22  25
BRANCH  22  26
ATOM     26  C   UNL     1      -2.261   0.160  -0.818  0.00  0.00    -0.081 C 
ATOM     27  C   UNL     1      -3.256  -0.678  -1.624  0.00  0.00    -0.017 C 
ENDBRANCH  22  26
ENDBRANCH  16  22
ENDBRANCH  15  16
ENDBRANCH   1  15
TORSDOF 7
