REMARK  Name = ZINC50242210
REMARK  3 active torsions:
REMARK  status: ('A' for Active; 'I' for Inactive)
REMARK    1  A    between atoms: C_6  and  S_7
REMARK    2  A    between atoms: S_7  and  N_10
REMARK    3  A    between atoms: C_13  and  N_16
REMARK                            x       y       z     vdW  Elec       q    Type
REMARK                         _______ _______ _______ _____ _____    ______ ____
ROOT
ATOM      1  C   UNL     1      -0.017   1.378   0.010  0.00  0.00    +0.032 A 
ATOM      2  C   UNL     1       1.169   2.091   0.002  0.00  0.00    +0.049 A 
ATOM      3  C   UNL     1       2.378   1.419  -0.013  0.00  0.00    +0.142 A 
ATOM      4  C   UNL     1       2.397   0.025  -0.021  0.00  0.00    +0.078 A 
ATOM      5  C   UNL     1       1.207  -0.684  -0.013  0.00  0.00    +0.055 A 
ATOM      6  C   UNL     1       0.002  -0.004   0.002  0.00  0.00    +0.107 A 
ATOM      7  N   UNL     1       3.629  -0.644  -0.038  0.00  0.00    -0.280 N 
ATOM      8  C   UNL     1       4.751   0.043   0.269  0.00  0.00    +0.255 C 
ATOM      9  O   UNL     1       5.831  -0.507   0.231  0.00  0.00    -0.272 OA
ATOM     10  C   UNL     1       4.655   1.496   0.659  0.00  0.00    +0.325 C 
ATOM     11  O   UNL     1       3.552   2.104  -0.020  0.00  0.00    -0.481 OA
ATOM     12  H   UNL     1       3.675  -1.586  -0.267  0.00  0.00    +0.155 HD
ENDROOT
BRANCH   6  13
ATOM     13  S   UNL     1      -1.513  -0.903   0.013  0.00  0.00    +0.061 S 
ATOM     14  O   UNL     1      -1.222  -2.184   0.554  0.00  0.00    -0.153 OA
ATOM     15  O   UNL     1      -2.492  -0.042   0.578  0.00  0.00    -0.153 OA
BRANCH  13  16
ATOM     16  N   UNL     1      -1.950  -1.144  -1.566  0.00  0.00    -0.178 NA
ATOM     17  C   UNL     1      -2.781  -0.239  -2.374  0.00  0.00    +0.108 C 
ATOM     18  C   UNL     1      -2.898  -0.858  -3.782  0.00  0.00    +0.002 C 
ATOM     19  C   UNL     1      -1.661  -1.792  -3.855  0.00  0.00    -0.058 C 
ATOM     20  C   UNL     1      -1.566  -2.300  -2.397  0.00  0.00    +0.093 C 
BRANCH  19  21
ATOM     21  N   UNL     1      -1.894  -2.902  -4.789  0.00  0.00    +0.381 N 
ATOM     22  H   UNL     1      -2.053  -2.535  -5.715  0.00  0.00    -0.090 HD
ATOM     23  H   UNL     1      -1.087  -3.507  -4.801  0.00  0.00    -0.090 HD
ATOM     24  H   UNL     1      -2.703  -3.427  -4.492  0.00  0.00    -0.090 HD
ENDBRANCH  19  21
ENDBRANCH  13  16
ENDBRANCH   6  13
TORSDOF 3
