REMARK  Name = ZINC17100374
REMARK  7 active torsions:
REMARK  status: ('A' for Active; 'I' for Inactive)
REMARK    1  A    between atoms: C_1  and  C_2
REMARK    2  A    between atoms: C_5  and  C_8
REMARK    3  A    between atoms: C_11  and  N_19
REMARK    4  A    between atoms: C_12  and  C_13
REMARK    5  A    between atoms: N_15  and  C_16
REMARK    6  A    between atoms: C_20  and  C_22
REMARK    7  A    between atoms: C_29  and  C_31
REMARK                            x       y       z     vdW  Elec       q    Type
REMARK                         _______ _______ _______ _____ _____    ______ ____
ROOT
ATOM      1  C   UNL     1      -1.827   5.933   2.822  0.00  0.00    +0.003 A 
ATOM      2  C   UNL     1      -1.462   7.036   3.523  0.00  0.00    +0.056 A 
ATOM      3  S   UNL     1      -0.292   6.401   4.706  0.00  0.00    -0.081 S 
ATOM      4  C   UNL     1      -0.311   4.727   4.268  0.00  0.00    +0.084 A 
ATOM      5  C   UNL     1      -1.216   4.678   3.218  0.00  0.00    +0.073 A 
ENDROOT
BRANCH   1  10
ATOM      6  C   UNL     1      -5.625   6.217  -1.496  0.00  0.00    +0.044 C 
ATOM      7  C   UNL     1      -4.631   6.142  -0.366  0.00  0.00    -0.050 A 
ATOM      8  C   UNL     1      -4.930   6.723   0.854  0.00  0.00    +0.004 A 
ATOM      9  C   UNL     1      -4.023   6.657   1.893  0.00  0.00    +0.009 A 
ATOM     10  C   UNL     1      -2.804   6.006   1.711  0.00  0.00    -0.017 A 
ATOM     11  C   UNL     1      -2.506   5.428   0.477  0.00  0.00    +0.009 A 
ATOM     12  C   UNL     1      -3.423   5.494  -0.552  0.00  0.00    +0.004 A 
ENDBRANCH   1  10
BRANCH   5  13
ATOM     13  C   UNL     1      -1.536   3.420   2.538  0.00  0.00    +0.247 C 
ATOM     14  O   UNL     1      -2.454   2.728   2.939  0.00  0.00    -0.270 OA
ATOM     15  N   UNL     1      -0.816   3.030   1.468  0.00  0.00    -0.308 N 
ATOM     16  H   UNL     1      -0.085   3.582   1.148  0.00  0.00    +0.149 HD
BRANCH  15  17
ATOM     17  C   UNL     1      -1.136   1.773   0.788  0.00  0.00    +0.073 C 
ATOM     18  C   UNL     1      -0.013   1.086   0.008  0.00  0.00    +0.024 C 
ATOM     19  C   UNL     1      -1.150   1.781  -0.743  0.00  0.00    +0.024 C 
ENDBRANCH  15  17
ENDBRANCH   5  13
BRANCH   4  20
ATOM     20  N   UNL     1       0.407   3.684   4.831  0.00  0.00    -0.279 N 
ATOM     21  C   UNL     1       1.250   3.922   5.856  0.00  0.00    +0.222 C 
ATOM     22  O   UNL     1       1.380   5.049   6.285  0.00  0.00    -0.275 OA
ATOM     23  H   UNL     1       0.304   2.782   4.488  0.00  0.00    +0.155 HD
BRANCH  21  24
ATOM     24  C   UNL     1       2.031   2.788   6.469  0.00  0.00    +0.096 C 
ATOM     25  C   UNL     1       2.850   3.288   7.700  0.00  0.00    +0.025 C 
ATOM     26  C   UNL     1       2.991   1.948   8.511  0.00  0.00    +0.016 C 
ATOM     27  C   UNL     1       1.436   1.726   8.590  0.00  0.00    +0.027 C 
ATOM     28  C   UNL     1       1.073   1.730   7.071  0.00  0.00    +0.121 C 
ATOM     29  C   UNL     1       0.999   3.111   9.082  0.00  0.00    -0.027 C 
ATOM     30  C   UNL     1       1.814   4.011   8.569  0.00  0.00    -0.027 C 
BRANCH  28  31
ATOM     31  C   UNL     1       1.329   0.376   6.461  0.00  0.00    +0.360 C 
ATOM     32  O   UNL     1       2.189   0.243   5.623  0.00  0.00    -0.246 OA
ATOM     33  O   UNL     1       0.601  -0.683   6.849  0.00  0.00    -0.246 OA
ENDBRANCH  28  31
ENDBRANCH  21  24
ENDBRANCH   4  20
TORSDOF 6
