REMARK  Name = ZINC40019579
REMARK  22 active torsions:
REMARK  status: ('A' for Active; 'I' for Inactive)
REMARK    1  A    between atoms: C_1  and  C_2
REMARK    2  A    between atoms: C_2  and  C_3
REMARK    3  A    between atoms: C_3  and  C_4
REMARK    4  A    between atoms: C_4  and  N_5
REMARK    5  A    between atoms: N_5  and  C_6
REMARK    6  A    between atoms: N_5  and  C_10
REMARK    7  A    between atoms: C_6  and  C_7
REMARK    8  A    between atoms: C_7  and  C_8
REMARK    9  A    between atoms: C_8  and  C_9
REMARK   10  A    between atoms: C_10  and  C_11
REMARK   11  A    between atoms: C_11  and  C_12
REMARK   12  A    between atoms: C_12  and  N_13
REMARK   13  A    between atoms: C_14  and  C_35
REMARK   14  A    between atoms: C_16  and  C_21
REMARK   15  A    between atoms: C_21  and  C_23
REMARK   16  A    between atoms: C_26  and  O_30
REMARK   17  A    between atoms: C_27  and  C_29
REMARK   18  A    between atoms: O_30  and  C_31
REMARK   19  A    between atoms: C_31  and  C_32
REMARK   20  A    between atoms: C_32  and  C_33
REMARK   21  A    between atoms: C_33  and  C_34
REMARK   22  A    between atoms: C_38  and  C_40
REMARK                            x       y       z     vdW  Elec       q    Type
REMARK                         _______ _______ _______ _____ _____    ______ ____
ROOT
ATOM      1  N   UNL     1       3.682  -6.086   4.725  0.00  0.00    -0.281 N 
ATOM      2  C   UNL     1       5.127  -6.305   4.864  0.00  0.00    +0.180 C 
ATOM      3  C   UNL     1       5.327  -6.941   6.220  0.00  0.00    +0.079 C 
ATOM      4  C   UNL     1       4.101  -7.062   6.780  0.00  0.00    +0.249 C 
ATOM      5  C   UNL     1       3.087  -6.524   5.849  0.00  0.00    +0.288 C 
ATOM      6  O   UNL     1       1.892  -6.486   6.066  0.00  0.00    -0.266 OA
ATOM      7  O   UNL     1       3.845  -7.588   8.000  0.00  0.00    -0.282 OA
ENDROOT
BRANCH   2   8
ATOM      8  C   UNL     1       5.617  -7.229   3.780  0.00  0.00    +0.130 A 
ATOM      9  C   UNL     1       6.806  -7.146   3.154  0.00  0.00    +0.047 A 
ATOM     10  C   UNL     1       6.849  -8.204   2.217  0.00  0.00    +0.045 A 
ATOM     11  C   UNL     1       5.685  -8.869   2.325  0.00  0.00    +0.102 A 
ATOM     12  O   UNL     1       4.945  -8.277   3.277  0.00  0.00    -0.463 OA
ATOM     13  C   UNL     1       5.282 -10.076   1.518  0.00  0.00    +0.086 C 
ENDBRANCH   2   8
BRANCH   3  14
ATOM     14  C   UNL     1       6.604  -7.348   6.815  0.00  0.00    +0.195 C 
ATOM     15  O   UNL     1       6.833  -8.526   7.018  0.00  0.00    -0.287 OA
BRANCH  14  16
ATOM     16  C   UNL     1       7.613  -6.329   7.167  0.00  0.00    +0.023 A 
ATOM     17  C   UNL     1       7.306  -4.970   7.051  0.00  0.00    +0.015 A 
ATOM     18  C   UNL     1       8.249  -4.023   7.380  0.00  0.00    +0.046 A 
ATOM     19  C   UNL     1       9.506  -4.417   7.827  0.00  0.00    +0.123 A 
ATOM     20  C   UNL     1       9.815  -5.768   7.943  0.00  0.00    -0.008 A 
ATOM     21  C   UNL     1       8.876  -6.721   7.622  0.00  0.00    +0.018 A 
ATOM     22  C   UNL     1      11.179  -6.188   8.427  0.00  0.00    +0.047 C 
BRANCH  19  23
ATOM     23  O   UNL     1      10.434  -3.480   8.150  0.00  0.00    -0.492 OA
BRANCH  23  24
ATOM     24  C   UNL     1      10.050  -2.111   8.007  0.00  0.00    +0.229 C 
BRANCH  24  25
ATOM     25  C   UNL     1      11.217  -1.210   8.414  0.00  0.00    +0.041 C 
BRANCH  25  26
ATOM     26  C   UNL     1      10.806   0.256   8.261  0.00  0.00    -0.000 C 
ATOM     27  C   UNL     1      11.973   1.158   8.668  0.00  0.00    +0.004 C 
ENDBRANCH  25  26
ENDBRANCH  24  25
ENDBRANCH  23  24
ENDBRANCH  19  23
ENDBRANCH  14  16
ENDBRANCH   3  14
BRANCH   1  28
ATOM     28  C   UNL     1       3.008  -5.489   3.569  0.00  0.00    +0.107 C 
BRANCH  28  29
ATOM     29  C   UNL     1       2.921  -3.973   3.756  0.00  0.00    +0.000 C 
BRANCH  29  30
ATOM     30  C   UNL     1       2.217  -3.350   2.549  0.00  0.00    -0.077 C 
BRANCH  30  31
ATOM     31  N   UNL     1       2.014  -1.915   2.787  0.00  0.00    +0.380 N 
ATOM     32  H   UNL     1       1.516  -1.785   3.654  0.00  0.00    -0.082 HD
BRANCH  31  33
ATOM     33  C   UNL     1       1.234  -1.341   1.682  0.00  0.00    -0.079 C 
BRANCH  33  34
ATOM     34  C   UNL     1      -0.178  -1.929   1.696  0.00  0.00    -0.019 C 
BRANCH  34  35
ATOM     35  C   UNL     1      -0.963  -1.397   0.495  0.00  0.00    -0.005 C 
ATOM     36  C   UNL     1      -2.376  -1.986   0.509  0.00  0.00    +0.004 C 
ENDBRANCH  34  35
ENDBRANCH  33  34
ENDBRANCH  31  33
BRANCH  31  37
ATOM     37  C   UNL     1       3.318  -1.243   2.867  0.00  0.00    -0.079 C 
BRANCH  37  38
ATOM     38  C   UNL     1       3.112   0.227   3.238  0.00  0.00    -0.019 C 
BRANCH  38  40
ATOM     39  C   UNL     1       4.264   2.397   3.693  0.00  0.00    +0.004 C 
ATOM     40  C   UNL     1       4.470   0.927   3.321  0.00  0.00    -0.005 C 
ENDBRANCH  38  40
ENDBRANCH  37  38
ENDBRANCH  31  37
ENDBRANCH  30  31
ENDBRANCH  29  30
ENDBRANCH  28  29
ENDBRANCH   1  28
TORSDOF 17
