REMARK  Name = ZINC14180358
REMARK  5 active torsions:
REMARK  status: ('A' for Active; 'I' for Inactive)
REMARK    1  A    between atoms: C_1  and  C_2
REMARK    2  A    between atoms: C_7  and  N_8
REMARK    3  A    between atoms: C_9  and  C_11
REMARK    4  A    between atoms: C_13  and  C_21
REMARK    5  A    between atoms: C_17  and  C_20
REMARK                            x       y       z     vdW  Elec       q    Type
REMARK                         _______ _______ _______ _____ _____    ______ ____
ROOT
ATOM      1  C   UNL     1       0.154   1.333  -0.018  0.00  0.00    +0.053 A 
ATOM      2  C   UNL     1      -1.104   1.936  -0.009  0.00  0.00    +0.037 A 
ATOM      3  C   UNL     1      -1.191   3.317   0.057  0.00  0.00    +0.049 A 
ATOM      4  N   UNL     1      -0.117   4.076   0.100  0.00  0.00    -0.215 NA
ATOM      5  C   UNL     1       1.105   3.564   0.089  0.00  0.00    +0.259 A 
ATOM      6  C   UNL     1       1.284   2.171   0.029  0.00  0.00    +0.076 A 
ATOM      7  C   UNL     1       2.727   1.934   0.032  0.00  0.00    +0.091 A 
ATOM      8  N   UNL     1       3.310   3.093   0.088  0.00  0.00    -0.080 NA
ATOM      9  O   UNL     1       2.335   4.116   0.124  0.00  0.00    -0.334 OA
ATOM     10  C   UNL     1       3.411   0.592  -0.021  0.00  0.00    +0.070 C 
ENDROOT
BRANCH   1  12
ATOM     11  N   UNL     1      -0.600  -0.929   0.541  0.00  0.00    -0.281 N 
ATOM     12  C   UNL     1       0.295  -0.138  -0.083  0.00  0.00    +0.249 C 
ATOM     13  O   UNL     1       1.219  -0.634  -0.698  0.00  0.00    -0.270 OA
ATOM     14  H   UNL     1      -1.369  -0.537   0.984  0.00  0.00    +0.155 HD
BRANCH  11  21
ATOM     15  C   UNL     1      -1.751  -2.419   2.674  0.00  0.00    +0.046 C 
ATOM     16  C   UNL     1      -0.966  -3.082   1.572  0.00  0.00    -0.028 A 
ATOM     17  C   UNL     1      -0.792  -4.452   1.575  0.00  0.00    +0.025 A 
ATOM     18  C   UNL     1      -0.068  -5.061   0.565  0.00  0.00    +0.041 A 
ATOM     19  C   UNL     1       0.481  -4.300  -0.452  0.00  0.00    +0.022 A 
ATOM     20  C   UNL     1       0.305  -2.931  -0.463  0.00  0.00    +0.025 A 
ATOM     21  C   UNL     1      -0.422  -2.317   0.549  0.00  0.00    +0.037 A 
ATOM     22 CL   UNL     1       0.154  -6.783   0.575  0.00  0.00    -0.084 Cl
ENDBRANCH  11  21
ENDBRANCH   1  12
BRANCH   3  23
ATOM     23  C   UNL     1      -2.550   3.968   0.073  0.00  0.00    +0.038 C 
ATOM     24  C   UNL     1      -3.747   3.115  -0.355  0.00  0.00    +0.010 C 
ATOM     25  C   UNL     1      -3.227   4.224  -1.274  0.00  0.00    +0.010 C 
ENDBRANCH   3  23
TORSDOF 3
