REMARK  Name = ZINC03354913
REMARK  6 active torsions:
REMARK  status: ('A' for Active; 'I' for Inactive)
REMARK    1  A    between atoms: C_4  and  C_7
REMARK    2  A    between atoms: C_7  and  C_9
REMARK    3  A    between atoms: C_7  and  S_21
REMARK    4  A    between atoms: C_9  and  C_11
REMARK    5  A    between atoms: S_21  and  C_22
REMARK    6  A    between atoms: C_25  and  C_27
REMARK                            x       y       z     vdW  Elec       q    Type
REMARK                         _______ _______ _______ _____ _____    ______ ____
ROOT
ATOM      1  C   UNL     1       4.254  -0.804  -0.042  0.00  0.00    +0.157 C 
ENDROOT
BRANCH   1   5
ATOM      2  C   UNL     1       4.635  -2.250   3.959  0.00  0.00    +0.000 A 
ATOM      3  C   UNL     1       3.928  -2.982   3.024  0.00  0.00    +0.000 A 
ATOM      4  C   UNL     1       3.804  -2.515   1.729  0.00  0.00    +0.005 A 
ATOM      5  C   UNL     1       4.388  -1.314   1.369  0.00  0.00    -0.027 A 
ATOM      6  C   UNL     1       5.100  -0.585   2.303  0.00  0.00    +0.005 A 
ATOM      7  C   UNL     1       5.220  -1.050   3.599  0.00  0.00    +0.000 A 
ENDBRANCH   1   5
BRANCH   1   8
ATOM      8  C   UNL     1       3.562   0.534  -0.029  0.00  0.00    +0.183 C 
ATOM      9  O   UNL     1       4.217   1.556  -0.030  0.00  0.00    -0.290 OA
BRANCH   8  10
ATOM     10  C   UNL     1       2.146   0.600  -0.015  0.00  0.00    +0.044 A 
ATOM     11  C   UNL     1       1.268  -0.463  -0.013  0.00  0.00    +0.095 A 
ATOM     12  N   UNL     1       0.002  -0.004   0.002  0.00  0.00    -0.360 N 
ATOM     13  H   UNL     1      -0.788  -0.566   0.006  0.00  0.00    +0.165 HD
ATOM     14  C   UNL     1      -0.017   1.376   0.010  0.00  0.00    +0.047 A 
ATOM     15  C   UNL     1       1.315   1.820  -0.001  0.00  0.00    +0.010 A 
ATOM     16  C   UNL     1       1.598   3.182   0.004  0.00  0.00    +0.011 A 
ATOM     17  C   UNL     1       0.565   4.094   0.019  0.00  0.00    +0.001 A 
ATOM     18  C   UNL     1      -0.752   3.658   0.029  0.00  0.00    +0.002 A 
ATOM     19  C   UNL     1      -1.046   2.312   0.030  0.00  0.00    +0.026 A 
ENDBRANCH   8  10
ENDBRANCH   1   8
BRANCH   1  20
ATOM     20  S   UNL     1       5.898  -0.626  -0.778  0.00  0.00    -0.049 S 
BRANCH  20  21
ATOM     21  C   UNL     1       6.405  -2.313  -0.807  0.00  0.00    +0.279 A 
ATOM     22  N   UNL     1       5.706  -3.341  -0.386  0.00  0.00    -0.101 NA
ATOM     23  N   UNL     1       6.384  -4.421  -0.558  0.00  0.00    -0.103 NA
ATOM     24  C   UNL     1       7.545  -4.126  -1.097  0.00  0.00    +0.284 A 
ATOM     25  O   UNL     1       7.579  -2.785  -1.270  0.00  0.00    -0.408 OA
BRANCH  24  26
ATOM     26  C   UNL     1       8.608  -5.077  -1.451  0.00  0.00    +0.191 A 
ATOM     27  C   UNL     1       8.563  -6.428  -1.277  0.00  0.00    +0.055 A 
ATOM     28  C   UNL     1       9.786  -6.938  -1.752  0.00  0.00    +0.042 A 
ATOM     29  C   UNL     1      10.511  -5.888  -2.188  0.00  0.00    +0.196 A 
ATOM     30  O   UNL     1       9.794  -4.766  -2.009  0.00  0.00    -0.458 OA
ENDBRANCH  24  26
ENDBRANCH  20  21
ENDBRANCH   1  20
TORSDOF 6
