REMARK  Name = ZINC22208385
REMARK  12 active torsions:
REMARK  status: ('A' for Active; 'I' for Inactive)
REMARK    1  A    between atoms: C_1  and  C_2
REMARK    2  A    between atoms: C_2  and  C_3
REMARK    3  A    between atoms: C_7  and  C_33
REMARK    4  A    between atoms: C_8  and  N_9
REMARK    5  A    between atoms: C_10  and  C_12
REMARK    6  A    between atoms: C_12  and  O_13
REMARK    7  A    between atoms: O_13  and  C_14
REMARK    8  A    between atoms: C_14  and  C_16
REMARK    9  A    between atoms: C_16  and  N_17
REMARK   10  A    between atoms: C_22  and  C_29
REMARK   11  A    between atoms: C_25  and  C_27
REMARK   12  A    between atoms: C_25  and  C_28
REMARK                            x       y       z     vdW  Elec       q    Type
REMARK                         _______ _______ _______ _____ _____    ______ ____
ROOT
ATOM      1  C   UNL     1       6.750   5.060  -1.667  0.00  0.00    +0.326 C 
ATOM      2  O   UNL     1       7.731   4.370  -1.524  0.00  0.00    -0.249 OA
ENDROOT
BRANCH   1   3
ATOM      3  O   UNL     1       5.532   4.556  -1.416  0.00  0.00    -0.454 OA
BRANCH   3   4
ATOM      4  C   UNL     1       5.469   3.174  -0.974  0.00  0.00    +0.328 C 
BRANCH   4   6
ATOM      5  N   UNL     1       3.728   1.541  -0.326  0.00  0.00    -0.282 N 
ATOM      6  C   UNL     1       4.031   2.786  -0.743  0.00  0.00    +0.255 C 
ATOM      7  O   UNL     1       3.147   3.595  -0.931  0.00  0.00    -0.272 OA
ATOM      8  H   UNL     1       4.532   0.834  -0.076  0.00  0.00    +0.155 HD
BRANCH   5  14
ATOM      9  C   UNL     1       1.910   0.655   0.994  0.00  0.00    -0.026 A 
ATOM     10  C   UNL     1       0.589   0.268   1.104  0.00  0.00    +0.005 A 
ATOM     11  C   UNL     1      -0.256   0.371   0.014  0.00  0.00    +0.001 A 
ATOM     12  C   UNL     1       0.218   0.862  -1.188  0.00  0.00    +0.005 A 
ATOM     13  C   UNL     1       1.538   1.251  -1.305  0.00  0.00    -0.029 A 
ATOM     14  C   UNL     1       2.390   1.148  -0.212  0.00  0.00    +0.040 A 
ATOM     15  C   UNL     1       2.055   1.786  -2.615  0.00  0.00    +0.045 C 
BRANCH   9  17
ATOM     16  C   UNL     1       2.880   1.883   2.918  0.00  0.00    +0.009 C 
ATOM     17  C   UNL     1       2.830   0.542   2.182  0.00  0.00    +0.033 C 
ENDBRANCH   9  17
ENDBRANCH   5  14
ENDBRANCH   4   6
ENDBRANCH   3   4
ENDBRANCH   1   3
BRANCH   1  18
ATOM     18  C   UNL     1       6.895   6.487  -2.129  0.00  0.00    +0.238 C 
BRANCH  18  19
ATOM     19  N   UNL     1       8.312   6.793  -2.333  0.00  0.00    -0.213 N 
ATOM     20  C   UNL     1       9.124   7.306  -1.384  0.00  0.00    +0.247 C 
ATOM     21  O   UNL     1       8.786   7.707  -0.291  0.00  0.00    -0.273 OA
ATOM     22  C   UNL     1      10.509   7.295  -1.985  0.00  0.00    +0.113 C 
ATOM     23  C   UNL     1      11.163   8.664  -1.864  0.00  0.00    +0.038 C 
ATOM     24  C   UNL     1      11.586   8.915  -0.416  0.00  0.00    -0.011 C 
ATOM     25  C   UNL     1      12.618   7.862  -0.018  0.00  0.00    +0.009 C 
ATOM     26  C   UNL     1      12.021   6.460  -0.089  0.00  0.00    -0.032 C 
ATOM     27  C   UNL     1      11.363   6.175  -1.428  0.00  0.00    +0.041 C 
ATOM     28  C   UNL     1      11.028   6.253   1.058  0.00  0.00    +0.011 C 
ATOM     29  C   UNL     1      13.171   5.448   0.105  0.00  0.00    +0.011 C 
ATOM     30  C   UNL     1      12.215  10.308  -0.307  0.00  0.00    +0.007 C 
ATOM     31  N   UNL     1      10.244   7.021  -3.417  0.00  0.00    -0.285 N 
ATOM     32  C   UNL     1       8.963   6.620  -3.490  0.00  0.00    +0.310 C 
ATOM     33  O   UNL     1       8.453   6.154  -4.490  0.00  0.00    -0.252 OA
ATOM     34  H   UNL     1      11.042   7.163  -4.161  0.00  0.00    +0.151 HD
ENDBRANCH  18  19
ENDBRANCH   1  18
TORSDOF 7
