REMARK  Name = ZINC39678373
REMARK  10 active torsions:
REMARK  status: ('A' for Active; 'I' for Inactive)
REMARK    1  A    between atoms: C_1  and  C_2
REMARK    2  A    between atoms: C_2  and  C_3
REMARK    3  A    between atoms: C_2  and  C_4
REMARK    4  A    between atoms: C_4  and  C_6
REMARK    5  A    between atoms: C_4  and  O_35
REMARK    6  A    between atoms: C_10  and  C_19
REMARK    7  A    between atoms: N_21  and  C_22
REMARK    8  A    between atoms: C_22  and  C_23
REMARK    9  A    between atoms: C_28  and  N_29
REMARK   10  A    between atoms: O_35  and  C_36
REMARK                            x       y       z     vdW  Elec       q    Type
REMARK                         _______ _______ _______ _____ _____    ______ ____
ROOT
ATOM      1  C   UNL     1      -2.451   0.018  -1.494  0.00  0.00    +0.257 C 
ATOM      2  O   UNL     1      -3.531   0.569  -1.445  0.00  0.00    -0.272 OA
ATOM      3  N   UNL     1      -2.036  -0.551  -2.643  0.00  0.00    -0.297 N 
ATOM      4  C   UNL     1      -0.764  -1.268  -2.894  0.00  0.00    +0.121 C 
ATOM      5  C   UNL     1      -1.158  -2.456  -3.800  0.00  0.00    +0.100 C 
ATOM      6  C   UNL     1      -2.460  -2.011  -4.486  0.00  0.00    -0.004 C 
ATOM      7  C   UNL     1      -2.752  -0.607  -3.940  0.00  0.00    +0.115 C 
ATOM      8  C   UNL     1      -3.599  -2.959  -4.123  0.00  0.00    -0.010 C 
ATOM      9  C   UNL     1      -4.870  -2.530  -4.862  0.00  0.00    -0.082 C 
ATOM     10  N   UNL     1      -4.628  -2.555  -6.310  0.00  0.00    +0.379 N 
ATOM     11  C   UNL     1      -3.595  -1.573  -6.662  0.00  0.00    -0.082 C 
ATOM     12  C   UNL     1      -2.271  -1.962  -5.999  0.00  0.00    -0.010 C 
ATOM     13  H   UNL     1      -4.321  -3.477  -6.582  0.00  0.00    -0.086 HD
ATOM     14  H   UNL     1      -5.483  -2.331  -6.796  0.00  0.00    -0.086 HD
ENDROOT
BRANCH   5  15
ATOM     15  C   UNL     1      -0.083  -2.713  -4.825  0.00  0.00    +0.218 C 
ATOM     16  O   UNL     1       0.427  -1.784  -5.414  0.00  0.00    -0.275 OA
ATOM     17  N   UNL     1       0.310  -3.975  -5.087  0.00  0.00    -0.311 N 
ATOM     18  H   UNL     1      -0.098  -4.718  -4.616  0.00  0.00    +0.149 HD
BRANCH  17  19
ATOM     19  C   UNL     1       1.355  -4.225  -6.083  0.00  0.00    +0.141 C 
BRANCH  19  20
ATOM     20  C   UNL     1       1.607  -5.707  -6.186  0.00  0.00    -0.009 A 
ATOM     21  C   UNL     1       2.685  -6.272  -5.533  0.00  0.00    +0.007 A 
ATOM     22  C   UNL     1       2.918  -7.631  -5.627  0.00  0.00    +0.000 A 
ATOM     23  C   UNL     1       2.072  -8.431  -6.375  0.00  0.00    +0.002 A 
ATOM     24  C   UNL     1       0.992  -7.873  -7.030  0.00  0.00    +0.023 A 
ATOM     25  C   UNL     1       0.752  -6.508  -6.933  0.00  0.00    +0.034 A 
BRANCH  25  26
ATOM     26  N   UNL     1      -0.342  -5.941  -7.590  0.00  0.00    -0.330 N 
ATOM     27  C   UNL     1      -0.215  -5.450  -8.969  0.00  0.00    +0.105 C 
ATOM     28  C   UNL     1      -1.304  -6.102  -9.827  0.00  0.00    +0.019 C 
ATOM     29  C   UNL     1      -2.672  -5.844  -9.191  0.00  0.00    +0.003 C 
ATOM     30  C   UNL     1      -2.715  -6.472  -7.796  0.00  0.00    +0.019 C 
ATOM     31  C   UNL     1      -1.643  -5.830  -6.917  0.00  0.00    +0.105 C 
ENDBRANCH  25  26
ENDBRANCH  19  20
ENDBRANCH  17  19
ENDBRANCH   5  15
BRANCH   1  32
ATOM     32  C   UNL     1      -1.573  -0.029  -0.270  0.00  0.00    +0.261 C 
BRANCH  32  34
ATOM     33  C   UNL     1      -0.651   2.250  -0.714  0.00  0.00    +0.011 C 
ATOM     34  C   UNL     1      -0.296   0.773  -0.526  0.00  0.00    +0.033 C 
ATOM     35  C   UNL     1       0.649   0.623   0.667  0.00  0.00    +0.011 C 
ENDBRANCH  32  34
BRANCH  32  36
ATOM     36  O   UNL     1      -2.275   0.534   0.841  0.00  0.00    -0.479 OA
BRANCH  36  37
ATOM     37  C   UNL     1      -2.118  -0.079   2.044  0.00  0.00    +0.122 A 
ATOM     38  C   UNL     1      -2.860   0.340   3.139  0.00  0.00    +0.045 A 
ATOM     39  C   UNL     1      -2.699  -0.284   4.361  0.00  0.00    +0.004 A 
ATOM     40  C   UNL     1      -1.798  -1.325   4.493  0.00  0.00    +0.000 A 
ATOM     41  C   UNL     1      -1.057  -1.744   3.403  0.00  0.00    +0.004 A 
ATOM     42  C   UNL     1      -1.219  -1.127   2.178  0.00  0.00    +0.045 A 
ENDBRANCH  36  37
ENDBRANCH  32  36
ENDBRANCH   1  32
TORSDOF 8
