REMARK  Name = ZINC37381126
REMARK  10 active torsions:
REMARK  status: ('A' for Active; 'I' for Inactive)
REMARK    1  A    between atoms: C_1  and  C_2
REMARK    2  A    between atoms: C_2  and  C_3
REMARK    3  A    between atoms: C_3  and  C_4
REMARK    4  A    between atoms: C_4  and  C_5
REMARK    5  A    between atoms: C_9  and  C_19
REMARK    6  A    between atoms: N_11  and  C_12
REMARK    7  A    between atoms: C_20  and  N_22
REMARK    8  A    between atoms: N_26  and  C_29
REMARK    9  A    between atoms: C_29  and  C_30
REMARK   10  A    between atoms: C_35  and  O_36
REMARK                            x       y       z     vdW  Elec       q    Type
REMARK                         _______ _______ _______ _____ _____    ______ ____
ROOT
ATOM      1  C   UNL     1       1.452  -2.536  -2.542  0.00  0.00    +0.134 A 
ATOM      2  N   UNL     1       0.735  -2.741  -3.625  0.00  0.00    -0.212 NA
ATOM      3  C   UNL     1       1.307  -3.172  -4.748  0.00  0.00    +0.169 A 
ATOM      4  C   UNL     1       2.696  -3.405  -4.756  0.00  0.00    +0.082 A 
ATOM      5  C   UNL     1       3.033  -3.850  -6.053  0.00  0.00    +0.073 A 
ATOM      6  N   UNL     1       1.948  -3.886  -6.773  0.00  0.00    -0.169 NA
ATOM      7  N   UNL     1       0.855  -3.473  -6.001  0.00  0.00    -0.214 N 
ATOM      8  C   UNL     1       4.415  -4.221  -6.525  0.00  0.00    +0.068 C 
ATOM      9  C   UNL     1       3.419  -3.169  -3.571  0.00  0.00    +0.136 A 
ATOM     10  N   UNL     1       2.758  -2.735  -2.504  0.00  0.00    -0.217 NA
ENDROOT
BRANCH   9  11
ATOM     11  N   UNL     1       4.783  -3.380  -3.521  0.00  0.00    -0.316 N 
ATOM     12  C   UNL     1       5.689  -2.235  -3.740  0.00  0.00    +0.104 C 
ATOM     13  C   UNL     1       6.873  -2.269  -2.756  0.00  0.00    +0.000 C 
ATOM     14  C   UNL     1       6.382  -2.705  -1.393  0.00  0.00    -0.077 C 
ATOM     15  N   UNL     1       6.542  -4.152  -1.263  0.00  0.00    +0.384 N 
ATOM     16  C   UNL     1       5.451  -4.917  -1.732  0.00  0.00    -0.059 C 
ATOM     17  C   UNL     1       5.274  -4.716  -3.250  0.00  0.00    +0.088 C 
ATOM     18  H   UNL     1       7.368  -4.428  -1.773  0.00  0.00    -0.081 HD
BRANCH  15  19
ATOM     19  C   UNL     1       6.755  -4.469   0.156  0.00  0.00    -0.039 C 
BRANCH  19  20
ATOM     20  C   UNL     1       7.045  -5.940   0.304  0.00  0.00    -0.022 A 
ATOM     21  C   UNL     1       6.043  -6.807   0.696  0.00  0.00    +0.005 A 
ATOM     22  C   UNL     1       6.309  -8.157   0.833  0.00  0.00    +0.000 A 
ATOM     23  C   UNL     1       7.578  -8.643   0.577  0.00  0.00    +0.004 A 
ATOM     24  C   UNL     1       8.583  -7.781   0.184  0.00  0.00    +0.045 A 
ATOM     25  C   UNL     1       8.317  -6.426   0.041  0.00  0.00    +0.118 A 
BRANCH  25  26
ATOM     26  O   UNL     1       9.303  -5.577  -0.351  0.00  0.00    -0.507 OA
ATOM     27  H   UNL     1       9.813  -5.202   0.381  0.00  0.00    +0.292 HD
ENDBRANCH  25  26
ENDBRANCH  19  20
ENDBRANCH  15  19
ENDBRANCH   9  11
BRANCH   7  28
ATOM     28  C   UNL     1      -0.474  -3.384  -6.438  0.00  0.00    +0.068 A 
ATOM     29  C   UNL     1      -1.514  -3.673  -5.566  0.00  0.00    +0.030 A 
ATOM     30  C   UNL     1      -2.822  -3.584  -5.998  0.00  0.00    +0.040 A 
ATOM     31  C   UNL     1      -3.097  -3.207  -7.302  0.00  0.00    +0.124 A 
ATOM     32  C   UNL     1      -2.061  -2.919  -8.175  0.00  0.00    +0.040 A 
ATOM     33  C   UNL     1      -0.751  -3.000  -7.744  0.00  0.00    +0.030 A 
ATOM     34  F   UNL     1      -4.378  -3.122  -7.724  0.00  0.00    -0.205 F 
ENDBRANCH   7  28
BRANCH   1  35
ATOM     35  C   UNL     1       0.758  -2.047  -1.297  0.00  0.00    +0.076 C 
BRANCH  35  36
ATOM     36  C   UNL     1       0.744  -0.517  -1.288  0.00  0.00    +0.007 C 
BRANCH  36  38
ATOM     37  C   UNL     1       0.026   1.509  -0.014  0.00  0.00    +0.004 C 
ATOM     38  C   UNL     1       0.040  -0.021  -0.023  0.00  0.00    -0.003 C 
ENDBRANCH  36  38
ENDBRANCH  35  36
ENDBRANCH   1  35
TORSDOF 8
