REMARK  Name = ZINC19218280
REMARK  6 active torsions:
REMARK  status: ('A' for Active; 'I' for Inactive)
REMARK    1  A    between atoms: C_1  and  C_2
REMARK    2  A    between atoms: C_2  and  C_3
REMARK    3  A    between atoms: C_2  and  C_4
REMARK    4  A    between atoms: C_2  and  C_5
REMARK    5  A    between atoms: N_19  and  C_20
REMARK    6  A    between atoms: C_20  and  C_21
REMARK                            x       y       z     vdW  Elec       q    Type
REMARK                         _______ _______ _______ _____ _____    ______ ____
ROOT
ATOM      1  C   UNL     1      -2.030  -3.918  -0.924  0.00  0.00    +0.109 C 
ATOM      2  C   UNL     1      -1.355  -2.746  -1.597  0.00  0.00    +0.038 A 
ATOM      3  C   UNL     1      -0.234  -2.871  -2.336  0.00  0.00    -0.016 A 
ATOM      4  C   UNL     1       0.124  -1.543  -2.816  0.00  0.00    +0.003 A 
ATOM      5  C   UNL     1       1.156  -1.033  -3.608  0.00  0.00    +0.010 A 
ATOM      6  C   UNL     1       1.207   0.304  -3.883  0.00  0.00    +0.001 A 
ATOM      7  C   UNL     1       0.240   1.164  -3.381  0.00  0.00    +0.002 A 
ATOM      8  C   UNL     1      -0.787   0.685  -2.597  0.00  0.00    +0.026 A 
ATOM      9  C   UNL     1      -0.859  -0.673  -2.305  0.00  0.00    +0.047 A 
ATOM     10  N   UNL     1      -1.740  -1.438  -1.570  0.00  0.00    -0.356 N 
ATOM     11  H   UNL     1      -2.641  -1.141  -1.012  0.00  0.00    +0.166 HD
ATOM     12  C   UNL     1       0.467  -4.183  -2.581  0.00  0.00    +0.053 C 
ATOM     13  C   UNL     1      -0.502  -5.312  -2.202  0.00  0.00    +0.090 C 
ATOM     14  N   UNL     1      -1.077  -5.039  -0.877  0.00  0.00    -0.288 NA
ENDROOT
BRANCH   1  16
ATOM     15  C   UNL     1      -3.217  -2.212   0.463  0.00  0.00    +0.012 C 
ATOM     16  C   UNL     1      -2.440  -3.530   0.498  0.00  0.00    -0.017 C 
ATOM     17  C   UNL     1      -3.325  -4.628   1.091  0.00  0.00    +0.012 C 
ATOM     18  C   UNL     1      -1.188  -3.361   1.362  0.00  0.00    +0.012 C 
ENDBRANCH   1  16
BRANCH  14  19
ATOM     19  C   UNL     1      -1.708  -6.243  -0.319  0.00  0.00    +0.139 C 
BRANCH  19  20
ATOM     20  C   UNL     1      -1.004  -7.468  -0.844  0.00  0.00    +0.041 A 
ATOM     21  C   UNL     1      -0.005  -8.130  -0.229  0.00  0.00    +0.024 A 
ATOM     22  C   UNL     1       0.361  -9.211  -1.057  0.00  0.00    +0.020 A 
ATOM     23  C   UNL     1      -0.423  -9.166  -2.152  0.00  0.00    +0.094 A 
ATOM     24  N   UNL     1      -1.266  -8.096  -2.030  0.00  0.00    -0.288 N 
ATOM     25  C   UNL     1      -2.231  -7.711  -2.959  0.00  0.00    +0.235 A 
ATOM     26  N   UNL     1      -2.984  -6.652  -2.706  0.00  0.00    -0.220 NA
ATOM     27  C   UNL     1      -3.906  -6.256  -3.568  0.00  0.00    +0.116 A 
ATOM     28  C   UNL     1      -4.085  -6.971  -4.742  0.00  0.00    +0.039 A 
ATOM     29  C   UNL     1      -3.282  -8.078  -4.972  0.00  0.00    +0.116 A 
ATOM     30  N   UNL     1      -2.376  -8.415  -4.069  0.00  0.00    -0.220 NA
ENDBRANCH  19  20
ENDBRANCH  14  19
TORSDOF 3
