REMARK  Name = ZINC06192991
REMARK  16 active torsions:
REMARK  status: ('A' for Active; 'I' for Inactive)
REMARK    1  A    between atoms: C_1  and  C_2
REMARK    2  A    between atoms: C_2  and  N_66
REMARK    3  A    between atoms: C_3  and  C_4
REMARK    4  A    between atoms: C_3  and  N_66
REMARK    5  A    between atoms: C_5  and  C_6
REMARK    6  A    between atoms: C_5  and  N_66
REMARK    7  A    between atoms: C_6  and  C_7
REMARK    8  A    between atoms: C_7  and  N_8
REMARK    9  A    between atoms: N_8  and  C_9
REMARK   10  A    between atoms: N_8  and  C_26
REMARK   11  A    between atoms: C_9  and  C_10
REMARK   12  A    between atoms: C_26  and  N_28
REMARK   13  A    between atoms: N_28  and  C_29
REMARK   14  A    between atoms: C_29  and  C_30
REMARK   15  A    between atoms: C_30  and  O_31
REMARK   16  A    between atoms: O_31  and  C_32
REMARK                            x       y       z     vdW  Elec       q    Type
REMARK                         _______ _______ _______ _____ _____    ______ ____
ROOT
ATOM      1  N   UNL     1      -1.360  -0.067  -0.302  0.00  0.00    -0.308 N 
ENDROOT
BRANCH   1   2
ATOM      2  C   UNL     1      -0.348  -0.900   0.013  0.00  0.00    +0.133 C 
ATOM      3  S   UNL     1       1.187  -0.265   0.423  0.00  0.00    -0.019 S 
BRANCH   2   4
ATOM      4  N   UNL     1      -0.546  -2.233   0.004  0.00  0.00    -0.324 N 
ATOM      5  H   UNL     1      -1.416  -2.593  -0.228  0.00  0.00    +0.148 HD
BRANCH   4   6
ATOM      6  C   UNL     1       0.554  -3.139   0.347  0.00  0.00    +0.131 C 
BRANCH   6   7
ATOM      7  C   UNL     1       0.068  -4.587   0.261  0.00  0.00    +0.178 C 
BRANCH   7   8
ATOM      8  O   UNL     1      -0.270  -4.897  -1.093  0.00  0.00    -0.381 OA
ATOM      9  C   UNL     1      -0.738  -6.233  -1.284  0.00  0.00    +0.194 C 
ENDBRANCH   7   8
ENDBRANCH   6   7
ENDBRANCH   4   6
ENDBRANCH   2   4
ENDBRANCH   1   2
BRANCH   1  10
ATOM     10  C   UNL     1      -1.146   1.382  -0.293  0.00  0.00    +0.105 C 
BRANCH  10  11
ATOM     11  C   UNL     1      -1.462   1.936   1.098  0.00  0.00    +0.000 C 
BRANCH  11  12
ATOM     12  C   UNL     1      -1.238   3.449   1.108  0.00  0.00    -0.077 C 
BRANCH  12  13
ATOM     13  N   UNL     1      -1.568   3.971   2.450  0.00  0.00    +0.379 N 
ATOM     14  H   UNL     1      -2.503   3.641   2.716  0.00  0.00    -0.082 HD
BRANCH  13  16
ATOM     15  C   UNL     1       0.826   3.932   3.063  0.00  0.00    -0.017 C 
ATOM     16  C   UNL     1      -0.586   3.479   3.439  0.00  0.00    -0.082 C 
ENDBRANCH  13  16
BRANCH  13  17
ATOM     17  C   UNL     1      -1.569   5.449   2.431  0.00  0.00    -0.082 C 
ATOM     18  C   UNL     1      -2.258   5.957   3.700  0.00  0.00    -0.017 C 
ENDBRANCH  13  17
ENDBRANCH  12  13
ENDBRANCH  11  12
ENDBRANCH  10  11
ENDBRANCH   1  10
BRANCH   1  19
ATOM     19  C   UNL     1      -2.674  -0.611  -0.653  0.00  0.00    +0.147 C 
BRANCH  19  20
ATOM     20  C   UNL     1      -2.740  -0.846  -2.140  0.00  0.00    +0.035 A 
ATOM     21  C   UNL     1      -2.450  -2.072  -2.645  0.00  0.00    +0.020 A 
ATOM     22  C   UNL     1      -2.528  -2.270  -4.091  0.00  0.00    +0.003 A 
ATOM     23  C   UNL     1      -2.245  -3.514  -4.667  0.00  0.00    +0.059 A 
ATOM     24  C   UNL     1      -2.321  -3.670  -6.035  0.00  0.00    +0.163 A 
ATOM     25  C   UNL     1      -2.681  -2.590  -6.847  0.00  0.00    +0.164 A 
ATOM     26  C   UNL     1      -2.962  -1.355  -6.286  0.00  0.00    +0.075 A 
ATOM     27  C   UNL     1      -2.888  -1.182  -4.911  0.00  0.00    +0.053 A 
ATOM     28  N   UNL     1      -3.164   0.041  -4.335  0.00  0.00    -0.322 N 
ATOM     29  H   UNL     1      -3.419   0.813  -4.917  0.00  0.00    +0.169 HD
ATOM     30  C   UNL     1      -3.095   0.211  -3.003  0.00  0.00    +0.254 A 
ATOM     31  O   UNL     1      -3.345   1.306  -2.530  0.00  0.00    -0.268 OA
ATOM     32  O   UNL     1      -2.763  -2.735  -8.197  0.00  0.00    -0.485 OA
ATOM     33  C   UNL     1      -2.114  -3.879  -8.762  0.00  0.00    +0.270 C 
ATOM     34  C   UNL     1      -2.487  -5.108  -7.922  0.00  0.00    +0.270 C 
ATOM     35  O   UNL     1      -2.040  -4.886  -6.580  0.00  0.00    -0.485 OA
ENDBRANCH  19  20
ENDBRANCH   1  19
TORSDOF 13
