REMARK  Name = ZINC35679220
REMARK  6 active torsions:
REMARK  status: ('A' for Active; 'I' for Inactive)
REMARK    1  A    between atoms: C_3  and  S_9
REMARK    2  A    between atoms: C_5  and  C_6
REMARK    3  A    between atoms: C_6  and  C_7
REMARK    4  A    between atoms: C_7  and  N_8
REMARK    5  A    between atoms: S_9  and  N_12
REMARK    6  A    between atoms: N_12  and  C_13
REMARK                            x       y       z     vdW  Elec       q    Type
REMARK                         _______ _______ _______ _____ _____    ______ ____
ROOT
ATOM      1  S   UNL     1       4.001   1.932  -0.026  0.00  0.00    +0.098 S 
ATOM      2  O   UNL     1       4.799   0.900  -0.590  0.00  0.00    -0.148 OA
ATOM      3  O   UNL     1       3.957   3.244  -0.570  0.00  0.00    -0.148 OA
ENDROOT
BRANCH   1   6
ATOM      4  C   UNL     1      -0.016   1.351   0.009  0.00  0.00    +0.013 A 
ATOM      5  C   UNL     1       1.183   2.038   0.002  0.00  0.00    +0.037 A 
ATOM      6  C   UNL     1       2.343   1.336  -0.013  0.00  0.00    +0.148 A 
ATOM      7  S   UNL     1       1.754  -0.349  -0.017  0.00  0.00    -0.073 S 
ATOM      8  C   UNL     1       0.002  -0.004   0.002  0.00  0.00    -0.010 A 
BRANCH   8   9
ATOM      9  C   UNL     1      -1.155  -0.969   0.008  0.00  0.00    +0.023 C 
BRANCH   9  10
ATOM     10  C   UNL     1      -1.562  -1.288  -1.432  0.00  0.00    -0.081 C 
BRANCH  10  11
ATOM     11  N   UNL     1      -2.690  -2.228  -1.426  0.00  0.00    +0.378 N 
ATOM     12  H   UNL     1      -2.958  -2.438  -2.376  0.00  0.00    -0.090 HD
ATOM     13  H   UNL     1      -2.416  -3.079  -0.957  0.00  0.00    -0.090 HD
ATOM     14  H   UNL     1      -3.471  -1.813  -0.940  0.00  0.00    -0.090 HD
ENDBRANCH  10  11
ENDBRANCH   9  10
ENDBRANCH   8   9
ENDBRANCH   1   6
BRANCH   1  15
ATOM     15  N   UNL     1       4.477   2.089   1.552  0.00  0.00    -0.096 NA
BRANCH  15  16
ATOM     16  C   UNL     1       5.763   2.549   1.852  0.00  0.00    +0.094 A 
ATOM     17  C   UNL     1       6.640   2.879   0.827  0.00  0.00    +0.049 A 
ATOM     18  C   UNL     1       7.911   3.333   1.126  0.00  0.00    +0.061 A 
ATOM     19  C   UNL     1       8.310   3.458   2.446  0.00  0.00    +0.061 A 
ATOM     20  C   UNL     1       7.438   3.130   3.469  0.00  0.00    +0.043 A 
ATOM     21  C   UNL     1       6.164   2.681   3.176  0.00  0.00    +0.067 A 
ATOM     22 CL   UNL     1       5.068   2.277   4.460  0.00  0.00    -0.081 Cl
ATOM     23 CL   UNL     1       9.907   4.028   2.818  0.00  0.00    -0.082 Cl
ATOM     24 CL   UNL     1       9.008   3.745  -0.154  0.00  0.00    -0.082 Cl
ENDBRANCH  15  16
ENDBRANCH   1  15
TORSDOF 6
