REMARK  Name = ZINC67180984
REMARK  11 active torsions:
REMARK  status: ('A' for Active; 'I' for Inactive)
REMARK    1  A    between atoms: C_1  and  C_2
REMARK    2  A    between atoms: C_4  and  C_23
REMARK    3  A    between atoms: C_6  and  O_21
REMARK    4  A    between atoms: C_7  and  C_8
REMARK    5  A    between atoms: C_8  and  N_9
REMARK    6  A    between atoms: C_10  and  C_12
REMARK    7  A    between atoms: C_12  and  C_14
REMARK    8  A    between atoms: C_12  and  N_17
REMARK    9  A    between atoms: C_14  and  C_15
REMARK   10  A    between atoms: C_14  and  C_16
REMARK   11  A    between atoms: O_21  and  C_22
REMARK                            x       y       z     vdW  Elec       q    Type
REMARK                         _______ _______ _______ _____ _____    ______ ____
ROOT
ATOM      1  N   UNL     1      -1.486  -0.107   3.075  0.00  0.00    -0.309 N 
ATOM      2  C   UNL     1      -1.653   0.767   4.087  0.00  0.00    +0.234 C 
ATOM      3  O   UNL     1      -0.686   1.242   4.645  0.00  0.00    -0.274 OA
ATOM      4  H   UNL     1      -2.257  -0.540   2.677  0.00  0.00    +0.149 HD
ENDROOT
BRANCH   1   5
ATOM      5  C   UNL     1      -0.140  -0.404   2.578  0.00  0.00    +0.145 C 
BRANCH   5  12
ATOM      6  C   UNL     1      -0.426   0.492  -0.184  0.00  0.00    +0.044 C 
ATOM      7  C   UNL     1      -0.364  -0.978   0.145  0.00  0.00    -0.039 A 
ATOM      8  C   UNL     1      -0.437  -1.934  -0.859  0.00  0.00    +0.027 A 
ATOM      9  C   UNL     1      -0.377  -3.271  -0.523  0.00  0.00    +0.042 A 
ATOM     10  N   UNL     1      -0.253  -3.648   0.736  0.00  0.00    -0.218 NA
ATOM     11  C   UNL     1      -0.181  -2.767   1.720  0.00  0.00    +0.220 A 
ATOM     12  C   UNL     1      -0.229  -1.404   1.455  0.00  0.00    +0.034 A 
ATOM     13  C   UNL     1      -0.455  -4.315  -1.607  0.00  0.00    +0.066 C 
BRANCH  11  14
ATOM     14  O   UNL     1      -0.055  -3.198   3.000  0.00  0.00    -0.479 OA
ATOM     15  C   UNL     1      -0.006  -4.611   3.207  0.00  0.00    +0.279 C 
ENDBRANCH  11  14
ENDBRANCH   5  12
ENDBRANCH   1   5
BRANCH   2  16
ATOM     16  C   UNL     1      -3.041   1.156   4.526  0.00  0.00    +0.163 C 
BRANCH  16  17
ATOM     17  N   UNL     1      -3.021   1.521   5.945  0.00  0.00    -0.288 N 
ATOM     18  C   UNL     1      -4.143   1.416   6.684  0.00  0.00    +0.298 C 
ATOM     19  O   UNL     1      -5.172   1.018   6.173  0.00  0.00    -0.253 OA
ATOM     20  N   UNL     1      -4.124   1.752   7.989  0.00  0.00    -0.313 N 
ATOM     21  H   UNL     1      -2.200   1.839   6.352  0.00  0.00    +0.151 HD
ATOM     22  H   UNL     1      -3.303   2.070   8.396  0.00  0.00    +0.146 HD
ATOM     23  H   UNL     1      -4.932   1.677   8.521  0.00  0.00    +0.146 HD
ENDBRANCH  16  17
BRANCH  16  24
ATOM     24  C   UNL     1      -3.522   2.350   3.699  0.00  0.00    +0.012 C 
ATOM     25  C   UNL     1      -3.600   1.950   2.224  0.00  0.00    +0.009 C 
ATOM     26  C   UNL     1      -4.908   2.781   4.184  0.00  0.00    +0.009 C 
ENDBRANCH  16  24
ENDBRANCH   2  16
TORSDOF 6
