REMARK  Name = ZINC37333611
REMARK  6 active torsions:
REMARK  status: ('A' for Active; 'I' for Inactive)
REMARK    1  A    between atoms: C_1  and  C_2
REMARK    2  A    between atoms: C_8  and  N_10
REMARK    3  A    between atoms: N_10  and  C_11
REMARK    4  A    between atoms: C_14  and  S_18
REMARK    5  A    between atoms: C_16  and  N_17
REMARK    6  A    between atoms: S_18  and  N_21
REMARK                            x       y       z     vdW  Elec       q    Type
REMARK                         _______ _______ _______ _____ _____    ______ ____
ROOT
ATOM      1  C   UNL     1       0.764   0.098   3.647  0.00  0.00    +0.048 A 
ATOM      2  C   UNL     1       2.116  -0.207   3.696  0.00  0.00    +0.027 A 
ATOM      3  C   UNL     1       2.813  -0.071   4.882  0.00  0.00    +0.030 A 
ATOM      4  C   UNL     1       2.167   0.369   6.022  0.00  0.00    +0.107 A 
ATOM      5  C   UNL     1       0.820   0.677   5.982  0.00  0.00    +0.053 A 
ATOM      6  C   UNL     1       0.114   0.548   4.796  0.00  0.00    +0.048 A 
ENDROOT
BRANCH   6   7
ATOM      7  N   UNL     1      -1.250   0.863   4.752  0.00  0.00    -0.356 N 
ATOM      8  H   UNL     1      -1.743   0.769   3.922  0.00  0.00    +0.142 HD
ATOM      9  H   UNL     1      -1.701   1.176   5.552  0.00  0.00    +0.142 HD
ENDBRANCH   6   7
BRANCH   4  10
ATOM     10  S   UNL     1       3.063   0.540   7.529  0.00  0.00    +0.056 S 
ATOM     11  O   UNL     1       2.111   0.447   8.580  0.00  0.00    -0.153 OA
ATOM     12  O   UNL     1       4.183  -0.330   7.437  0.00  0.00    -0.153 OA
BRANCH  10  13
ATOM     13  N   UNL     1       3.664   2.082   7.570  0.00  0.00    -0.204 NA
ATOM     14  H   UNL     1       3.488   2.691   6.836  0.00  0.00    +0.144 HD
ATOM     15  H   UNL     1       4.193   2.377   8.328  0.00  0.00    +0.144 HD
ENDBRANCH  10  13
ENDBRANCH   4  10
BRANCH   1  16
ATOM     16  N   UNL     1       0.056  -0.038   2.447  0.00  0.00    -0.339 N 
ATOM     17  H   UNL     1      -0.888   0.180   2.413  0.00  0.00    +0.146 HD
BRANCH  16  24
ATOM     18  C   UNL     1      -0.019   1.526   0.010  0.00  0.00    +0.009 C 
ATOM     19  C   UNL     1       0.002  -0.004   0.002  0.00  0.00    +0.006 C 
ATOM     20  C   UNL     1       0.718  -0.497  -1.257  0.00  0.00    +0.005 C 
ATOM     21  C   UNL     1       0.739  -2.027  -1.265  0.00  0.00    +0.000 C 
ATOM     22  C   UNL     1       1.479  -2.534  -0.026  0.00  0.00    +0.002 C 
ATOM     23  C   UNL     1       0.763  -2.041   1.233  0.00  0.00    +0.022 C 
ATOM     24  C   UNL     1       0.742  -0.511   1.242  0.00  0.00    +0.073 C 
ENDBRANCH  16  24
ENDBRANCH   1  16
TORSDOF 5
