REMARK  Name = ZINC35533866
REMARK  9 active torsions:
REMARK  status: ('A' for Active; 'I' for Inactive)
REMARK    1  A    between atoms: C_1  and  C_2
REMARK    2  A    between atoms: C_2  and  C_3
REMARK    3  A    between atoms: C_2  and  C_4
REMARK    4  A    between atoms: C_2  and  C_5
REMARK    5  A    between atoms: C_8  and  C_23
REMARK    6  A    between atoms: N_14  and  C_16
REMARK    7  A    between atoms: C_23  and  N_24
REMARK    8  A    between atoms: N_24  and  C_25
REMARK    9  A    between atoms: C_25  and  C_26
REMARK                            x       y       z     vdW  Elec       q    Type
REMARK                         _______ _______ _______ _____ _____    ______ ____
ROOT
ATOM      1  C   UNL     1       0.707  -0.490  -1.238  0.00  0.00    +0.078 A 
ATOM      2  C   UNL     1       0.917  -1.843  -1.595  0.00  0.00    +0.041 A 
ATOM      3  C   UNL     1       0.579  -3.072  -0.985  0.00  0.00    +0.020 A 
ATOM      4  C   UNL     1       0.931  -4.234  -1.597  0.00  0.00    +0.001 A 
ATOM      5  C   UNL     1       1.624  -4.202  -2.821  0.00  0.00    +0.252 A 
ATOM      6  O   UNL     1       1.937  -5.249  -3.363  0.00  0.00    -0.268 OA
ATOM      7  N   UNL     1       1.946  -3.031  -3.401  0.00  0.00    -0.307 N 
ATOM      8  H   UNL     1       2.423  -3.028  -4.246  0.00  0.00    +0.170 HD
ATOM      9  C   UNL     1       1.605  -1.844  -2.811  0.00  0.00    +0.145 A 
ATOM     10  N   UNL     1       1.795  -0.544  -3.158  0.00  0.00    -0.216 N 
ATOM     11  N   UNL     1       1.224   0.264  -2.167  0.00  0.00    -0.168 NA
ENDROOT
BRANCH  10  12
ATOM     12  C   UNL     1       2.446  -0.090  -4.313  0.00  0.00    +0.068 A 
ATOM     13  C   UNL     1       3.527  -0.795  -4.824  0.00  0.00    +0.029 A 
ATOM     14  C   UNL     1       4.168  -0.345  -5.962  0.00  0.00    +0.022 A 
ATOM     15  C   UNL     1       3.733   0.808  -6.592  0.00  0.00    +0.041 A 
ATOM     16  C   UNL     1       2.657   1.513  -6.083  0.00  0.00    +0.022 A 
ATOM     17  C   UNL     1       2.009   1.064  -4.950  0.00  0.00    +0.029 A 
ATOM     18 CL   UNL     1       4.541   1.371  -8.022  0.00  0.00    -0.084 Cl
ENDBRANCH  10  12
BRANCH   1  20
ATOM     19  C   UNL     1      -0.019   1.526   0.010  0.00  0.00    +0.017 C 
ATOM     20  C   UNL     1       0.002  -0.004   0.002  0.00  0.00    +0.007 C 
ATOM     21  C   UNL     1       0.742  -0.511   1.242  0.00  0.00    +0.017 C 
ATOM     22  C   UNL     1      -1.433  -0.534   0.013  0.00  0.00    +0.017 C 
ENDBRANCH   1  20
BRANCH   4  23
ATOM     23  C   UNL     1       0.581  -5.555  -0.963  0.00  0.00    -0.041 C 
BRANCH  23  24
ATOM     24  N   UNL     1      -0.682  -6.050  -1.528  0.00  0.00    +0.385 N 
ATOM     25  H   UNL     1      -1.417  -5.383  -1.345  0.00  0.00    -0.085 HD
ATOM     26  H   UNL     1      -0.579  -6.171  -2.525  0.00  0.00    -0.085 HD
BRANCH  24  27
ATOM     27  C   UNL     1      -1.024  -7.338  -0.911  0.00  0.00    -0.045 C 
BRANCH  27  28
ATOM     28  C   UNL     1      -2.319  -7.845  -1.491  0.00  0.00    -0.046 A 
ATOM     29  C   UNL     1      -3.501  -7.678  -0.794  0.00  0.00    +0.003 A 
ATOM     30  C   UNL     1      -4.689  -8.143  -1.326  0.00  0.00    +0.000 A 
ATOM     31  C   UNL     1      -4.695  -8.776  -2.555  0.00  0.00    +0.001 A 
ATOM     32  C   UNL     1      -3.514  -8.944  -3.253  0.00  0.00    +0.020 A 
ATOM     33  C   UNL     1      -2.325  -8.473  -2.724  0.00  0.00    +0.042 A 
ATOM     34 CL   UNL     1      -0.842  -8.678  -3.602  0.00  0.00    -0.083 Cl
ENDBRANCH  27  28
ENDBRANCH  24  27
ENDBRANCH  23  24
ENDBRANCH   4  23
TORSDOF 6
