REMARK  Name = ZINC36502678
REMARK  14 active torsions:
REMARK  status: ('A' for Active; 'I' for Inactive)
REMARK    1  A    between atoms: C_1  and  C_2
REMARK    2  A    between atoms: C_5  and  S_8
REMARK    3  A    between atoms: S_8  and  C_11
REMARK    4  A    between atoms: C_11  and  N_12
REMARK    5  A    between atoms: C_13  and  C_15
REMARK    6  A    between atoms: C_15  and  C_17
REMARK    7  A    between atoms: C_15  and  N_25
REMARK    8  A    between atoms: C_20  and  C_24
REMARK    9  A    between atoms: C_22  and  C_23
REMARK   10  A    between atoms: N_25  and  C_26
REMARK   11  A    between atoms: C_26  and  C_27
REMARK   12  A    between atoms: C_32  and  C_34
REMARK   13  A    between atoms: C_35  and  C_36
REMARK   14  A    between atoms: C_35  and  C_37
REMARK                            x       y       z     vdW  Elec       q    Type
REMARK                         _______ _______ _______ _____ _____    ______ ____
ROOT
ATOM      1  C   UNL     1       3.283  -4.946   3.419  0.00  0.00    +0.193 C 
ENDROOT
BRANCH   1   2
ATOM      2  C   UNL     1       2.657  -3.744   4.077  0.00  0.00    -0.015 A 
ATOM      3  C   UNL     1       1.321  -3.457   3.866  0.00  0.00    +0.006 A 
ATOM      4  C   UNL     1       0.747  -2.354   4.469  0.00  0.00    +0.004 A 
ATOM      5  C   UNL     1       1.508  -1.538   5.285  0.00  0.00    -0.050 A 
ATOM      6  C   UNL     1       2.843  -1.825   5.497  0.00  0.00    +0.007 A 
ATOM      7  C   UNL     1       3.416  -2.930   4.897  0.00  0.00    -0.045 A 
ATOM      8  C   UNL     1       4.871  -3.246   5.133  0.00  0.00    +0.044 C 
ATOM      9  C   UNL     1       0.882  -0.335   5.942  0.00  0.00    +0.044 C 
ENDBRANCH   1   2
BRANCH   1  11
ATOM     10  N   UNL     1       2.522  -4.787   1.071  0.00  0.00    -0.294 N 
ATOM     11  C   UNL     1       2.419  -5.396   2.269  0.00  0.00    +0.239 C 
ATOM     12  O   UNL     1       1.632  -6.306   2.422  0.00  0.00    -0.273 OA
ATOM     13  H   UNL     1       3.098  -4.014   0.967  0.00  0.00    +0.150 HD
BRANCH  10  14
ATOM     14  C   UNL     1       1.762  -5.294  -0.075  0.00  0.00    +0.278 C 
BRANCH  14  15
ATOM     15  S   UNL     1       0.207  -4.372  -0.225  0.00  0.00    +0.013 S 
ATOM     16  O   UNL     1      -0.432  -4.281   1.041  0.00  0.00    -0.168 OA
ATOM     17  O   UNL     1      -0.513  -4.808  -1.369  0.00  0.00    -0.168 OA
BRANCH  15  22
ATOM     18  C   UNL     1       1.871   1.282  -1.518  0.00  0.00    +0.044 C 
ATOM     19  C   UNL     1       1.456  -0.130  -1.195  0.00  0.00    -0.050 A 
ATOM     20  C   UNL     1       1.227  -1.034  -2.216  0.00  0.00    +0.005 A 
ATOM     21  C   UNL     1       0.846  -2.329  -1.919  0.00  0.00    +0.027 A 
ATOM     22  C   UNL     1       0.694  -2.721  -0.602  0.00  0.00    +0.090 A 
ATOM     23  C   UNL     1       0.924  -1.817   0.418  0.00  0.00    +0.027 A 
ATOM     24  C   UNL     1       1.309  -0.523   0.122  0.00  0.00    +0.005 A 
ENDBRANCH  15  22
ENDBRANCH  14  15
ENDBRANCH  10  14
ENDBRANCH   1  11
BRANCH   1  25
ATOM     25  N   UNL     1       3.401  -6.031   4.396  0.00  0.00    -0.275 N 
ATOM     26  C   UNL     1       4.041  -7.170   4.064  0.00  0.00    +0.241 C 
ATOM     27  O   UNL     1       4.522  -7.296   2.954  0.00  0.00    -0.271 OA
BRANCH  26  28
ATOM     28  C   UNL     1       4.159  -8.260   5.045  0.00  0.00    +0.066 C 
ATOM     29  C   UNL     1       4.792  -9.383   4.718  0.00  0.00    -0.071 C 
ATOM     30  C   UNL     1       5.387  -9.539   3.342  0.00  0.00    +0.039 C 
ATOM     31  C   UNL     1       4.912 -10.500   5.723  0.00  0.00    +0.039 C 
ENDBRANCH  26  28
BRANCH  25  32
ATOM     32  C   UNL     1       2.821  -5.880   5.733  0.00  0.00    +0.183 C 
BRANCH  32  33
ATOM     33  C   UNL     1       1.428  -6.454   5.745  0.00  0.00    +0.122 A 
ATOM     34  C   UNL     1       1.093  -7.697   6.133  0.00  0.00    +0.046 A 
ATOM     35  C   UNL     1      -0.308  -7.810   5.984  0.00  0.00    +0.041 A 
ATOM     36  C   UNL     1      -0.746  -6.628   5.513  0.00  0.00    +0.195 A 
ATOM     37  O   UNL     1       0.309  -5.809   5.376  0.00  0.00    -0.466 OA
ENDBRANCH  32  33
ENDBRANCH  25  32
ENDBRANCH   1  25
TORSDOF 9
