REMARK  Name = ZINC40826572
REMARK  11 active torsions:
REMARK  status: ('A' for Active; 'I' for Inactive)
REMARK    1  A    between atoms: C_1  and  C_2
REMARK    2  A    between atoms: C_2  and  C_3
REMARK    3  A    between atoms: C_3  and  C_5
REMARK    4  A    between atoms: C_3  and  N_6
REMARK    5  A    between atoms: C_7  and  C_9
REMARK    6  A    between atoms: C_10  and  C_34
REMARK    7  A    between atoms: N_18  and  N_19
REMARK    8  A    between atoms: C_20  and  C_22
REMARK    9  A    between atoms: C_22  and  C_23
REMARK   10  A    between atoms: C_30  and  C_33
REMARK   11  A    between atoms: C_31  and  C_32
REMARK                            x       y       z     vdW  Elec       q    Type
REMARK                         _______ _______ _______ _____ _____    ______ ____
ROOT
ATOM      1  C   UNL     1      -0.213   0.412  -4.817  0.00  0.00    +0.193 A 
ATOM      2  C   UNL     1       0.288   0.583  -6.077  0.00  0.00    +0.009 A 
ATOM      3  C   UNL     1      -0.797   0.945  -6.884  0.00  0.00    +0.042 A 
ATOM      4  C   UNL     1      -1.914   0.982  -6.082  0.00  0.00    +0.115 A 
ATOM      5  O   UNL     1      -1.544   0.651  -4.847  0.00  0.00    -0.454 OA
ATOM      6  C   UNL     1      -3.283   1.341  -6.600  0.00  0.00    +0.075 C 
ATOM      7  C   UNL     1      -3.144   2.119  -7.911  0.00  0.00    +0.014 C 
ATOM      8  C   UNL     1      -2.269   1.349  -8.906  0.00  0.00    +0.058 C 
ATOM      9  C   UNL     1      -0.864   1.253  -8.330  0.00  0.00    +0.070 C 
ATOM     10  N   UNL     1       0.199   1.429  -9.054  0.00  0.00    -0.184 NA
ATOM     11  C   UNL     1       1.722   0.415  -6.510  0.00  0.00    +0.048 C 
ENDROOT
BRANCH   1  13
ATOM     12  N   UNL     1      -0.055  -0.114  -2.441  0.00  0.00    -0.306 N 
ATOM     13  C   UNL     1       0.561   0.028  -3.631  0.00  0.00    +0.280 C 
ATOM     14  O   UNL     1       1.759  -0.163  -3.722  0.00  0.00    -0.267 OA
ATOM     15  H   UNL     1      -1.010   0.038  -2.368  0.00  0.00    +0.149 HD
BRANCH  12  16
ATOM     16  C   UNL     1       0.718  -0.497  -1.257  0.00  0.00    +0.070 C 
ATOM     17  C   UNL     1       0.849  -2.021  -1.205  0.00  0.00    +0.028 C 
BRANCH  16  19
ATOM     18  C   UNL     1      -0.019   1.526   0.010  0.00  0.00    +0.005 C 
ATOM     19  C   UNL     1       0.002  -0.004   0.002  0.00  0.00    +0.018 C 
ENDBRANCH  16  19
ENDBRANCH  12  16
ENDBRANCH   1  13
BRANCH  10  20
ATOM     20  N   UNL     1       0.076   1.719 -10.419  0.00  0.00    -0.206 N 
ATOM     21  C   UNL     1       1.179   1.902 -11.171  0.00  0.00    +0.237 C 
ATOM     22  O   UNL     1       2.279   1.816 -10.665  0.00  0.00    -0.274 OA
ATOM     23  H   UNL     1      -0.803   1.788 -10.823  0.00  0.00    +0.177 HD
BRANCH  21  24
ATOM     24  C   UNL     1       1.047   2.213 -12.639  0.00  0.00    +0.136 C 
BRANCH  24  25
ATOM     25  C   UNL     1       2.418   2.370 -13.245  0.00  0.00    +0.007 A 
ATOM     26  C   UNL     1       3.093   3.514 -13.423  0.00  0.00    +0.200 A 
ATOM     27  O   UNL     1       4.285   3.265 -13.992  0.00  0.00    -0.462 OA
ATOM     28  C   UNL     1       4.446   1.945 -14.213  0.00  0.00    +0.138 A 
ATOM     29  C   UNL     1       3.286   1.300 -13.752  0.00  0.00    +0.024 A 
ATOM     30  C   UNL     1       3.169  -0.085 -13.848  0.00  0.00    +0.012 A 
ATOM     31  C   UNL     1       4.200  -0.819 -14.394  0.00  0.00    +0.004 A 
ATOM     32  C   UNL     1       5.347  -0.184 -14.846  0.00  0.00    -0.044 A 
ATOM     33  C   UNL     1       5.472   1.187 -14.764  0.00  0.00    -0.005 A 
ATOM     34  C   UNL     1       6.726   1.861 -15.258  0.00  0.00    +0.048 C 
ATOM     35  C   UNL     1       6.466  -1.000 -15.440  0.00  0.00    +0.044 C 
ENDBRANCH  24  25
ENDBRANCH  21  24
ENDBRANCH  10  20
TORSDOF 6
