REMARK  Name = ZINC63732974
REMARK  8 active torsions:
REMARK  status: ('A' for Active; 'I' for Inactive)
REMARK    1  A    between atoms: C_7  and  C_10
REMARK    2  A    between atoms: C_10  and  C_11
REMARK    3  A    between atoms: C_11  and  N_12
REMARK    4  A    between atoms: C_13  and  C_15
REMARK    5  A    between atoms: C_19  and  S_21
REMARK    6  A    between atoms: S_21  and  N_24
REMARK    7  A    between atoms: N_24  and  C_25
REMARK    8  A    between atoms: C_25  and  C_26
REMARK                            x       y       z     vdW  Elec       q    Type
REMARK                         _______ _______ _______ _____ _____    ______ ____
ROOT
ATOM      1  C   UNL     1      -1.734  -6.535  -2.622  0.00  0.00    +0.039 A 
ATOM      2  C   UNL     1      -2.247  -7.021  -1.418  0.00  0.00    +0.013 A 
ATOM      3  C   UNL     1      -3.108  -8.098  -1.423  0.00  0.00    +0.003 A 
ATOM      4  C   UNL     1      -3.463  -8.698  -2.619  0.00  0.00    +0.028 A 
ATOM      5  C   UNL     1      -2.959  -8.221  -3.815  0.00  0.00    +0.106 A 
ATOM      6  C   UNL     1      -2.101  -7.141  -3.824  0.00  0.00    +0.041 A 
ENDROOT
BRANCH   1   8
ATOM      7  N   UNL     1      -0.458  -4.798  -1.460  0.00  0.00    -0.311 N 
ATOM      8  C   UNL     1      -0.811  -5.380  -2.623  0.00  0.00    +0.244 C 
ATOM      9  O   UNL     1      -0.370  -4.956  -3.674  0.00  0.00    -0.270 OA
ATOM     10  H   UNL     1      -0.810  -5.136  -0.622  0.00  0.00    +0.149 HD
BRANCH   7  11
ATOM     11  C   UNL     1       0.457  -3.653  -1.462  0.00  0.00    +0.109 C 
BRANCH  11  12
ATOM     12  C   UNL     1       0.691  -3.186  -0.024  0.00  0.00    +0.052 C 
BRANCH  12  19
ATOM     13  C   UNL     1      -0.016   1.348   0.009  0.00  0.00    +0.001 A 
ATOM     14  C   UNL     1       1.166   2.101   0.002  0.00  0.00    +0.002 A 
ATOM     15  C   UNL     1       2.391   1.535  -0.013  0.00  0.00    +0.026 A 
ATOM     16  C   UNL     1       2.529   0.120  -0.022  0.00  0.00    +0.043 A 
ATOM     17  N   UNL     1       3.587  -0.654  -0.037  0.00  0.00    -0.380 N 
ATOM     18  C   UNL     1       3.143  -2.053  -0.041  0.00  0.00    +0.144 C 
ATOM     19  C   UNL     1       1.631  -2.008  -0.025  0.00  0.00    -0.040 C 
ATOM     20  C   UNL     1       1.295  -0.698  -0.014  0.00  0.00    -0.001 A 
ATOM     21  C   UNL     1       0.002  -0.004   0.002  0.00  0.00    +0.010 A 
ATOM     22  H   UNL     1       4.509  -0.353  -0.045  0.00  0.00    +0.160 HD
ENDBRANCH  12  19
ENDBRANCH  11  12
ENDBRANCH   7  11
ENDBRANCH   1   8
BRANCH   5  23
ATOM     23  S   UNL     1      -3.417  -8.992  -5.332  0.00  0.00    +0.059 S 
ATOM     24  O   UNL     1      -2.383  -8.704  -6.263  0.00  0.00    -0.153 OA
ATOM     25  O   UNL     1      -3.805 -10.321  -5.011  0.00  0.00    -0.153 OA
BRANCH  23  26
ATOM     26  N   UNL     1      -4.777  -8.222  -5.881  0.00  0.00    -0.187 NA
ATOM     27  H   UNL     1      -5.616  -8.705  -5.943  0.00  0.00    +0.148 HD
BRANCH  26  28
ATOM     28  C   UNL     1      -4.712  -6.812  -6.274  0.00  0.00    +0.137 C 
BRANCH  28  29
ATOM     29  C   UNL     1      -5.962  -6.449  -7.078  0.00  0.00    +0.134 C 
ATOM     30  C   UNL     1      -5.897  -4.970  -7.534  0.00  0.00    +0.035 C 
ATOM     31  C   UNL     1      -6.820  -5.005  -8.782  0.00  0.00    +0.031 C 
ATOM     32  C   UNL     1      -6.545  -6.412  -9.354  0.00  0.00    +0.160 C 
ATOM     33  O   UNL     1      -6.014  -7.216  -8.292  0.00  0.00    -0.375 OA
ENDBRANCH  28  29
ENDBRANCH  26  28
ENDBRANCH  23  26
ENDBRANCH   5  23
TORSDOF 8
