REMARK  Name = ZINC36051534
REMARK  12 active torsions:
REMARK  status: ('A' for Active; 'I' for Inactive)
REMARK    1  A    between atoms: C_1  and  C_2
REMARK    2  A    between atoms: C_2  and  C_3
REMARK    3  A    between atoms: C_2  and  C_4
REMARK    4  A    between atoms: C_6  and  N_31
REMARK    5  A    between atoms: C_8  and  S_10
REMARK    6  A    between atoms: S_10  and  C_11
REMARK    7  A    between atoms: C_11  and  C_12
REMARK    8  A    between atoms: C_15  and  C_18
REMARK    9  A    between atoms: N_20  and  C_21
REMARK   10  A    between atoms: C_21  and  C_22
REMARK   11  A    between atoms: N_31  and  C_32
REMARK   12  A    between atoms: N_31  and  C_33
REMARK                            x       y       z     vdW  Elec       q    Type
REMARK                         _______ _______ _______ _____ _____    ______ ____
ROOT
ATOM      1  C   UNL     1      -6.436  -2.691  -3.430  0.00  0.00    -0.037 A 
ATOM      2  C   UNL     1      -7.195  -1.748  -4.099  0.00  0.00    +0.005 A 
ATOM      3  C   UNL     1      -7.897  -2.101  -5.233  0.00  0.00    +0.013 A 
ATOM      4  C   UNL     1      -7.840  -3.414  -5.705  0.00  0.00    +0.037 A 
ATOM      5  C   UNL     1      -7.072  -4.360  -5.025  0.00  0.00    +0.013 A 
ATOM      6  C   UNL     1      -6.370  -3.992  -3.896  0.00  0.00    +0.005 A 
ENDROOT
BRANCH   4   7
ATOM      7  C   UNL     1      -8.591  -3.800  -6.919  0.00  0.00    +0.244 C 
ATOM      8  O   UNL     1      -9.259  -2.973  -7.509  0.00  0.00    -0.270 OA
ATOM      9  N   UNL     1      -8.534  -5.068  -7.372  0.00  0.00    -0.307 N 
ATOM     10  H   UNL     1      -8.000  -5.727  -6.901  0.00  0.00    +0.149 HD
BRANCH   9  11
ATOM     11  C   UNL     1      -9.277  -5.450  -8.575  0.00  0.00    +0.140 C 
BRANCH  11  12
ATOM     12  C   UNL     1      -9.046  -6.911  -8.864  0.00  0.00    -0.027 A 
ATOM     13  C   UNL     1      -7.989  -7.296  -9.669  0.00  0.00    +0.009 A 
ATOM     14  C   UNL     1      -7.773  -8.635  -9.937  0.00  0.00    +0.050 A 
ATOM     15  C   UNL     1      -8.616  -9.594  -9.401  0.00  0.00    +0.166 A 
ATOM     16  C   UNL     1      -9.681  -9.207  -8.591  0.00  0.00    +0.167 A 
ATOM     17  C   UNL     1      -9.888  -7.864  -8.321  0.00  0.00    +0.054 A 
ATOM     18  O   UNL     1     -10.355 -10.324  -8.191  0.00  0.00    -0.453 OA
ATOM     19  C   UNL     1      -9.939 -11.367  -9.093  0.00  0.00    +0.466 C 
ATOM     20  O   UNL     1      -8.623 -10.955  -9.509  0.00  0.00    -0.453 OA
ENDBRANCH  11  12
ENDBRANCH   9  11
ENDBRANCH   4   7
BRANCH   1  21
ATOM     21  C   UNL     1      -5.671  -2.298  -2.192  0.00  0.00    +0.112 C 
BRANCH  21  22
ATOM     22  S   UNL     1      -4.014  -1.727  -2.661  0.00  0.00    -0.081 S 
BRANCH  22  27
ATOM     23  C   UNL     1      -1.412  -0.526   0.013  0.00  0.00    +0.050 A 
ATOM     24  C   UNL     1      -2.093  -0.671   1.206  0.00  0.00    +0.067 A 
ATOM     25  C   UNL     1      -3.402  -1.158   1.171  0.00  0.00    +0.126 A 
ATOM     26  N   UNL     1      -3.945  -1.464  -0.003  0.00  0.00    -0.207 NA
ATOM     27  C   UNL     1      -3.257  -1.310  -1.125  0.00  0.00    +0.190 A 
ATOM     28  N   UNL     1      -2.016  -0.845  -1.122  0.00  0.00    -0.226 NA
BRANCH  23  30
ATOM     29  C   UNL     1      -0.019   1.526   0.010  0.00  0.00    +0.014 C 
ATOM     30  C   UNL     1       0.002  -0.004   0.002  0.00  0.00    +0.032 C 
ATOM     31  C   UNL     1       0.742  -0.511   1.242  0.00  0.00    +0.014 C 
ENDBRANCH  23  30
BRANCH  25  32
ATOM     32  N   UNL     1      -4.123  -1.320   2.342  0.00  0.00    -0.315 N 
ATOM     33  C   UNL     1      -3.555  -0.878   3.619  0.00  0.00    +0.131 C 
BRANCH  32  34
ATOM     34  C   UNL     1      -5.453  -1.933   2.305  0.00  0.00    +0.075 C 
ATOM     35  C   UNL     1      -6.486  -0.943   2.846  0.00  0.00    +0.022 C 
ATOM     36  C   UNL     1      -7.875  -1.584   2.807  0.00  0.00    +0.002 C 
ATOM     37  C   UNL     1      -7.878  -2.847   3.670  0.00  0.00    +0.000 C 
ATOM     38  C   UNL     1      -6.845  -3.837   3.129  0.00  0.00    +0.002 C 
ATOM     39  C   UNL     1      -5.456  -3.196   3.168  0.00  0.00    +0.022 C 
ENDBRANCH  32  34
ENDBRANCH  25  32
ENDBRANCH  22  27
ENDBRANCH  21  22
ENDBRANCH   1  21
TORSDOF 9
