REMARK  Name = ZINC31807880
REMARK  9 active torsions:
REMARK  status: ('A' for Active; 'I' for Inactive)
REMARK    1  A    between atoms: C_1  and  C_2
REMARK    2  A    between atoms: C_5  and  C_11
REMARK    3  A    between atoms: C_6  and  C_10
REMARK    4  A    between atoms: C_7  and  O_8
REMARK    5  A    between atoms: O_8  and  C_9
REMARK    6  A    between atoms: C_11  and  N_12
REMARK    7  A    between atoms: N_15  and  C_18
REMARK    8  A    between atoms: C_18  and  C_20
REMARK    9  A    between atoms: C_18  and  C_31
REMARK                            x       y       z     vdW  Elec       q    Type
REMARK                         _______ _______ _______ _____ _____    ______ ____
ROOT
ATOM      1  N   UNL     1      -1.701  -4.525   0.405  0.00  0.00    -0.300 NA
ATOM      2  C   UNL     1      -2.088  -3.960   1.706  0.00  0.00    +0.066 C 
ATOM      3  C   UNL     1      -3.572  -4.237   1.957  0.00  0.00    -0.062 C 
ATOM      4  N   UNL     1      -3.808  -5.687   1.944  0.00  0.00    +0.393 N 
ATOM      5  C   UNL     1      -3.440  -6.232   0.630  0.00  0.00    -0.062 C 
ATOM      6  C   UNL     1      -1.955  -5.972   0.368  0.00  0.00    +0.066 C 
ATOM      7  H   UNL     1      -3.248  -6.126   2.659  0.00  0.00    -0.080 HD
ENDROOT
BRANCH   1   8
ATOM      8  C   UNL     1      -0.294  -4.230   0.101  0.00  0.00    +0.137 C 
BRANCH   8  13
ATOM      9  C   UNL     1       0.311   1.357  -1.057  0.00  0.00    +0.049 C 
ATOM     10  C   UNL     1       0.136  -0.116  -0.788  0.00  0.00    +0.007 A 
ATOM     11  C   UNL     1       0.544  -0.662   0.411  0.00  0.00    +0.089 A 
ATOM     12  N   UNL     1       0.393  -1.950   0.654  0.00  0.00    -0.363 N 
ATOM     13  C   UNL     1      -0.148  -2.767  -0.230  0.00  0.00    +0.037 A 
ATOM     14  C   UNL     1      -0.581  -2.299  -1.453  0.00  0.00    +0.012 A 
ATOM     15  C   UNL     1      -0.445  -0.944  -1.746  0.00  0.00    +0.129 A 
ATOM     16  C   UNL     1      -1.198  -3.239  -2.456  0.00  0.00    +0.049 C 
ATOM     17  H   UNL     1       0.689  -2.307   1.506  0.00  0.00    +0.165 HD
BRANCH  15  18
ATOM     18  O   UNL     1      -0.864  -0.444  -2.936  0.00  0.00    -0.494 OA
ATOM     19  C   UNL     1       0.085  -0.433  -4.005  0.00  0.00    +0.277 C 
ENDBRANCH  15  18
ENDBRANCH   8  13
ENDBRANCH   1   8
BRANCH   4  20
ATOM     20  C   UNL     1      -5.230  -5.953   2.203  0.00  0.00    +0.080 C 
BRANCH  20  21
ATOM     21  C   UNL     1      -5.607  -5.395   3.551  0.00  0.00    -0.025 A 
ATOM     22  C   UNL     1      -4.767  -5.088   4.552  0.00  0.00    +0.086 A 
ATOM     23  N   UNL     1      -5.472  -4.606   5.622  0.00  0.00    -0.360 N 
ATOM     24  H   UNL     1      -5.082  -4.317   6.462  0.00  0.00    +0.165 HD
ATOM     25  C   UNL     1      -6.817  -4.591   5.327  0.00  0.00    +0.048 A 
ATOM     26  C   UNL     1      -6.960  -5.079   4.016  0.00  0.00    +0.002 A 
ATOM     27  C   UNL     1      -8.229  -5.172   3.442  0.00  0.00    +0.011 A 
ATOM     28  C   UNL     1      -9.328  -4.785   4.157  0.00  0.00    +0.016 A 
ATOM     29  C   UNL     1      -9.192  -4.300   5.450  0.00  0.00    +0.020 A 
ATOM     30  C   UNL     1      -7.949  -4.208   6.039  0.00  0.00    +0.041 A 
ATOM     31 BR   UNL     1     -10.728  -3.771   6.418  0.00  0.00    -0.050 Br
ENDBRANCH  20  21
BRANCH  20  32
ATOM     32  C   UNL     1      -5.473  -7.440   2.189  0.00  0.00    +0.347 C 
ATOM     33  O   UNL     1      -4.587  -8.206   2.527  0.00  0.00    -0.248 OA
ATOM     34  O   UNL     1      -6.556  -7.878   1.840  0.00  0.00    -0.248 OA
ENDBRANCH  20  32
ENDBRANCH   4  20
TORSDOF 6
