REMARK  Name = ZINC39295166
REMARK  3 active torsions:
REMARK  status: ('A' for Active; 'I' for Inactive)
REMARK    1  A    between atoms: N_16  and  C_24
REMARK    2  A    between atoms: C_18  and  C_21
REMARK    3  A    between atoms: C_19  and  O_20
REMARK                            x       y       z     vdW  Elec       q    Type
REMARK                         _______ _______ _______ _____ _____    ______ ____
ROOT
ATOM      1  C   UNL     1       0.203   1.196  -1.132  0.00  0.00    +0.026 A 
ATOM      2  C   UNL     1       1.272   1.961  -0.823  0.00  0.00    +0.013 A 
ATOM      3  C   UNL     1       2.562   1.385  -0.652  0.00  0.00    +0.014 A 
ATOM      4  C   UNL     1       2.667  -0.014  -0.821  0.00  0.00    +0.024 A 
ATOM      5  C   UNL     1       1.589  -0.800  -1.135  0.00  0.00    +0.041 A 
ATOM      6  C   UNL     1       0.325  -0.202  -1.297  0.00  0.00    +0.039 A 
ATOM      7  N   UNL     1      -0.744  -0.946  -1.603  0.00  0.00    -0.374 N 
ATOM      8  C   UNL     1      -2.095  -0.363  -1.606  0.00  0.00    +0.097 C 
ATOM      9  C   UNL     1      -2.774  -0.718  -2.933  0.00  0.00    -0.061 C 
ATOM     10  N   UNL     1      -2.741  -2.173  -3.125  0.00  0.00    +0.381 N 
ATOM     11  C   UNL     1      -1.351  -2.628  -3.259  0.00  0.00    -0.061 C 
ATOM     12  C   UNL     1      -0.601  -2.367  -1.954  0.00  0.00    +0.097 C 
ATOM     13  S   UNL     1       4.387  -0.352  -0.536  0.00  0.00    -0.083 S 
ATOM     14  C   UNL     1       4.924   1.308  -0.208  0.00  0.00    +0.079 A 
ATOM     15  C   UNL     1       3.762   2.078  -0.327  0.00  0.00    +0.068 A 
ATOM     16  N   UNL     1       3.886   3.444  -0.118  0.00  0.00    -0.342 N 
ATOM     17  C   UNL     1       5.054   4.013   0.184  0.00  0.00    +0.105 A 
ATOM     18  C   UNL     1       6.217   3.272   0.308  0.00  0.00    +0.122 A 
ATOM     19  C   UNL     1       6.149   1.868   0.104  0.00  0.00    +0.148 A 
ATOM     20  H   UNL     1      -3.167  -2.626  -2.330  0.00  0.00    -0.086 HD
ATOM     21  H   UNL     1      -3.253  -2.412  -3.960  0.00  0.00    -0.086 HD
ENDROOT
BRANCH  18  22
ATOM     22  C   UNL     1       7.493   3.923   0.642  0.00  0.00    +0.391 C 
ATOM     23  O   UNL     1       7.514   5.108   0.944  0.00  0.00    -0.240 OA
ATOM     24  O   UNL     1       8.533   3.279   0.617  0.00  0.00    -0.240 OA
ENDBRANCH  18  22
BRANCH  16  25
ATOM     25  C   UNL     1       2.695   4.289  -0.233  0.00  0.00    +0.087 C 
ATOM     26  C   UNL     1       2.655   5.571   0.602  0.00  0.00    +0.027 C 
ATOM     27  C   UNL     1       1.773   4.380   0.984  0.00  0.00    +0.027 C 
ENDBRANCH  16  25
BRANCH  19  28
ATOM     28  O   UNL     1       7.255   1.098   0.213  0.00  0.00    -0.505 OA
ATOM     29  H   UNL     1       8.074   1.600   0.327  0.00  0.00    +0.292 HD
ENDBRANCH  19  28
TORSDOF 3
