REMARK  Name = ZINC29956583
REMARK  6 active torsions:
REMARK  status: ('A' for Active; 'I' for Inactive)
REMARK    1  A    between atoms: C_4  and  C_7
REMARK    2  A    between atoms: C_7  and  C_9
REMARK    3  A    between atoms: C_7  and  N_23
REMARK    4  A    between atoms: C_17  and  C_19
REMARK    5  A    between atoms: C_24  and  C_26
REMARK    6  A    between atoms: C_26  and  C_27
REMARK                            x       y       z     vdW  Elec       q    Type
REMARK                         _______ _______ _______ _____ _____    ______ ____
ROOT
ATOM      1  C   UNL     1      -2.515   0.962   0.019  0.00  0.00    +0.134 C 
ENDROOT
BRANCH   1   2
ATOM      2  C   UNL     1      -1.228   1.746   0.017  0.00  0.00    -0.021 A 
ATOM      3  C   UNL     1      -0.013   1.076   0.008  0.00  0.00    +0.008 A 
ATOM      4  C   UNL     1       1.165   1.768   0.000  0.00  0.00    +0.030 A 
ATOM      5  C   UNL     1       1.151   3.165   0.008  0.00  0.00    +0.089 A 
ATOM      6  C   UNL     1      -0.078   3.845   0.024  0.00  0.00    +0.067 A 
ATOM      7  C   UNL     1      -1.265   3.124   0.032  0.00  0.00    +0.033 A 
ATOM      8  N   UNL     1       0.230   5.190   0.028  0.00  0.00    -0.335 N 
ATOM      9  H   UNL     1      -0.576   5.939   0.039  0.00  0.00    +0.167 HD
ATOM     10  C   UNL     1       1.586   5.295   0.015  0.00  0.00    +0.213 A 
ATOM     11  N   UNL     1       2.126   4.111   0.004  0.00  0.00    -0.224 NA
BRANCH  10  12
ATOM     12  C   UNL     1       2.352   6.593   0.015  0.00  0.00    +0.450 C 
ATOM     13  F   UNL     1       3.683   6.349  -0.341  0.00  0.00    -0.163 F 
ATOM     14  F   UNL     1       1.776   7.473  -0.908  0.00  0.00    -0.163 F 
ATOM     15  F   UNL     1       2.307   7.162   1.292  0.00  0.00    -0.163 F 
ENDBRANCH  10  12
ENDBRANCH   1   2
BRANCH   1  19
ATOM     16  C   UNL     1      -3.386  -0.354  -3.950  0.00  0.00    +0.000 A 
ATOM     17  C   UNL     1      -4.023   0.760  -3.436  0.00  0.00    +0.000 A 
ATOM     18  C   UNL     1      -3.741   1.186  -2.151  0.00  0.00    +0.006 A 
ATOM     19  C   UNL     1      -2.822   0.498  -1.381  0.00  0.00    -0.023 A 
ATOM     20  C   UNL     1      -2.181  -0.612  -1.897  0.00  0.00    +0.006 A 
ATOM     21  C   UNL     1      -2.466  -1.041  -3.180  0.00  0.00    +0.000 A 
ENDBRANCH   1  19
BRANCH   1  22
ATOM     22  N   UNL     1      -2.377  -0.200   0.900  0.00  0.00    -0.304 N 
ATOM     23  C   UNL     1      -3.471  -0.753   1.462  0.00  0.00    +0.218 C 
ATOM     24  O   UNL     1      -4.568  -0.288   1.238  0.00  0.00    -0.276 OA
ATOM     25  H   UNL     1      -1.382  -0.622   1.103  0.00  0.00    +0.150 HD
BRANCH  23  26
ATOM     26  C   UNL     1      -3.329  -1.949   2.368  0.00  0.00    +0.150 C 
BRANCH  26  27
ATOM     27  C   UNL     1      -4.711  -2.376   2.868  0.00  0.00    +0.268 C 
ATOM     28  C   UNL     1      -4.559  -3.493   3.870  0.00  0.00    +0.259 C 
ATOM     29  O   UNL     1      -4.486  -3.243   5.054  0.00  0.00    -0.271 OA
ATOM     30  N   UNL     1      -4.505  -4.772   3.442  0.00  0.00    -0.280 N 
ATOM     31  C   UNL     1      -4.710  -5.048   2.084  0.00  0.00    +0.076 A 
ATOM     32  C   UNL     1      -4.453  -6.310   1.573  0.00  0.00    +0.027 A 
ATOM     33  C   UNL     1      -4.653  -6.564   0.229  0.00  0.00    +0.002 A 
ATOM     34  C   UNL     1      -5.116  -5.563  -0.606  0.00  0.00    +0.004 A 
ATOM     35  C   UNL     1      -5.391  -4.305  -0.099  0.00  0.00    +0.047 A 
ATOM     36  C   UNL     1      -5.198  -4.046   1.247  0.00  0.00    +0.143 A 
ATOM     37  O   UNL     1      -5.499  -2.825   1.764  0.00  0.00    -0.477 OA
ATOM     38  H   UNL     1      -4.302  -5.582   4.157  0.00  0.00    +0.155 HD
ENDBRANCH  26  27
ENDBRANCH  23  26
ENDBRANCH   1  22
TORSDOF 6
