REMARK  Name = ZINC02324532
REMARK  7 active torsions:
REMARK  status: ('A' for Active; 'I' for Inactive)
REMARK    1  A    between atoms: C_1  and  C_2
REMARK    2  A    between atoms: C_2  and  O_3
REMARK    3  A    between atoms: O_3  and  C_4
REMARK    4  A    between atoms: C_8  and  C_10
REMARK    5  A    between atoms: C_11  and  C_12
REMARK    6  A    between atoms: C_13  and  C_26
REMARK    7  A    between atoms: C_13  and  C_27
REMARK                            x       y       z     vdW  Elec       q    Type
REMARK                         _______ _______ _______ _____ _____    ______ ____
ROOT
ATOM      1  C   UNL     1       0.372   0.835   9.728  0.00  0.00    +0.130 C 
ATOM      2  C   UNL     1       0.840   2.012  10.610  0.00  0.00    +0.034 C 
ATOM      3  C   UNL     1      -0.381   2.258  11.464  0.00  0.00    -0.017 A 
ATOM      4  C   UNL     1      -0.740   3.366  12.201  0.00  0.00    +0.006 A 
ATOM      5  C   UNL     1      -1.951   3.312  12.880  0.00  0.00    +0.000 A 
ATOM      6  C   UNL     1      -2.761   2.196  12.818  0.00  0.00    +0.002 A 
ATOM      7  C   UNL     1      -2.407   1.074  12.087  0.00  0.00    +0.023 A 
ATOM      8  C   UNL     1      -1.190   1.107  11.407  0.00  0.00    +0.035 A 
ATOM      9  N   UNL     1      -0.563   0.142  10.662  0.00  0.00    -0.304 N 
ATOM     10  C   UNL     1      -1.353  -0.831   9.935  0.00  0.00    +0.117 C 
ATOM     11  C   UNL     1      -0.443  -1.740   9.109  0.00  0.00    +0.115 C 
ATOM     12  C   UNL     1       1.012  -1.413   9.261  0.00  0.00    +0.216 C 
ATOM     13  O   UNL     1       1.829  -2.305   9.174  0.00  0.00    -0.276 OA
ATOM     14  N   UNL     1       1.446  -0.135   9.478  0.00  0.00    -0.290 N 
ATOM     15  C   UNL     1       1.168   3.239   9.757  0.00  0.00    +0.020 C 
ATOM     16  C   UNL     1       2.039   1.610  11.470  0.00  0.00    +0.020 C 
ATOM     17  H   UNL     1       2.385   0.110   9.491  0.00  0.00    +0.151 HD
ENDROOT
BRANCH   1  19
ATOM     18  C   UNL     1       0.204   0.947   7.282  0.00  0.00    +0.007 C 
ATOM     19  C   UNL     1      -0.298   1.294   8.458  0.00  0.00    +0.020 C 
BRANCH  18  24
ATOM     20  C   UNL     1      -0.547   1.458   3.634  0.00  0.00    +0.121 A 
ATOM     21  C   UNL     1      -1.687   2.248   3.704  0.00  0.00    +0.045 A 
ATOM     22  C   UNL     1      -2.213   2.604   4.932  0.00  0.00    +0.004 A 
ATOM     23  C   UNL     1      -1.602   2.186   6.096  0.00  0.00    +0.008 A 
ATOM     24  C   UNL     1      -0.453   1.396   6.036  0.00  0.00    -0.022 A 
ATOM     25  C   UNL     1       0.073   1.033   4.797  0.00  0.00    +0.053 A 
BRANCH  20  26
ATOM     26  O   UNL     1      -0.038   1.106   2.425  0.00  0.00    -0.492 OA
BRANCH  26  28
ATOM     27  C   UNL     1      -0.013   1.086   0.008  0.00  0.00    +0.048 C 
ATOM     28  C   UNL     1      -0.729   1.579   1.267  0.00  0.00    +0.225 C 
ENDBRANCH  26  28
ENDBRANCH  20  26
ENDBRANCH  18  24
ENDBRANCH   1  19
TORSDOF 4
