REMARK  Name = ZINC09269485
REMARK  10 active torsions:
REMARK  status: ('A' for Active; 'I' for Inactive)
REMARK    1  A    between atoms: C_1  and  C_2
REMARK    2  A    between atoms: C_2  and  C_3
REMARK    3  A    between atoms: C_2  and  N_67
REMARK    4  A    between atoms: C_4  and  C_5
REMARK    5  A    between atoms: C_4  and  N_67
REMARK    6  A    between atoms: C_5  and  C_6
REMARK    7  A    between atoms: C_6  and  N_7
REMARK    8  A    between atoms: C_8  and  C_10
REMARK    9  A    between atoms: C_26  and  C_27
REMARK   10  A    between atoms: C_26  and  N_67
REMARK                            x       y       z     vdW  Elec       q    Type
REMARK                         _______ _______ _______ _____ _____    ______ ____
ROOT
ATOM      1  N   UNL     1      -0.251   1.866   1.041  0.00  0.00    -0.310 N 
ATOM      2  C   UNL     1      -0.357   3.184   1.304  0.00  0.00    +0.261 C 
ATOM      3  O   UNL     1      -0.069   4.000   0.448  0.00  0.00    -0.269 OA
ATOM      4  H   UNL     1      -0.550   1.216   1.696  0.00  0.00    +0.149 HD
ENDROOT
BRANCH   2   5
ATOM      5  C   UNL     1      -0.821   3.634   2.619  0.00  0.00    +0.110 A 
ATOM      6  C   UNL     1      -1.075   2.833   3.713  0.00  0.00    +0.033 A 
ATOM      7  C   UNL     1      -1.495   3.672   4.750  0.00  0.00    +0.020 A 
ATOM      8  C   UNL     1      -1.491   4.944   4.284  0.00  0.00    +0.094 A 
ATOM      9  N   UNL     1      -1.078   4.937   2.991  0.00  0.00    -0.290 N 
ATOM     10  C   UNL     1      -0.940   6.059   2.174  0.00  0.00    +0.202 A 
ATOM     11  N   UNL     1      -0.642   6.143   0.888  0.00  0.00    -0.121 NA
ATOM     12  N   UNL     1      -0.560   7.251   0.292  0.00  0.00    -0.124 NA
ATOM     13  C   UNL     1      -0.754   8.401   0.921  0.00  0.00    +0.186 A 
ATOM     14  S   UNL     1      -1.107   7.797   2.569  0.00  0.00    -0.013 S 
ATOM     15  N   UNL     1      -0.701   9.702   0.439  0.00  0.00    -0.308 N 
ATOM     16  C   UNL     1      -1.957  10.414   0.706  0.00  0.00    +0.107 C 
ATOM     17  C   UNL     1      -1.810  11.880   0.294  0.00  0.00    +0.019 C 
ATOM     18  C   UNL     1      -1.465  11.956  -1.196  0.00  0.00    +0.003 C 
ATOM     19  C   UNL     1      -0.179  11.166  -1.454  0.00  0.00    +0.019 C 
ATOM     20  C   UNL     1      -0.373   9.720  -0.992  0.00  0.00    +0.107 C 
ENDBRANCH   2   5
BRANCH   1  21
ATOM     21  C   UNL     1       0.316   1.416  -0.232  0.00  0.00    +0.103 C 
BRANCH  21  22
ATOM     22  C   UNL     1       0.323  -0.113  -0.276  0.00  0.00    +0.000 C 
BRANCH  22  23
ATOM     23  C   UNL     1       0.915  -0.583  -1.606  0.00  0.00    -0.076 C 
BRANCH  23  24
ATOM     24  N   UNL     1       1.061  -2.054  -1.567  0.00  0.00    +0.384 N 
ATOM     25  H   UNL     1       1.489  -2.323  -0.674  0.00  0.00    -0.081 HD
BRANCH  24  27
ATOM     26  C   UNL     1      -0.834  -2.883  -0.268  0.00  0.00    -0.014 C 
ATOM     27  C   UNL     1      -0.266  -2.696  -1.677  0.00  0.00    -0.074 C 
ATOM     28  C   UNL     1      -1.216  -1.821  -2.498  0.00  0.00    -0.014 C 
ENDBRANCH  24  27
BRANCH  24  29
ATOM     29  C   UNL     1       1.933  -2.504  -2.673  0.00  0.00    -0.043 C 
BRANCH  29  30
ATOM     30  C   UNL     1       2.362  -3.923  -2.404  0.00  0.00    -0.064 A 
ATOM     31  C   UNL     1       3.443  -4.174  -1.581  0.00  0.00    +0.002 A 
ATOM     32  C   UNL     1       3.834  -5.476  -1.330  0.00  0.00    +0.000 A 
ATOM     33  C   UNL     1       3.149  -6.527  -1.911  0.00  0.00    +0.000 A 
ATOM     34  C   UNL     1       2.071  -6.276  -2.739  0.00  0.00    +0.000 A 
ATOM     35  C   UNL     1       1.677  -4.974  -2.985  0.00  0.00    +0.002 A 
ENDBRANCH  29  30
ENDBRANCH  24  29
ENDBRANCH  23  24
ENDBRANCH  22  23
ENDBRANCH  21  22
ENDBRANCH   1  21
TORSDOF 8
