REMARK  Name = ZINC02094913
REMARK  6 active torsions:
REMARK  status: ('A' for Active; 'I' for Inactive)
REMARK    1  A    between atoms: C_1  and  C_2
REMARK    2  A    between atoms: C_5  and  C_8
REMARK    3  A    between atoms: C_8  and  S_9
REMARK    4  A    between atoms: S_9  and  C_10
REMARK    5  A    between atoms: C_23  and  C_26
REMARK    6  A    between atoms: C_30  and  O_32
REMARK                            x       y       z     vdW  Elec       q    Type
REMARK                         _______ _______ _______ _____ _____    ______ ____
ROOT
ATOM      1  C   UNL     1       2.408   1.344  -0.070  0.00  0.00    +0.213 A 
ATOM      2  N   UNL     1       2.476   0.016  -0.095  0.00  0.00    -0.184 NA
ATOM      3  C   UNL     1       1.361  -0.691  -0.015  0.00  0.00    +0.248 A 
ATOM      4  C   UNL     1       0.129  -0.005   0.090  0.00  0.00    +0.156 A 
ATOM      5  N   UNL     1       0.132   1.319   0.112  0.00  0.00    -0.141 NA
ATOM      6  N   UNL     1       1.242   1.968   0.034  0.00  0.00    -0.122 NA
ATOM      7  C   UNL     1      -1.130  -0.774   0.170  0.00  0.00    +0.028 A 
ATOM      8  C   UNL     1      -2.100  -0.488   1.122  0.00  0.00    +0.012 A 
ATOM      9  C   UNL     1      -3.272  -1.220   1.150  0.00  0.00    +0.001 A 
ATOM     10  C   UNL     1      -3.485  -2.235   0.234  0.00  0.00    +0.002 A 
ATOM     11  C   UNL     1      -2.524  -2.536  -0.714  0.00  0.00    +0.024 A 
ATOM     12  C   UNL     1      -1.343  -1.819  -0.750  0.00  0.00    +0.039 A 
ATOM     13  N   UNL     1      -0.342  -2.110  -1.681  0.00  0.00    -0.305 N 
ATOM     14  C   UNL     1       0.909  -2.693  -1.207  0.00  0.00    +0.294 C 
ATOM     15  O   UNL     1       1.382  -2.044  -0.031  0.00  0.00    -0.449 OA
ATOM     16  H   UNL     1      -0.477  -1.929  -2.624  0.00  0.00    +0.150 HD
ENDROOT
BRANCH  14  17
ATOM     17  C   UNL     1       0.688  -4.153  -0.907  0.00  0.00    +0.015 A 
ATOM     18  C   UNL     1      -0.151  -4.904  -1.710  0.00  0.00    +0.009 A 
ATOM     19  C   UNL     1      -0.355  -6.244  -1.438  0.00  0.00    +0.004 A 
ATOM     20  C   UNL     1       0.279  -6.836  -0.363  0.00  0.00    +0.045 A 
ATOM     21  C   UNL     1       1.121  -6.085   0.444  0.00  0.00    +0.117 A 
ATOM     22  C   UNL     1       1.329  -4.742   0.166  0.00  0.00    +0.054 A 
BRANCH  21  23
ATOM     23  O   UNL     1       1.747  -6.666   1.501  0.00  0.00    -0.507 OA
ATOM     24  H   UNL     1       2.611  -7.043   1.288  0.00  0.00    +0.292 HD
ENDBRANCH  21  23
ENDBRANCH  14  17
BRANCH   1  25
ATOM     25  S   UNL     1       3.891   2.290  -0.176  0.00  0.00    -0.080 S 
BRANCH  25  26
ATOM     26  C   UNL     1       3.203   3.962  -0.096  0.00  0.00    +0.112 C 
BRANCH  26  31
ATOM     27  C   UNL     1       7.492   7.824  -0.387  0.00  0.00    +0.044 C 
ATOM     28  C   UNL     1       6.373   6.817  -0.311  0.00  0.00    -0.050 A 
ATOM     29  C   UNL     1       5.763   6.373  -1.469  0.00  0.00    +0.003 A 
ATOM     30  C   UNL     1       4.737   5.449  -1.400  0.00  0.00    +0.005 A 
ATOM     31  C   UNL     1       4.322   4.969  -0.172  0.00  0.00    -0.037 A 
ATOM     32  C   UNL     1       4.928   5.418   0.987  0.00  0.00    +0.005 A 
ATOM     33  C   UNL     1       5.956   6.339   0.917  0.00  0.00    +0.003 A 
ENDBRANCH  26  31
ENDBRANCH  25  26
ENDBRANCH   1  25
TORSDOF 5
