REMARK  Name = ZINC39455165
REMARK  12 active torsions:
REMARK  status: ('A' for Active; 'I' for Inactive)
REMARK    1  A    between atoms: C_1  and  C_2
REMARK    2  A    between atoms: C_4  and  C_9
REMARK    3  A    between atoms: C_5  and  C_8
REMARK    4  A    between atoms: C_9  and  C_10
REMARK    5  A    between atoms: C_10  and  N_11
REMARK    6  A    between atoms: N_11  and  C_12
REMARK    7  A    between atoms: N_11  and  C_13
REMARK    8  A    between atoms: C_13  and  C_14
REMARK    9  A    between atoms: N_16  and  C_27
REMARK   10  A    between atoms: C_18  and  C_20
REMARK   11  A    between atoms: C_30  and  O_33
REMARK   12  A    between atoms: O_33  and  C_34
REMARK                            x       y       z     vdW  Elec       q    Type
REMARK                         _______ _______ _______ _____ _____    ______ ____
ROOT
ATOM      1  C   UNL     1      -6.027   2.675  -2.414  0.00  0.00    -0.048 C 
ATOM      2  C   UNL     1      -7.320   2.437  -2.316  0.00  0.00    +0.093 C 
ATOM      3  N   UNL     1      -7.991   2.773  -3.476  0.00  0.00    -0.242 N 
ATOM      4  N   UNL     1      -7.130   3.264  -4.416  0.00  0.00    -0.225 NA
ATOM      5  C   UNL     1      -5.790   3.243  -3.796  0.00  0.00    +0.129 C 
ATOM      6  H   UNL     1      -7.386   4.202  -4.686  0.00  0.00    +0.146 HD
ENDROOT
BRANCH   5   7
ATOM      7  C   UNL     1      -4.863   2.351  -4.581  0.00  0.00    -0.022 A 
ATOM      8  C   UNL     1      -5.353   1.211  -5.191  0.00  0.00    +0.006 A 
ATOM      9  C   UNL     1      -4.504   0.392  -5.912  0.00  0.00    +0.003 A 
ATOM     10  C   UNL     1      -3.164   0.712  -6.022  0.00  0.00    +0.038 A 
ATOM     11  C   UNL     1      -2.672   1.853  -5.412  0.00  0.00    +0.124 A 
ATOM     12  C   UNL     1      -3.525   2.676  -4.696  0.00  0.00    +0.044 A 
ATOM     13  F   UNL     1      -1.362   2.166  -5.519  0.00  0.00    -0.205 F 
ENDBRANCH   5   7
BRANCH   3  14
ATOM     14  C   UNL     1      -9.370   2.630  -3.663  0.00  0.00    +0.050 A 
ATOM     15  C   UNL     1      -9.949   2.992  -4.872  0.00  0.00    +0.028 A 
ATOM     16  C   UNL     1     -11.310   2.850  -5.056  0.00  0.00    +0.047 A 
ATOM     17  C   UNL     1     -12.099   2.345  -4.033  0.00  0.00    +0.120 A 
ATOM     18  C   UNL     1     -11.522   1.983  -2.825  0.00  0.00    +0.047 A 
ATOM     19  C   UNL     1     -10.160   2.119  -2.641  0.00  0.00    +0.028 A 
BRANCH  17  20
ATOM     20  O   UNL     1     -13.440   2.206  -4.215  0.00  0.00    -0.495 OA
ATOM     21  C   UNL     1     -14.192   1.680  -3.119  0.00  0.00    +0.277 C 
ENDBRANCH  17  20
ENDBRANCH   3  14
BRANCH   1  22
ATOM     22  C   UNL     1      -4.987   2.433  -1.351  0.00  0.00    -0.045 C 
BRANCH  22  23
ATOM     23  N   UNL     1      -4.360   1.122  -1.569  0.00  0.00    +0.381 N 
ATOM     24  C   UNL     1      -5.360   0.063  -1.381  0.00  0.00    -0.096 C 
ATOM     25  H   UNL     1      -3.994   1.076  -2.508  0.00  0.00    -0.082 HD
BRANCH  23  26
ATOM     26  C   UNL     1      -3.265   0.937  -0.608  0.00  0.00    -0.074 C 
BRANCH  26  27
ATOM     27  C   UNL     1      -2.532  -0.371  -0.914  0.00  0.00    +0.016 C 
BRANCH  27  30
ATOM     28  C   UNL     1      -0.019   1.526   0.010  0.00  0.00    +0.039 C 
ATOM     29  C   UNL     1       0.002  -0.004   0.002  0.00  0.00    +0.153 C 
ATOM     30  C   UNL     1      -1.409  -0.561   0.072  0.00  0.00    -0.023 C 
ATOM     31  C   UNL     1      -1.423  -1.257   1.211  0.00  0.00    +0.061 C 
ATOM     32  N   UNL     1      -0.222  -1.193   1.828  0.00  0.00    -0.159 NA
ATOM     33  N   UNL     1       0.629  -0.523   1.230  0.00  0.00    -0.180 NA
ATOM     34  C   UNL     1      -2.617  -2.011   1.738  0.00  0.00    +0.067 C 
ENDBRANCH  27  30
ENDBRANCH  26  27
ENDBRANCH  23  26
ENDBRANCH  22  23
ENDBRANCH   1  22
TORSDOF 8
