REMARK  Name = ZINC31296907
REMARK  10 active torsions:
REMARK  status: ('A' for Active; 'I' for Inactive)
REMARK    1  A    between atoms: C_1  and  C_2
REMARK    2  A    between atoms: C_5  and  O_8
REMARK    3  A    between atoms: O_8  and  C_9
REMARK    4  A    between atoms: C_14  and  N_15
REMARK    5  A    between atoms: C_16  and  C_18
REMARK    6  A    between atoms: C_18  and  C_19
REMARK    7  A    between atoms: C_19  and  C_20
REMARK    8  A    between atoms: C_21  and  C_33
REMARK    9  A    between atoms: C_24  and  C_30
REMARK   10  A    between atoms: C_28  and  C_29
REMARK                            x       y       z     vdW  Elec       q    Type
REMARK                         _______ _______ _______ _____ _____    ______ ____
ROOT
ATOM      1  N   UNL     1      -3.619  -5.249   2.599  0.00  0.00    -0.283 N 
ATOM      2  C   UNL     1      -3.333  -4.482   1.529  0.00  0.00    +0.218 C 
ATOM      3  O   UNL     1      -4.086  -4.463   0.578  0.00  0.00    -0.275 OA
ATOM      4  H   UNL     1      -2.925  -5.286   3.451  0.00  0.00    +0.155 HD
ENDROOT
BRANCH   1  10
ATOM      5  C   UNL     1      -5.333  -6.422   3.844  0.00  0.00    +0.150 A 
ATOM      6  C   UNL     1      -6.506  -7.160   3.865  0.00  0.00    +0.048 A 
ATOM      7  C   UNL     1      -7.139  -7.486   2.680  0.00  0.00    +0.004 A 
ATOM      8  C   UNL     1      -6.609  -7.073   1.472  0.00  0.00    +0.002 A 
ATOM      9  C   UNL     1      -5.443  -6.331   1.442  0.00  0.00    +0.027 A 
ATOM     10  C   UNL     1      -4.802  -6.000   2.627  0.00  0.00    +0.076 A 
BRANCH   5  11
ATOM     11  O   UNL     1      -4.706  -6.105   5.008  0.00  0.00    -0.454 OA
BRANCH  11  16
ATOM     12  C   UNL     1      -6.772  -8.241   9.792  0.00  0.00    +0.044 C 
ATOM     13  C   UNL     1      -6.219  -7.670   8.512  0.00  0.00    -0.050 A 
ATOM     14  C   UNL     1      -5.510  -8.480   7.644  0.00  0.00    +0.007 A 
ATOM     15  C   UNL     1      -5.003  -7.958   6.470  0.00  0.00    +0.046 A 
ATOM     16  C   UNL     1      -5.205  -6.620   6.162  0.00  0.00    +0.129 A 
ATOM     17  C   UNL     1      -5.912  -5.809   7.037  0.00  0.00    +0.046 A 
ATOM     18  C   UNL     1      -6.422  -6.336   8.207  0.00  0.00    +0.007 A 
ENDBRANCH  11  16
ENDBRANCH   5  11
ENDBRANCH   1  10
BRANCH   2  19
ATOM     19  C   UNL     1      -2.079  -3.647   1.514  0.00  0.00    +0.101 C 
BRANCH  19  20
ATOM     20  C   UNL     1      -1.994  -2.877   0.194  0.00  0.00    +0.048 C 
BRANCH  20  21
ATOM     21  C   UNL     1      -0.740  -2.043   0.179  0.00  0.00    -0.006 A 
ATOM     22  C   UNL     1       0.456  -2.573  -0.327  0.00  0.00    +0.045 A 
ATOM     23  N   UNL     1       1.550  -1.845  -0.340  0.00  0.00    -0.232 NA
ATOM     24  C   UNL     1       1.544  -0.594   0.125  0.00  0.00    +0.170 A 
ATOM     25  C   UNL     1       2.532   0.393   0.235  0.00  0.00    +0.169 A 
ATOM     26  N   UNL     1       1.950   1.478   0.788  0.00  0.00    -0.229 NA
ATOM     27  C   UNL     1       0.694   1.231   1.022  0.00  0.00    +0.206 A 
ATOM     28  N   UNL     1       0.394  -0.038   0.629  0.00  0.00    -0.287 N 
ATOM     29  C   UNL     1      -0.757  -0.773   0.655  0.00  0.00    +0.028 A 
ATOM     30  C   UNL     1      -2.030  -0.180   1.204  0.00  0.00    +0.064 C 
ATOM     31  C   UNL     1       0.486  -3.983  -0.858  0.00  0.00    +0.066 C 
BRANCH  25  32
ATOM     32  C   UNL     1       3.932   0.271  -0.172  0.00  0.00    +0.264 C 
ATOM     33  O   UNL     1       4.335  -0.769  -0.661  0.00  0.00    -0.269 OA
ATOM     34  N   UNL     1       4.775   1.309  -0.006  0.00  0.00    -0.324 N 
ATOM     35  H   UNL     1       5.827   1.216  -0.312  0.00  0.00    +0.145 HD
ATOM     36  H   UNL     1       4.411   2.248   0.436  0.00  0.00    +0.145 HD
ENDBRANCH  25  32
ENDBRANCH  20  21
ENDBRANCH  19  20
ENDBRANCH   2  19
TORSDOF 7
