REMARK  Name = ZINC59453759
REMARK  4 active torsions:
REMARK  status: ('A' for Active; 'I' for Inactive)
REMARK    1  A    between atoms: C_1  and  C_2
REMARK    2  A    between atoms: C_5  and  C_8
REMARK    3  A    between atoms: C_12  and  C_13
REMARK    4  A    between atoms: C_14  and  C_15
REMARK                            x       y       z     vdW  Elec       q    Type
REMARK                         _______ _______ _______ _____ _____    ______ ____
ROOT
ATOM      1  C   UNL     1       0.059  -4.275  -0.021  0.00  0.00    +0.296 C 
ATOM      2  N   UNL     1       0.757  -4.771   1.171  0.00  0.00    -0.300 N 
ATOM      3  C   UNL     1      -0.168  -5.543   1.882  0.00  0.00    +0.123 C 
ATOM      4  C   UNL     1       0.061  -6.193   3.055  0.00  0.00    +0.090 C 
ATOM      5  C   UNL     1      -1.429  -5.524   1.135  0.00  0.00    +0.356 C 
ATOM      6  O   UNL     1      -2.451  -6.093   1.466  0.00  0.00    -0.243 OA
ATOM      7  O   UNL     1      -1.277  -4.778   0.022  0.00  0.00    -0.434 OA
ATOM      8  H   UNL     1       1.679  -4.599   1.417  0.00  0.00    +0.150 HD
ENDROOT
BRANCH   1  13
ATOM      9  C   UNL     1      -0.018   1.503   0.010  0.00  0.00    +0.044 C 
ATOM     10  C   UNL     1       0.002  -0.004   0.002  0.00  0.00    -0.050 A 
ATOM     11  C   UNL     1       0.006  -0.689  -1.199  0.00  0.00    +0.004 A 
ATOM     12  C   UNL     1       0.025  -2.071  -1.206  0.00  0.00    +0.009 A 
ATOM     13  C   UNL     1       0.040  -2.768  -0.013  0.00  0.00    +0.011 A 
ATOM     14  C   UNL     1       0.037  -2.084   1.188  0.00  0.00    +0.009 A 
ATOM     15  C   UNL     1       0.023  -0.702   1.195  0.00  0.00    +0.004 A 
ENDBRANCH   1  13
BRANCH   4  16
ATOM     16  C   UNL     1      -0.987  -6.949   3.672  0.00  0.00    -0.067 C 
ATOM     17  C   UNL     1      -1.847  -7.569   4.177  0.00  0.00    -0.062 C 
BRANCH  17  18
ATOM     18  C   UNL     1      -2.895  -8.325   4.793  0.00  0.00    +0.025 A 
ATOM     19  C   UNL     1      -4.154  -8.403   4.189  0.00  0.00    +0.017 A 
ATOM     20  C   UNL     1      -5.159  -9.133   4.789  0.00  0.00    +0.001 A 
ATOM     21  C   UNL     1      -4.923  -9.788   5.985  0.00  0.00    +0.000 A 
ATOM     22  C   UNL     1      -3.680  -9.716   6.590  0.00  0.00    +0.001 A 
ATOM     23  C   UNL     1      -2.663  -8.995   6.000  0.00  0.00    +0.017 A 
ENDBRANCH  17  18
ENDBRANCH   4  16
TORSDOF 3
