REMARK  Name = ZINC22793846
REMARK  6 active torsions:
REMARK  status: ('A' for Active; 'I' for Inactive)
REMARK    1  A    between atoms: C_4  and  S_7
REMARK    2  A    between atoms: S_7  and  C_8
REMARK    3  A    between atoms: C_13  and  N_14
REMARK    4  A    between atoms: C_15  and  C_17
REMARK    5  A    between atoms: C_17  and  N_18
REMARK    6  A    between atoms: N_21  and  C_24
REMARK                            x       y       z     vdW  Elec       q    Type
REMARK                         _______ _______ _______ _____ _____    ______ ____
ROOT
ATOM      1  N   UNL     1      -2.422   4.185  -0.359  0.00  0.00    -0.286 N 
ATOM      2  C   UNL     1      -3.672   3.684  -0.421  0.00  0.00    +0.201 C 
ATOM      3  O   UNL     1      -3.865   2.507  -0.201  0.00  0.00    -0.278 OA
ATOM      4  H   UNL     1      -2.256   5.265  -0.490  0.00  0.00    +0.155 HD
ENDROOT
BRANCH   1  10
ATOM      5  C   UNL     1      -0.067   3.671  -0.597  0.00  0.00    +0.034 A 
ATOM      6  C   UNL     1       1.005   2.820  -0.364  0.00  0.00    +0.017 A 
ATOM      7  C   UNL     1       0.813   1.642   0.331  0.00  0.00    +0.001 A 
ATOM      8  C   UNL     1      -0.445   1.306   0.797  0.00  0.00    +0.002 A 
ATOM      9  C   UNL     1      -1.520   2.144   0.565  0.00  0.00    +0.024 A 
ATOM     10  C   UNL     1      -1.336   3.332  -0.127  0.00  0.00    +0.047 A 
BRANCH   5  11
ATOM     11  S   UNL     1       0.175   5.175  -1.483  0.00  0.00    -0.088 S 
BRANCH  11  15
ATOM     12  C   UNL     1      -1.543   4.318  -5.585  0.00  0.00    +0.000 A 
ATOM     13  C   UNL     1      -1.102   5.592  -5.274  0.00  0.00    +0.001 A 
ATOM     14  C   UNL     1      -0.578   5.857  -4.025  0.00  0.00    +0.015 A 
ATOM     15  C   UNL     1      -0.494   4.842  -3.079  0.00  0.00    +0.013 A 
ATOM     16  C   UNL     1      -0.933   3.562  -3.397  0.00  0.00    +0.015 A 
ATOM     17  C   UNL     1      -1.460   3.306  -4.647  0.00  0.00    +0.001 A 
ENDBRANCH  11  15
ENDBRANCH   5  11
ENDBRANCH   1  10
BRANCH   2  18
ATOM     18  C   UNL     1      -4.830   4.586  -0.764  0.00  0.00    +0.019 C 
BRANCH  18  19
ATOM     19  N   UNL     1      -6.074   3.806  -0.768  0.00  0.00    +0.387 N 
ATOM     20  C   UNL     1      -6.072   2.816  -1.854  0.00  0.00    -0.063 C 
ATOM     21  C   UNL     1      -7.347   1.973  -1.774  0.00  0.00    +0.066 C 
ATOM     22  N   UNL     1      -8.520   2.853  -1.869  0.00  0.00    -0.301 NA
ATOM     23  C   UNL     1      -8.522   3.842  -0.783  0.00  0.00    +0.066 C 
ATOM     24  C   UNL     1      -7.247   4.686  -0.863  0.00  0.00    -0.063 C 
ATOM     25  H   UNL     1      -6.133   3.262   0.187  0.00  0.00    -0.081 HD
BRANCH  22  26
ATOM     26  C   UNL     1      -9.765   2.072  -1.873  0.00  0.00    +0.079 C 
ATOM     27  C   UNL     1      -9.787   1.135  -3.092  0.00  0.00    +0.043 C 
ATOM     28  C   UNL     1     -10.921   0.094  -2.936  0.00  0.00    +0.167 C 
ATOM     29  S   UNL     1     -11.079  -0.061  -1.110  0.00  0.00    -0.029 S 
ATOM     30  O   UNL     1     -12.374   0.374  -0.720  0.00  0.00    -0.174 OA
ATOM     31  O   UNL     1     -10.626  -1.349  -0.715  0.00  0.00    -0.174 OA
ATOM     32  C   UNL     1      -9.840   1.199  -0.588  0.00  0.00    +0.184 C 
ENDBRANCH  22  26
ENDBRANCH  18  19
ENDBRANCH   2  18
TORSDOF 6
