REMARK  Name = ZINC33436061
REMARK  8 active torsions:
REMARK  status: ('A' for Active; 'I' for Inactive)
REMARK    1  A    between atoms: C_1  and  C_2
REMARK    2  A    between atoms: C_2  and  C_3
REMARK    3  A    between atoms: C_2  and  C_4
REMARK    4  A    between atoms: C_2  and  C_5
REMARK    5  A    between atoms: C_15  and  C_16
REMARK    6  A    between atoms: C_15  and  O_20
REMARK    7  A    between atoms: C_23  and  C_26
REMARK    8  A    between atoms: C_26  and  N_28
REMARK                            x       y       z     vdW  Elec       q    Type
REMARK                         _______ _______ _______ _____ _____    ______ ____
ROOT
ATOM      1  C   UNL     1      -3.035  -1.654  -1.725  0.00  0.00    +0.041 C 
ATOM      2  C   UNL     1      -4.104  -0.567  -1.524  0.00  0.00    +0.010 C 
ATOM      3  C   UNL     1      -4.080  -0.068  -0.081  0.00  0.00    +0.001 C 
ATOM      4  C   UNL     1      -2.745   0.611   0.245  0.00  0.00    +0.014 C 
ATOM      5  C   UNL     1      -1.635  -0.440   0.168  0.00  0.00    +0.097 C 
ATOM      6  C   UNL     1      -1.723  -1.100  -1.200  0.00  0.00    +0.049 C 
ATOM      7  N   UNL     1      -0.613  -1.000  -1.793  0.00  0.00    -0.183 NA
ATOM      8  N   UNL     1       0.356  -0.275  -1.090  0.00  0.00    -0.160 N 
ATOM      9  C   UNL     1      -0.244   0.209   0.167  0.00  0.00    +0.258 C 
ATOM     10  C   UNL     1       1.659  -0.049  -1.503  0.00  0.00    +0.184 A 
ATOM     11  N   UNL     1       2.263  -0.446  -2.605  0.00  0.00    -0.221 NA
ATOM     12  C   UNL     1       3.538  -0.134  -2.844  0.00  0.00    +0.101 A 
ATOM     13  C   UNL     1       4.226   0.614  -1.921  0.00  0.00    +0.078 A 
ATOM     14  S   UNL     1       2.958   0.864  -0.684  0.00  0.00    -0.058 S 
ENDROOT
BRANCH   1  16
ATOM     15  C   UNL     1      -4.932  -3.023  -0.848  0.00  0.00    +0.011 C 
ATOM     16  C   UNL     1      -3.409  -2.909  -0.934  0.00  0.00    -0.030 C 
ATOM     17  C   UNL     1      -2.844  -4.143  -1.639  0.00  0.00    +0.011 C 
ATOM     18  C   UNL     1      -2.824  -2.815   0.477  0.00  0.00    +0.011 C 
ENDBRANCH   1  16
BRANCH   9  19
ATOM     19  C   UNL     1      -0.360   1.734   0.158  0.00  0.00    +0.438 C 
ATOM     20  F   UNL     1       0.918   2.299   0.238  0.00  0.00    -0.166 F 
ATOM     21  F   UNL     1      -0.979   2.148  -1.026  0.00  0.00    -0.166 F 
ATOM     22  F   UNL     1      -1.123   2.151   1.254  0.00  0.00    -0.166 F 
ENDBRANCH   9  19
BRANCH   9  23
ATOM     23  O   UNL     1       0.519  -0.231   1.292  0.00  0.00    -0.363 OA
ATOM     24  H   UNL     1       1.543   0.141   1.442  0.00  0.00    +0.212 HD
ENDBRANCH   9  23
BRANCH  12  25
ATOM     25  C   UNL     1       4.197  -0.586  -4.079  0.00  0.00    +0.096 C 
ATOM     26  S   UNL     1       3.329  -1.519  -5.221  0.00  0.00    -0.034 S 
BRANCH  25  27
ATOM     27  N   UNL     1       5.486  -0.265  -4.310  0.00  0.00    -0.351 N 
ATOM     28  H   UNL     1       5.979  -0.603  -5.234  0.00  0.00    +0.143 HD
ATOM     29  H   UNL     1       6.044   0.334  -3.576  0.00  0.00    +0.143 HD
ENDBRANCH  25  27
ENDBRANCH  12  25
TORSDOF 5
