REMARK  Name = ZINC07574143
REMARK  9 active torsions:
REMARK  status: ('A' for Active; 'I' for Inactive)
REMARK    1  A    between atoms: C_1  and  C_2
REMARK    2  A    between atoms: C_2  and  C_3
REMARK    3  A    between atoms: C_3  and  C_4
REMARK    4  A    between atoms: C_4  and  N_5
REMARK    5  A    between atoms: N_5  and  C_6
REMARK    6  A    between atoms: C_12  and  C_14
REMARK    7  A    between atoms: N_19  and  C_21
REMARK    8  A    between atoms: C_21  and  C_22
REMARK    9  A    between atoms: C_26  and  C_28
REMARK                            x       y       z     vdW  Elec       q    Type
REMARK                         _______ _______ _______ _____ _____    ______ ____
ROOT
ATOM      1  C   UNL     1      -0.075   1.420  -0.616  0.00  0.00    +0.054 A 
ATOM      2  C   UNL     1       0.116   0.068  -0.241  0.00  0.00    +0.020 A 
ATOM      3  C   UNL     1       1.255  -0.568  -0.623  0.00  0.00    +0.071 A 
ATOM      4  C   UNL     1       2.217   0.127  -1.379  0.00  0.00    +0.252 A 
ATOM      5  O   UNL     1       3.241  -0.439  -1.723  0.00  0.00    -0.268 OA
ATOM      6  N   UNL     1       2.016   1.412  -1.725  0.00  0.00    -0.310 N 
ATOM      7  C   UNL     1       0.896   2.062  -1.358  0.00  0.00    +0.102 A 
ENDROOT
BRANCH   1   9
ATOM      8  N   UNL     1      -2.460   1.457  -0.080  0.00  0.00    -0.267 N 
ATOM      9  C   UNL     1      -1.303   2.134  -0.223  0.00  0.00    +0.252 C 
ATOM     10  O   UNL     1      -1.272   3.334  -0.026  0.00  0.00    -0.270 OA
BRANCH   8  11
ATOM     11  C   UNL     1      -3.654   2.152   0.136  0.00  0.00    +0.037 A 
ATOM     12  C   UNL     1      -4.818   1.458   0.440  0.00  0.00    +0.023 A 
ATOM     13  C   UNL     1      -5.995   2.147   0.658  0.00  0.00    +0.002 A 
ATOM     14  C   UNL     1      -6.017   3.526   0.564  0.00  0.00    +0.000 A 
ATOM     15  C   UNL     1      -4.862   4.220   0.256  0.00  0.00    +0.002 A 
ATOM     16  C   UNL     1      -3.680   3.538   0.042  0.00  0.00    +0.023 A 
ENDBRANCH   8  11
BRANCH   8  17
ATOM     17  C   UNL     1      -2.466  -0.006  -0.152  0.00  0.00    +0.114 C 
BRANCH  17  18
ATOM     18  C   UNL     1      -2.494  -0.586   1.264  0.00  0.00    +0.019 C 
BRANCH  18  20
ATOM     19  C   UNL     1      -2.529  -2.694   2.604  0.00  0.00    +0.004 C 
ATOM     20  C   UNL     1      -2.501  -2.114   1.188  0.00  0.00    -0.002 C 
ENDBRANCH  18  20
ENDBRANCH  17  18
ENDBRANCH   8  17
ENDBRANCH   1   9
BRANCH   6  21
ATOM     21  C   UNL     1       3.032   2.114  -2.512  0.00  0.00    +0.160 C 
BRANCH  21  22
ATOM     22  C   UNL     1       2.744   1.933  -3.980  0.00  0.00    -0.027 A 
ATOM     23  C   UNL     1       3.292   0.864  -4.665  0.00  0.00    +0.005 A 
ATOM     24  C   UNL     1       3.024   0.696  -6.011  0.00  0.00    +0.001 A 
ATOM     25  C   UNL     1       2.216   1.601  -6.674  0.00  0.00    +0.003 A 
ATOM     26  C   UNL     1       1.672   2.672  -5.990  0.00  0.00    -0.050 A 
ATOM     27  C   UNL     1       1.937   2.838  -4.643  0.00  0.00    +0.008 A 
ATOM     28  C   UNL     1       0.792   3.659  -6.712  0.00  0.00    +0.044 C 
ENDBRANCH  21  22
ENDBRANCH   6  21
TORSDOF 7
