REMARK  Name = ZINC21359247
REMARK  7 active torsions:
REMARK  status: ('A' for Active; 'I' for Inactive)
REMARK    1  A    between atoms: C_1  and  C_2
REMARK    2  A    between atoms: C_7  and  C_8
REMARK    3  A    between atoms: C_11  and  C_13
REMARK    4  A    between atoms: C_13  and  S_14
REMARK    5  A    between atoms: S_14  and  C_15
REMARK    6  A    between atoms: C_21  and  C_23
REMARK    7  A    between atoms: C_23  and  C_24
REMARK                            x       y       z     vdW  Elec       q    Type
REMARK                         _______ _______ _______ _____ _____    ______ ____
ROOT
ATOM      1  C   UNL     1      -0.022   1.758   0.012  0.00  0.00    +0.160 A 
ATOM      2  N   UNL     1       0.981   2.623   0.007  0.00  0.00    -0.133 NA
ATOM      3  N   UNL     1       0.787   3.869   0.015  0.00  0.00    -0.125 NA
ATOM      4  C   UNL     1      -0.430   4.389   0.028  0.00  0.00    +0.189 A 
ATOM      5  S   UNL     1      -1.409   2.890   0.023  0.00  0.00    -0.024 S 
ATOM      6  N   UNL     1      -0.833   5.722   0.038  0.00  0.00    -0.263 N 
ATOM      7  C   UNL     1       0.088   6.706   0.035  0.00  0.00    +0.223 C 
ATOM      8  O   UNL     1       1.269   6.430   0.023  0.00  0.00    -0.275 OA
ATOM      9  H   UNL     1      -1.905   5.972   0.049  0.00  0.00    +0.157 HD
ENDROOT
BRANCH   1  10
ATOM     10  S   UNL     1       0.002  -0.004   0.002  0.00  0.00    -0.087 S 
BRANCH  10  11
ATOM     11  C   UNL     1       1.768  -0.419  -0.016  0.00  0.00    +0.174 C 
BRANCH  11  15
ATOM     12  C   UNL     1       2.162  -3.970   0.589  0.00  0.00    +0.249 A 
ATOM     13  N   UNL     1       2.143  -3.904  -0.722  0.00  0.00    -0.107 NA
ATOM     14  N   UNL     1       2.000  -2.677  -1.083  0.00  0.00    -0.111 NA
ATOM     15  C   UNL     1       1.932  -1.917  -0.026  0.00  0.00    +0.228 A 
ATOM     16  O   UNL     1       2.028  -2.712   1.054  0.00  0.00    -0.419 OA
BRANCH  12  23
ATOM     17  C   UNL     1       2.429  -6.535  -0.722  0.00  0.00    +0.044 C 
ATOM     18  C   UNL     1       2.433  -6.438   0.782  0.00  0.00    -0.038 A 
ATOM     19  C   UNL     1       2.566  -7.578   1.548  0.00  0.00    +0.004 A 
ATOM     20  C   UNL     1       2.570  -7.491   2.929  0.00  0.00    +0.000 A 
ATOM     21  C   UNL     1       2.442  -6.262   3.551  0.00  0.00    +0.001 A 
ATOM     22  C   UNL     1       2.313  -5.114   2.796  0.00  0.00    +0.013 A 
ATOM     23  C   UNL     1       2.303  -5.196   1.403  0.00  0.00    +0.041 A 
ENDBRANCH  12  23
ENDBRANCH  11  15
ENDBRANCH  10  11
ENDBRANCH   1  10
BRANCH   7  24
ATOM     24  C   UNL     1      -0.349   8.148   0.045  0.00  0.00    +0.131 C 
BRANCH  24  25
ATOM     25  C   UNL     1       0.865   9.041   0.039  0.00  0.00    -0.038 A 
ATOM     26  C   UNL     1       1.429   9.449   1.233  0.00  0.00    +0.007 A 
ATOM     27  C   UNL     1       2.545  10.264   1.228  0.00  0.00    +0.038 A 
ATOM     28  C   UNL     1       3.093  10.680   0.027  0.00  0.00    +0.123 A 
ATOM     29  C   UNL     1       2.524  10.274  -1.169  0.00  0.00    +0.038 A 
ATOM     30  C   UNL     1       1.411   9.455  -1.162  0.00  0.00    +0.007 A 
ATOM     31  F   UNL     1       4.181  11.480   0.021  0.00  0.00    -0.205 F 
ENDBRANCH  24  25
ENDBRANCH   7  24
TORSDOF 6
