REMARK  Name = ZINC09086966
REMARK  7 active torsions:
REMARK  status: ('A' for Active; 'I' for Inactive)
REMARK    1  A    between atoms: C_1  and  C_2
REMARK    2  A    between atoms: C_2  and  C_4
REMARK    3  A    between atoms: C_2  and  N_24
REMARK    4  A    between atoms: N_6  and  N_7
REMARK    5  A    between atoms: C_8  and  C_9
REMARK    6  A    between atoms: C_10  and  C_18
REMARK    7  A    between atoms: C_25  and  C_27
REMARK                            x       y       z     vdW  Elec       q    Type
REMARK                         _______ _______ _______ _____ _____    ______ ____
ROOT
ATOM      1  C   UNL     1       1.196   3.324   0.453  0.00  0.00    +0.252 C 
ATOM      2  O   UNL     1       0.148   3.899   0.665  0.00  0.00    -0.272 OA
ATOM      3  N   UNL     1       1.201   1.996   0.222  0.00  0.00    -0.205 N 
ATOM      4  H   UNL     1       2.038   1.537   0.053  0.00  0.00    +0.177 HD
ENDROOT
BRANCH   1   6
ATOM      5  C   UNL     1       3.158   3.960  -0.924  0.00  0.00    +0.038 C 
ATOM      6  C   UNL     1       2.490   4.095   0.446  0.00  0.00    +0.157 C 
BRANCH   6   7
ATOM      7  N   UNL     1       2.218   5.508   0.720  0.00  0.00    -0.304 N 
ATOM      8  C   UNL     1       3.179   6.288   1.255  0.00  0.00    +0.220 C 
ATOM      9  O   UNL     1       4.268   5.820   1.510  0.00  0.00    -0.275 OA
ATOM     10  H   UNL     1       1.347   5.883   0.517  0.00  0.00    +0.149 HD
BRANCH   8  11
ATOM     11  C   UNL     1       2.899   7.742   1.536  0.00  0.00    +0.048 C 
ATOM     12  C   UNL     1       1.738   7.856   2.526  0.00  0.00    +0.019 C 
ATOM     13  C   UNL     1       1.454   9.332   2.812  0.00  0.00    -0.009 C 
ATOM     14  C   UNL     1       2.701   9.984   3.412  0.00  0.00    +0.007 C 
ATOM     15  C   UNL     1       3.862   9.870   2.423  0.00  0.00    -0.009 C 
ATOM     16  C   UNL     1       4.146   8.394   2.137  0.00  0.00    +0.019 C 
ATOM     17  C   UNL     1       3.493  10.581   1.119  0.00  0.00    +0.007 C 
ATOM     18  C   UNL     1       2.246   9.928   0.518  0.00  0.00    -0.009 C 
ATOM     19  C   UNL     1       1.084  10.042   1.508  0.00  0.00    +0.007 C 
ATOM     20  C   UNL     1       2.530   8.452   0.233  0.00  0.00    +0.019 C 
ENDBRANCH   8  11
ENDBRANCH   6   7
ENDBRANCH   1   6
BRANCH   3  21
ATOM     21  N   UNL     1      -0.003   1.280   0.228  0.00  0.00    -0.186 NA
ATOM     22  C   UNL     1       0.002  -0.004   0.005  0.00  0.00    +0.158 C 
BRANCH  22  23
ATOM     23  C   UNL     1      -1.253  -0.752   0.012  0.00  0.00    +0.093 A 
ATOM     24  C   UNL     1      -2.539  -0.225   0.122  0.00  0.00    +0.099 A 
ATOM     25  N   UNL     1      -3.405  -1.242   0.086  0.00  0.00    -0.227 NA
ATOM     26  C   UNL     1      -2.744  -2.386  -0.041  0.00  0.00    +0.139 A 
ATOM     27  N   UNL     1      -1.401  -2.119  -0.097  0.00  0.00    -0.298 N 
ATOM     28  C   UNL     1      -0.497  -3.132  -0.221  0.00  0.00    +0.093 A 
ATOM     29  C   UNL     1      -0.909  -4.416  -0.302  0.00  0.00    +0.018 A 
ATOM     30  C   UNL     1      -2.278  -4.723  -0.254  0.00  0.00    +0.005 A 
ATOM     31  C   UNL     1      -3.190  -3.721  -0.125  0.00  0.00    +0.047 A 
BRANCH  24  32
ATOM     32  C   UNL     1      -2.884   1.210   0.256  0.00  0.00    +0.002 A 
ATOM     33  C   UNL     1      -3.833   1.617   1.192  0.00  0.00    +0.010 A 
ATOM     34  C   UNL     1      -4.147   2.955   1.316  0.00  0.00    +0.001 A 
ATOM     35  C   UNL     1      -3.530   3.891   0.505  0.00  0.00    +0.000 A 
ATOM     36  C   UNL     1      -2.591   3.492  -0.430  0.00  0.00    +0.001 A 
ATOM     37  C   UNL     1      -2.264   2.158  -0.559  0.00  0.00    +0.010 A 
ENDBRANCH  24  32
ENDBRANCH  22  23
ENDBRANCH   3  21
TORSDOF 6
