REMARK  Name = ZINC12754482
REMARK  12 active torsions:
REMARK  status: ('A' for Active; 'I' for Inactive)
REMARK    1  A    between atoms: C_1  and  C_2
REMARK    2  A    between atoms: C_2  and  C_3
REMARK    3  A    between atoms: C_3  and  C_4
REMARK    4  A    between atoms: C_4  and  N_5
REMARK    5  A    between atoms: N_10  and  C_13
REMARK    6  A    between atoms: C_14  and  C_19
REMARK    7  A    between atoms: C_19  and  C_20
REMARK    8  A    between atoms: N_22  and  C_23
REMARK    9  A    between atoms: C_23  and  C_24
REMARK   10  A    between atoms: C_24  and  C_25
REMARK   11  A    between atoms: C_24  and  C_26
REMARK   12  A    between atoms: C_24  and  C_32
REMARK                            x       y       z     vdW  Elec       q    Type
REMARK                         _______ _______ _______ _____ _____    ______ ____
ROOT
ATOM      1  C   UNL     1       5.254  -5.016   3.561  0.00  0.00    +0.113 C 
ENDROOT
BRANCH   1  11
ATOM      2  N   UNL     1       1.171  -2.997   2.965  0.00  0.00    -0.281 N 
ATOM      3  C   UNL     1       2.539  -3.116   2.840  0.00  0.00    +0.118 A 
ATOM      4  C   UNL     1       3.250  -3.563   3.914  0.00  0.00    +0.068 A 
ATOM      5  C   UNL     1       2.594  -3.890   5.107  0.00  0.00    +0.262 A 
ATOM      6  O   UNL     1       3.228  -4.289   6.069  0.00  0.00    -0.267 OA
ATOM      7  N   UNL     1       1.253  -3.757   5.182  0.00  0.00    -0.264 N 
ATOM      8  C   UNL     1       0.559  -3.309   4.120  0.00  0.00    +0.333 A 
ATOM      9  O   UNL     1      -0.648  -3.190   4.205  0.00  0.00    -0.246 OA
ATOM     10  C   UNL     1       0.553  -4.095   6.423  0.00  0.00    +0.157 C 
ATOM     11  C   UNL     1       4.700  -3.591   3.490  0.00  0.00    +0.122 C 
ATOM     12  C   UNL     1       4.659  -3.102   2.057  0.00  0.00    +0.226 C 
ATOM     13  O   UNL     1       5.604  -2.962   1.310  0.00  0.00    -0.275 OA
ATOM     14  N   UNL     1       3.367  -2.854   1.776  0.00  0.00    -0.271 N 
ATOM     15  H   UNL     1       3.055  -2.528   0.918  0.00  0.00    +0.156 HD
BRANCH   2  16
ATOM     16  C   UNL     1       0.377  -2.519   1.829  0.00  0.00    +0.128 C 
BRANCH  16  17
ATOM     17  C   UNL     1       0.268  -0.994   1.890  0.00  0.00    +0.021 C 
BRANCH  17  19
ATOM     18  C   UNL     1      -0.671   1.030   0.765  0.00  0.00    +0.004 C 
ATOM     19  C   UNL     1      -0.561  -0.494   0.705  0.00  0.00    -0.002 C 
ENDBRANCH  17  19
ENDBRANCH  16  17
ENDBRANCH   2  16
ENDBRANCH   1  11
BRANCH   1  20
ATOM     20  C   UNL     1       6.729  -4.996   3.253  0.00  0.00    +0.214 C 
ATOM     21  O   UNL     1       7.283  -3.947   3.002  0.00  0.00    -0.276 OA
ATOM     22  N   UNL     1       7.434  -6.146   3.257  0.00  0.00    -0.314 N 
ATOM     23  H   UNL     1       6.991  -6.985   3.458  0.00  0.00    +0.149 HD
BRANCH  22  24
ATOM     24  C   UNL     1       8.867  -6.127   2.958  0.00  0.00    +0.120 C 
BRANCH  24  25
ATOM     25  C   UNL     1       9.422  -7.551   3.029  0.00  0.00    +0.033 C 
ATOM     26  C   UNL     1       9.202  -8.114   4.434  0.00  0.00    +0.023 C 
BRANCH  25  27
ATOM     27  C   UNL     1       8.710  -8.418   2.022  0.00  0.00    -0.036 A 
ATOM     28  C   UNL     1       7.998  -9.525   2.445  0.00  0.00    +0.004 A 
ATOM     29  C   UNL     1       7.345 -10.320   1.522  0.00  0.00    +0.000 A 
ATOM     30  C   UNL     1       7.403 -10.008   0.177  0.00  0.00    +0.000 A 
ATOM     31  C   UNL     1       8.114  -8.901  -0.246  0.00  0.00    +0.000 A 
ATOM     32  C   UNL     1       8.764  -8.103   0.678  0.00  0.00    +0.004 A 
ENDBRANCH  25  27
BRANCH  25  33
ATOM     33  C   UNL     1      10.897  -7.532   2.720  0.00  0.00    -0.036 A 
ATOM     34  C   UNL     1      11.552  -6.326   2.551  0.00  0.00    +0.004 A 
ATOM     35  C   UNL     1      12.905  -6.309   2.268  0.00  0.00    +0.000 A 
ATOM     36  C   UNL     1      13.603  -7.496   2.155  0.00  0.00    +0.000 A 
ATOM     37  C   UNL     1      12.948  -8.702   2.325  0.00  0.00    +0.000 A 
ATOM     38  C   UNL     1      11.596  -8.719   2.612  0.00  0.00    +0.004 A 
ENDBRANCH  25  33
ENDBRANCH  24  25
ENDBRANCH  22  24
ENDBRANCH   1  20
TORSDOF 9
