REMARK  Name = ZINC63296196
REMARK  6 active torsions:
REMARK  status: ('A' for Active; 'I' for Inactive)
REMARK    1  A    between atoms: C_1  and  C_2
REMARK    2  A    between atoms: C_2  and  N_9
REMARK    3  A    between atoms: C_10  and  C_12
REMARK    4  A    between atoms: C_12  and  C_13
REMARK    5  A    between atoms: C_13  and  C_14
REMARK    6  A    between atoms: C_14  and  N_15
REMARK                            x       y       z     vdW  Elec       q    Type
REMARK                         _______ _______ _______ _____ _____    ______ ____
ROOT
ATOM      1  N   UNL     1      -6.640  -0.114  -3.146  0.00  0.00    -0.299 N 
ATOM      2  C   UNL     1      -7.938  -0.439  -3.308  0.00  0.00    +0.302 C 
ATOM      3  O   UNL     1      -8.467  -1.226  -2.546  0.00  0.00    -0.253 OA
ATOM      4  N   UNL     1      -8.650   0.108  -4.312  0.00  0.00    -0.283 N 
ATOM      5  C   UNL     1      -7.977   0.961  -5.297  0.00  0.00    +0.114 C 
ATOM      6  C   UNL     1      -8.191   0.381  -6.708  0.00  0.00    +0.052 C 
ATOM      7  C   UNL     1      -9.652   0.022  -6.811  0.00  0.00    -0.036 C 
ATOM      8  C   UNL     1     -10.571   0.333  -7.717  0.00  0.00    -0.001 A 
ATOM      9  C   UNL     1     -10.479   1.047  -9.001  0.00  0.00    +0.010 A 
ATOM     10  C   UNL     1     -11.644   1.212  -9.680  0.00  0.00    +0.001 A 
ATOM     11  C   UNL     1     -12.878   0.744  -9.217  0.00  0.00    +0.002 A 
ATOM     12  C   UNL     1     -13.054   0.071  -8.052  0.00  0.00    +0.026 A 
ATOM     13  C   UNL     1     -11.899  -0.172  -7.253  0.00  0.00    +0.043 A 
ATOM     14  N   UNL     1     -11.776  -0.801  -6.122  0.00  0.00    -0.376 N 
ATOM     15  C   UNL     1     -10.358  -0.828  -5.761  0.00  0.00    +0.124 C 
ATOM     16  C   UNL     1     -10.094  -0.160  -4.412  0.00  0.00    +0.138 C 
ATOM     17  H   UNL     1      -6.199   0.457  -3.795  0.00  0.00    +0.150 HD
ATOM     18  H   UNL     1     -12.500  -1.187  -5.605  0.00  0.00    +0.160 HD
ENDROOT
BRANCH   1  19
ATOM     19  C   UNL     1      -5.896  -0.623  -1.992  0.00  0.00    +0.106 C 
BRANCH  19  20
ATOM     20  C   UNL     1      -4.456  -0.109  -2.047  0.00  0.00    +0.028 C 
BRANCH  20  21
ATOM     21  C   UNL     1      -3.678  -0.641  -0.841  0.00  0.00    +0.097 C 
BRANCH  21  23
ATOM     22  N   UNL     1      -1.385  -0.477   0.071  0.00  0.00    -0.308 N 
ATOM     23  C   UNL     1      -2.260  -0.135  -0.896  0.00  0.00    +0.214 C 
ATOM     24  O   UNL     1      -1.905   0.581  -1.809  0.00  0.00    -0.276 OA
ATOM     25  H   UNL     1      -1.668  -1.049   0.801  0.00  0.00    +0.149 HD
BRANCH  22  27
ATOM     26  C   UNL     1      -0.032   1.544   0.030  0.00  0.00    +0.033 C 
ATOM     27  C   UNL     1      -0.005   0.015   0.018  0.00  0.00    +0.052 C 
ATOM     28  C   UNL     1       0.628  -0.454  -1.291  0.00  0.00    +0.049 C 
ATOM     29  C   UNL     1       2.165  -0.608  -1.121  0.00  0.00    +0.168 C 
ATOM     30  S   UNL     1       2.216  -1.333   0.576  0.00  0.00    -0.029 S 
ATOM     31  O   UNL     1       1.952  -2.727   0.497  0.00  0.00    -0.174 OA
ATOM     32  O   UNL     1       3.383  -0.876   1.245  0.00  0.00    -0.174 OA
ATOM     33  C   UNL     1       0.743  -0.476   1.272  0.00  0.00    +0.191 C 
ENDBRANCH  22  27
ENDBRANCH  21  23
ENDBRANCH  20  21
ENDBRANCH  19  20
ENDBRANCH   1  19
TORSDOF 5
