REMARK  Name = ZINC59144062
REMARK  12 active torsions:
REMARK  status: ('A' for Active; 'I' for Inactive)
REMARK    1  A    between atoms: C_1  and  C_2
REMARK    2  A    between atoms: C_5  and  S_8
REMARK    3  A    between atoms: S_8  and  N_11
REMARK    4  A    between atoms: N_11  and  C_12
REMARK    5  A    between atoms: N_11  and  C_29
REMARK    6  A    between atoms: C_12  and  C_13
REMARK    7  A    between atoms: N_15  and  C_16
REMARK    8  A    between atoms: C_17  and  C_25
REMARK    9  A    between atoms: C_25  and  O_27
REMARK   10  A    between atoms: O_27  and  C_28
REMARK   11  A    between atoms: C_33  and  C_36
REMARK   12  A    between atoms: C_34  and  C_35
REMARK                            x       y       z     vdW  Elec       q    Type
REMARK                         _______ _______ _______ _____ _____    ______ ____
ROOT
ATOM      1  N   UNL     1       1.250  -4.840  -0.413  0.00  0.00    -0.194 N 
ENDROOT
BRANCH   1   2
ATOM      2  C   UNL     1       2.033  -5.011  -1.557  0.00  0.00    +0.055 A 
ATOM      3  C   UNL     1       1.978  -6.205  -2.266  0.00  0.00    +0.025 A 
ATOM      4  C   UNL     1       2.753  -6.370  -3.397  0.00  0.00    +0.002 A 
ATOM      5  C   UNL     1       3.583  -5.349  -3.824  0.00  0.00    +0.004 A 
ATOM      6  C   UNL     1       3.640  -4.160  -3.121  0.00  0.00    -0.046 A 
ATOM      7  C   UNL     1       2.863  -3.986  -1.992  0.00  0.00    -0.025 A 
ATOM      8  C   UNL     1       2.921  -2.687  -1.230  0.00  0.00    +0.046 C 
ATOM      9  C   UNL     1       4.546  -3.051  -3.590  0.00  0.00    +0.044 C 
ENDBRANCH   1   2
BRANCH   1  10
ATOM     10  S   UNL     1      -0.263  -4.180  -0.536  0.00  0.00    +0.075 S 
ATOM     11  O   UNL     1      -0.945  -4.500   0.669  0.00  0.00    -0.150 OA
ATOM     12  O   UNL     1      -0.763  -4.547  -1.814  0.00  0.00    -0.150 OA
BRANCH  10  17
ATOM     13  C   UNL     1       0.401   1.817  -0.600  0.00  0.00    +0.044 C 
ATOM     14  C   UNL     1       0.235   0.319  -0.584  0.00  0.00    -0.050 A 
ATOM     15  C   UNL     1       0.084  -0.373  -1.771  0.00  0.00    +0.005 A 
ATOM     16  C   UNL     1      -0.068  -1.746  -1.757  0.00  0.00    +0.029 A 
ATOM     17  C   UNL     1      -0.069  -2.429  -0.554  0.00  0.00    +0.109 A 
ATOM     18  C   UNL     1       0.083  -1.738   0.633  0.00  0.00    +0.029 A 
ATOM     19  C   UNL     1       0.239  -0.364   0.618  0.00  0.00    +0.005 A 
ENDBRANCH  10  17
ENDBRANCH   1  10
BRANCH   1  20
ATOM     20  C   UNL     1       1.769  -5.245   0.896  0.00  0.00    +0.227 C 
BRANCH  20  21
ATOM     21  C   UNL     1       1.504  -6.713   1.110  0.00  0.00    +0.237 C 
ATOM     22  O   UNL     1       0.937  -7.357   0.253  0.00  0.00    -0.274 OA
ATOM     23  N   UNL     1       1.896  -7.309   2.253  0.00  0.00    -0.278 N 
ATOM     24  H   UNL     1       2.349  -6.793   2.939  0.00  0.00    +0.155 HD
BRANCH  23  25
ATOM     25  C   UNL     1       1.652  -8.659   2.450  0.00  0.00    +0.086 A 
ATOM     26  C   UNL     1       1.976  -9.432   3.555  0.00  0.00    +0.091 A 
ATOM     27  C   UNL     1       1.607 -10.837   3.513  0.00  0.00    -0.021 A 
ATOM     28  C   UNL     1       0.983 -11.210   2.376  0.00  0.00    -0.004 A 
ATOM     29  S   UNL     1       0.890  -9.733   1.407  0.00  0.00    -0.077 S 
ATOM     30  C   UNL     1       0.484 -12.580   2.031  0.00  0.00    +0.043 C 
ATOM     31  C   UNL     1       1.120 -13.584   3.004  0.00  0.00    +0.005 C 
ATOM     32  C   UNL     1       0.973 -13.051   4.432  0.00  0.00    +0.005 C 
ATOM     33  C   UNL     1       1.879 -11.834   4.630  0.00  0.00    +0.037 C 
BRANCH  26  34
ATOM     34  C   UNL     1       2.661  -8.857   4.714  0.00  0.00    +0.342 C 
ATOM     35  O   UNL     1       2.014  -8.387   5.631  0.00  0.00    -0.245 OA
BRANCH  34  36
ATOM     36  O   UNL     1       4.009  -8.849   4.766  0.00  0.00    -0.464 OA
ATOM     37  C   UNL     1       4.610  -8.272   5.927  0.00  0.00    +0.280 C 
ENDBRANCH  34  36
ENDBRANCH  26  34
ENDBRANCH  23  25
ENDBRANCH  20  21
ENDBRANCH   1  20
TORSDOF 8
