REMARK  Name = ZINC06136265
REMARK  12 active torsions:
REMARK  status: ('A' for Active; 'I' for Inactive)
REMARK    1  A    between atoms: C_1  and  O_2
REMARK    2  A    between atoms: O_2  and  C_3
REMARK    3  A    between atoms: C_3  and  C_4
REMARK    4  A    between atoms: C_4  and  N_5
REMARK    5  A    between atoms: C_6  and  C_10
REMARK    6  A    between atoms: C_10  and  C_12
REMARK    7  A    between atoms: C_10  and  N_68
REMARK    8  A    between atoms: C_17  and  O_24
REMARK    9  A    between atoms: O_24  and  C_25
REMARK   10  A    between atoms: N_28  and  C_31
REMARK   11  A    between atoms: C_34  and  O_37
REMARK   12  A    between atoms: O_37  and  C_38
REMARK                            x       y       z     vdW  Elec       q    Type
REMARK                         _______ _______ _______ _____ _____    ______ ____
ROOT
ATOM      1  C   UNL     1       4.959   1.178  -0.040  0.00  0.00    +0.039 C 
ENDROOT
BRANCH   1   2
ATOM      2  C   UNL     1       3.613   1.855  -0.023  0.00  0.00    +0.011 A 
ATOM      3  C   UNL     1       2.480   1.107  -0.016  0.00  0.00    +0.017 A 
ATOM      4  C   UNL     1       1.189   1.794   0.000  0.00  0.00    -0.001 A 
ATOM      5  C   UNL     1      -0.013   1.076   0.008  0.00  0.00    +0.013 A 
ATOM      6  C   UNL     1      -1.202   1.744   0.017  0.00  0.00    +0.046 A 
ATOM      7  C   UNL     1      -1.231   3.138   0.031  0.00  0.00    +0.122 A 
ATOM      8  C   UNL     1      -0.054   3.866   0.023  0.00  0.00    +0.072 A 
ATOM      9  C   UNL     1       1.166   3.203   0.008  0.00  0.00    +0.053 A 
ATOM     10  N   UNL     1       2.354   3.904  -0.001  0.00  0.00    -0.322 N 
ATOM     11  H   UNL     1       2.336   4.904   0.004  0.00  0.00    +0.169 HD
ATOM     12  C   UNL     1       3.535   3.263  -0.015  0.00  0.00    +0.251 A 
ATOM     13  O   UNL     1       4.565   3.914  -0.023  0.00  0.00    -0.268 OA
BRANCH   7  14
ATOM     14  O   UNL     1      -2.424   3.786   0.045  0.00  0.00    -0.495 OA
ATOM     15  C   UNL     1      -3.602   2.977   0.052  0.00  0.00    +0.277 C 
ENDBRANCH   7  14
ENDBRANCH   1   2
BRANCH   1  21
ATOM     16  C   UNL     1       5.018   1.474  -2.443  0.00  0.00    -0.058 C 
ATOM     17  C   UNL     1       5.830   2.074  -3.593  0.00  0.00    +0.086 C 
ATOM     18  N   UNL     1       7.152   1.433  -3.641  0.00  0.00    -0.333 N 
ATOM     19  C   UNL     1       7.877   1.632  -2.378  0.00  0.00    +0.086 C 
ATOM     20  C   UNL     1       7.064   1.033  -1.228  0.00  0.00    -0.058 C 
ATOM     21  N   UNL     1       5.747   1.700  -1.177  0.00  0.00    +0.391 N 
ATOM     22  H   UNL     1       5.888   2.709  -1.048  0.00  0.00    -0.080 HD
BRANCH  18  23
ATOM     23  C   UNL     1       7.898   1.905  -4.727  0.00  0.00    +0.030 A 
ATOM     24  C   UNL     1       9.147   2.474  -4.517  0.00  0.00    +0.027 A 
ATOM     25  C   UNL     1       9.886   2.934  -5.589  0.00  0.00    +0.047 A 
ATOM     26  C   UNL     1       9.375   2.839  -6.875  0.00  0.00    +0.120 A 
ATOM     27  C   UNL     1       8.125   2.276  -7.086  0.00  0.00    +0.047 A 
ATOM     28  C   UNL     1       7.388   1.810  -6.015  0.00  0.00    +0.027 A 
BRANCH  26  29
ATOM     29  O   UNL     1      10.100   3.298  -7.930  0.00  0.00    -0.495 OA
ATOM     30  C   UNL     1      11.379   3.866  -7.641  0.00  0.00    +0.277 C 
ENDBRANCH  26  29
ENDBRANCH  18  23
ENDBRANCH   1  21
BRANCH   1  32
ATOM     31  N   UNL     1       5.876   0.644   2.279  0.00  0.00    -0.228 N 
ATOM     32  C   UNL     1       5.690   1.482   1.242  0.00  0.00    +0.143 A 
ATOM     33  N   UNL     1       6.273   2.611   1.562  0.00  0.00    -0.115 NA
ATOM     34  N   UNL     1       6.783   2.477   2.737  0.00  0.00    -0.023 NA
ATOM     35  N   UNL     1       6.548   1.289   3.172  0.00  0.00    -0.044 NA
BRANCH  31  36
ATOM     36  C   UNL     1       5.404  -0.739   2.376  0.00  0.00    +0.175 C 
BRANCH  36  37
ATOM     37  C   UNL     1       6.471  -1.682   1.816  0.00  0.00    +0.183 C 
BRANCH  37  39
ATOM     38  C   UNL     1       6.937  -3.998   1.412  0.00  0.00    +0.194 C 
ATOM     39  O   UNL     1       6.010  -3.032   1.911  0.00  0.00    -0.381 OA
ENDBRANCH  37  39
ENDBRANCH  36  37
ENDBRANCH  31  36
ENDBRANCH   1  32
TORSDOF 9
