REMARK  Name = ZINC09726126
REMARK  10 active torsions:
REMARK  status: ('A' for Active; 'I' for Inactive)
REMARK    1  A    between atoms: C_1  and  C_2
REMARK    2  A    between atoms: C_2  and  C_3
REMARK    3  A    between atoms: C_2  and  C_4
REMARK    4  A    between atoms: C_2  and  C_5
REMARK    5  A    between atoms: C_8  and  C_11
REMARK    6  A    between atoms: C_11  and  N_13
REMARK    7  A    between atoms: N_15  and  C_27
REMARK    8  A    between atoms: C_19  and  S_23
REMARK    9  A    between atoms: S_23  and  N_26
REMARK   10  A    between atoms: C_27  and  C_28
REMARK                            x       y       z     vdW  Elec       q    Type
REMARK                         _______ _______ _______ _____ _____    ______ ____
ROOT
ATOM      1  N   UNL     1       1.134   1.899   0.001  0.00  0.00    -0.152 NA
ATOM      2  C   UNL     1       2.294   1.250  -0.013  0.00  0.00    +0.168 A 
ATOM      3  N   UNL     1       3.551   1.769  -0.022  0.00  0.00    -0.310 N 
ATOM      4  C   UNL     1       4.648   0.928  -0.037  0.00  0.00    +0.059 A 
ATOM      5  C   UNL     1       6.009   1.273  -0.047  0.00  0.00    +0.029 A 
ATOM      6  C   UNL     1       6.980   0.300  -0.060  0.00  0.00    +0.030 A 
ATOM      7  C   UNL     1       6.649  -1.045  -0.063  0.00  0.00    +0.106 A 
ATOM      8  C   UNL     1       5.315  -1.413  -0.054  0.00  0.00    +0.045 A 
ATOM      9  C   UNL     1       4.343  -0.440  -0.040  0.00  0.00    +0.041 A 
ATOM     10  S   UNL     1       2.568  -0.462  -0.017  0.00  0.00    -0.052 S 
ENDROOT
BRANCH   7  11
ATOM     11  S   UNL     1       7.911  -2.274  -0.080  0.00  0.00    +0.056 S 
ATOM     12  O   UNL     1       7.329  -3.447  -0.632  0.00  0.00    -0.153 OA
ATOM     13  O   UNL     1       9.066  -1.662  -0.639  0.00  0.00    -0.153 OA
BRANCH  11  14
ATOM     14  N   UNL     1       8.277  -2.623   1.497  0.00  0.00    -0.204 NA
ATOM     15  H   UNL     1       7.811  -2.166   2.215  0.00  0.00    +0.144 HD
ATOM     16  H   UNL     1       8.956  -3.283   1.702  0.00  0.00    +0.144 HD
ENDBRANCH  11  14
ENDBRANCH   7  11
BRANCH   1  17
ATOM     17  C   UNL     1      -0.015   1.214   0.009  0.00  0.00    +0.269 C 
ATOM     18  O   UNL     1       0.002  -0.004   0.002  0.00  0.00    -0.268 OA
BRANCH  17  22
ATOM     19  C   UNL     1      -3.724   3.289   0.039  0.00  0.00    -0.042 A 
ATOM     20  C   UNL     1      -3.708   1.906   0.030  0.00  0.00    +0.005 A 
ATOM     21  C   UNL     1      -2.507   1.227   0.021  0.00  0.00    +0.013 A 
ATOM     22  C   UNL     1      -1.307   1.938   0.019  0.00  0.00    +0.039 A 
ATOM     23  C   UNL     1      -1.329   3.332   0.032  0.00  0.00    +0.013 A 
ATOM     24  C   UNL     1      -2.537   4.000   0.037  0.00  0.00    +0.005 A 
BRANCH  19  26
ATOM     25  C   UNL     1      -5.830   3.637   1.301  0.00  0.00    +0.015 C 
ATOM     26  C   UNL     1      -5.039   4.025   0.050  0.00  0.00    -0.013 C 
ATOM     27  C   UNL     1      -4.780   5.533   0.058  0.00  0.00    +0.015 C 
ATOM     28  C   UNL     1      -5.842   3.652  -1.197  0.00  0.00    +0.015 C 
ENDBRANCH  19  26
ENDBRANCH  17  22
ENDBRANCH   1  17
BRANCH   3  29
ATOM     29  C   UNL     1       3.742   3.222  -0.018  0.00  0.00    +0.212 C 
BRANCH  29  30
ATOM     30  C   UNL     1       3.820   3.702   1.372  0.00  0.00    -0.084 C 
ATOM     31  C   UNL     1       3.881   4.085   2.480  0.00  0.00    +0.005 C 
ENDBRANCH  29  30
ENDBRANCH   3  29
TORSDOF 7
