REMARK  Name = ZINC24754331
REMARK  8 active torsions:
REMARK  status: ('A' for Active; 'I' for Inactive)
REMARK    1  A    between atoms: C_1  and  C_2
REMARK    2  A    between atoms: C_2  and  C_4
REMARK    3  A    between atoms: C_2  and  S_16
REMARK    4  A    between atoms: N_6  and  C_7
REMARK    5  A    between atoms: C_10  and  N_13
REMARK    6  A    between atoms: S_16  and  C_17
REMARK    7  A    between atoms: C_19  and  C_27
REMARK    8  A    between atoms: N_29  and  C_30
REMARK                            x       y       z     vdW  Elec       q    Type
REMARK                         _______ _______ _______ _____ _____    ______ ____
ROOT
ATOM      1  C   UNL     1      -0.214   0.556  -0.026  0.00  0.00    +0.099 A 
ATOM      2  C   UNL     1      -1.488  -0.032  -0.042  0.00  0.00    +0.048 A 
ATOM      3  C   UNL     1      -1.600  -1.413  -0.054  0.00  0.00    +0.048 A 
ATOM      4  C   UNL     1      -0.359  -2.189  -0.051  0.00  0.00    +0.013 A 
ATOM      5  C   UNL     1      -0.371  -3.588  -0.064  0.00  0.00    +0.011 A 
ATOM      6  C   UNL     1       0.809  -4.272  -0.060  0.00  0.00    +0.001 A 
ATOM      7  C   UNL     1       2.026  -3.594  -0.044  0.00  0.00    +0.002 A 
ATOM      8  C   UNL     1       2.072  -2.233  -0.032  0.00  0.00    +0.028 A 
ATOM      9  C   UNL     1       0.875  -1.495  -0.035  0.00  0.00    +0.073 A 
ATOM     10  N   UNL     1       0.890  -0.159  -0.028  0.00  0.00    -0.240 NA
ENDROOT
BRANCH   3  11
ATOM     11  C   UNL     1      -2.922  -2.077  -0.070  0.00  0.00    +0.245 C 
ATOM     12  O   UNL     1      -2.994  -3.286  -0.178  0.00  0.00    -0.270 OA
ATOM     13  N   UNL     1      -4.047  -1.342   0.034  0.00  0.00    -0.308 N 
ATOM     14  H   UNL     1      -3.982  -0.248   0.132  0.00  0.00    +0.149 HD
BRANCH  13  15
ATOM     15  C   UNL     1      -5.356  -1.999   0.019  0.00  0.00    +0.073 C 
ATOM     16  C   UNL     1      -6.457  -1.360  -0.829  0.00  0.00    +0.024 C 
ATOM     17  C   UNL     1      -6.519  -1.274   0.698  0.00  0.00    +0.024 C 
ENDBRANCH  13  15
ENDBRANCH   3  11
BRANCH   1  18
ATOM     18  S   UNL     1      -0.089   2.313  -0.011  0.00  0.00    -0.093 S 
BRANCH  18  20
ATOM     19  C   UNL     1       2.293   1.957  -1.301  0.00  0.00    +0.029 C 
ATOM     20  C   UNL     1       1.712   2.500   0.006  0.00  0.00    +0.136 C 
BRANCH  20  21
ATOM     21  C   UNL     1       2.064   3.959   0.144  0.00  0.00    +0.230 C 
ATOM     22  O   UNL     1       1.246   4.809  -0.135  0.00  0.00    -0.274 OA
ATOM     23  N   UNL     1       3.288   4.318   0.579  0.00  0.00    -0.285 N 
ATOM     24  H   UNL     1       4.059   3.551   0.747  0.00  0.00    +0.155 HD
BRANCH  23  25
ATOM     25  C   UNL     1       3.579   5.666   0.816  0.00  0.00    +0.034 A 
ATOM     26  C   UNL     1       4.853   6.158   0.561  0.00  0.00    +0.025 A 
ATOM     27  C   UNL     1       5.135   7.490   0.792  0.00  0.00    +0.034 A 
ATOM     28  C   UNL     1       4.154   8.331   1.285  0.00  0.00    +0.126 A 
ATOM     29  C   UNL     1       2.887   7.843   1.544  0.00  0.00    +0.034 A 
ATOM     30  C   UNL     1       2.596   6.513   1.311  0.00  0.00    +0.025 A 
BRANCH  28  31
ATOM     31  N   UNL     1       4.462   9.757   1.535  0.00  0.00    +0.056 N 
ATOM     32  O   UNL     1       3.599  10.499   1.969  0.00  0.00    -0.126 OA
ATOM     33  O   UNL     1       5.578  10.189   1.308  0.00  0.00    -0.126 OA
ENDBRANCH  28  31
ENDBRANCH  23  25
ENDBRANCH  20  21
ENDBRANCH  18  20
ENDBRANCH   1  18
TORSDOF 7
