REMARK  Name = ZINC13404670
REMARK  10 active torsions:
REMARK  status: ('A' for Active; 'I' for Inactive)
REMARK    1  A    between atoms: C_1  and  C_2
REMARK    2  A    between atoms: C_3  and  C_29
REMARK    3  A    between atoms: C_4  and  C_28
REMARK    4  A    between atoms: C_9  and  S_11
REMARK    5  A    between atoms: S_11  and  C_12
REMARK    6  A    between atoms: C_12  and  C_13
REMARK    7  A    between atoms: C_15  and  C_18
REMARK    8  A    between atoms: C_22  and  C_24
REMARK    9  A    between atoms: C_29  and  C_30
REMARK   10  A    between atoms: C_30  and  C_31
REMARK                            x       y       z     vdW  Elec       q    Type
REMARK                         _______ _______ _______ _____ _____    ______ ____
ROOT
ATOM      1  S   UNL     1       6.579   4.390  -1.746  0.00  0.00    -0.075 S 
ENDROOT
BRANCH   1  10
ATOM      2  C   UNL     1      13.783   4.159   0.548  0.00  0.00    +0.066 C 
ATOM      3  C   UNL     1      12.596   4.199  -0.381  0.00  0.00    +0.047 A 
ATOM      4  C   UNL     1      12.795   4.199  -1.766  0.00  0.00    -0.005 A 
ATOM      5  C   UNL     1      11.716   4.236  -2.591  0.00  0.00    +0.048 A 
ATOM      6  N   UNL     1      10.471   4.272  -2.048  0.00  0.00    -0.200 N 
ATOM      7  C   UNL     1      10.311   4.271  -0.691  0.00  0.00    +0.254 A 
ATOM      8  N   UNL     1      11.379   4.234   0.114  0.00  0.00    -0.216 NA
ATOM      9  N   UNL     1       9.006   4.315  -0.446  0.00  0.00    -0.183 NA
ATOM     10  C   UNL     1       8.334   4.335  -1.594  0.00  0.00    +0.211 A 
ATOM     11  N   UNL     1       9.185   4.314  -2.601  0.00  0.00    -0.137 NA
ATOM     12  C   UNL     1      11.898   4.237  -4.087  0.00  0.00    +0.066 C 
BRANCH   4  13
ATOM     13  C   UNL     1      14.190   4.159  -2.336  0.00  0.00    +0.050 C 
BRANCH  13  14
ATOM     14  C   UNL     1      14.706   5.587  -2.523  0.00  0.00    +0.130 C 
BRANCH  14  15
ATOM     15  C   UNL     1      16.100   5.546  -3.092  0.00  0.00    +0.356 C 
ATOM     16  O   UNL     1      16.627   4.484  -3.325  0.00  0.00    -0.246 OA
ATOM     17  O   UNL     1      16.757   6.690  -3.341  0.00  0.00    -0.246 OA
ENDBRANCH  14  15
ENDBRANCH  13  14
ENDBRANCH   4  13
ENDBRANCH   1  10
BRANCH   1  18
ATOM     18  C   UNL     1       5.990   4.400  -0.030  0.00  0.00    +0.176 C 
BRANCH  18  19
ATOM     19  C   UNL     1       4.484   4.447  -0.016  0.00  0.00    +0.238 A 
ATOM     20  N   UNL     1       3.674   3.417  -0.008  0.00  0.00    -0.191 NA
ATOM     21  C   UNL     1       2.426   3.938   0.000  0.00  0.00    +0.202 A 
ATOM     22  N   UNL     1       2.550   5.239   0.006  0.00  0.00    -0.056 NA
ATOM     23  O   UNL     1       3.724   5.546  -0.003  0.00  0.00    -0.337 OA
BRANCH  21  24
ATOM     24  C   UNL     1       1.153   3.174   0.008  0.00  0.00    +0.023 A 
ATOM     25  C   UNL     1       1.174   1.781   0.000  0.00  0.00    +0.012 A 
ATOM     26  C   UNL     1      -0.013   1.076   0.008  0.00  0.00    +0.001 A 
ATOM     27  C   UNL     1      -1.221   1.750   0.017  0.00  0.00    +0.012 A 
ATOM     28  C   UNL     1      -1.247   3.133   0.030  0.00  0.00    +0.055 A 
ATOM     29  C   UNL     1      -0.066   3.848   0.022  0.00  0.00    +0.024 A 
BRANCH  28  30
ATOM     30  C   UNL     1      -2.566   3.860   0.046  0.00  0.00    +0.417 C 
ATOM     31  F   UNL     1      -2.987   4.092  -1.268  0.00  0.00    -0.166 F 
ATOM     32  F   UNL     1      -3.520   3.081   0.710  0.00  0.00    -0.166 F 
ATOM     33  F   UNL     1      -2.417   5.082   0.710  0.00  0.00    -0.166 F 
ENDBRANCH  28  30
ENDBRANCH  21  24
ENDBRANCH  18  19
ENDBRANCH   1  18
TORSDOF 8
