REMARK  Name = ZINC33932454
REMARK  14 active torsions:
REMARK  status: ('A' for Active; 'I' for Inactive)
REMARK    1  A    between atoms: C_1  and  C_2
REMARK    2  A    between atoms: C_2  and  C_3
REMARK    3  A    between atoms: C_3  and  C_5
REMARK    4  A    between atoms: C_3  and  O_6
REMARK    5  A    between atoms: O_6  and  C_7
REMARK    6  A    between atoms: C_7  and  C_9
REMARK    7  A    between atoms: C_10  and  C_38
REMARK    8  A    between atoms: C_14  and  C_16
REMARK    9  A    between atoms: C_19  and  C_21
REMARK   10  A    between atoms: C_25  and  C_28
REMARK   11  A    between atoms: C_31  and  O_36
REMARK   12  A    between atoms: C_32  and  O_34
REMARK   13  A    between atoms: O_34  and  C_35
REMARK   14  A    between atoms: O_36  and  C_37
REMARK                            x       y       z     vdW  Elec       q    Type
REMARK                         _______ _______ _______ _____ _____    ______ ____
ROOT
ATOM      1  C   UNL     1       0.102   0.645   4.713  0.00  0.00    +0.068 C 
ATOM      2  C   UNL     1       0.773   0.542   5.873  0.00  0.00    +0.016 C 
ATOM      3  N   UNL     1       0.120   0.675   7.066  0.00  0.00    -0.321 N 
ATOM      4  C   UNL     1      -1.101   1.293   7.127  0.00  0.00    +0.016 C 
ATOM      5  C   UNL     1      -1.857   1.427   6.017  0.00  0.00    +0.027 C 
ATOM      6  C   UNL     1      -1.376   0.904   4.689  0.00  0.00    +0.128 C 
ATOM      7  C   UNL     1      -3.114   2.056   6.067  0.00  0.00    +0.162 C 
ATOM      8  O   UNL     1      -3.763   2.174   5.047  0.00  0.00    -0.292 OA
ATOM      9  C   UNL     1      -3.669   2.585   7.361  0.00  0.00    +0.088 C 
ATOM     10  C   UNL     1      -3.102   1.761   8.521  0.00  0.00    +0.032 C 
ATOM     11  C   UNL     1      -1.574   1.822   8.459  0.00  0.00    +0.059 C 
ATOM     12  C   UNL     1       2.257   0.278   5.857  0.00  0.00    +0.061 C 
ATOM     13  H   UNL     1       0.524   0.328   7.876  0.00  0.00    +0.152 HD
ENDROOT
BRANCH   6  14
ATOM     14  C   UNL     1      -2.099  -0.381   4.377  0.00  0.00    +0.117 A 
ATOM     15  C   UNL     1      -2.900  -0.596   3.319  0.00  0.00    +0.046 A 
ATOM     16  C   UNL     1      -3.363  -1.928   3.419  0.00  0.00    +0.044 A 
ATOM     17  C   UNL     1      -2.816  -2.447   4.533  0.00  0.00    +0.102 A 
ATOM     18  O   UNL     1      -2.047  -1.508   5.106  0.00  0.00    -0.464 OA
ATOM     19  C   UNL     1      -3.027  -3.848   5.047  0.00  0.00    +0.086 C 
ENDBRANCH   6  14
BRANCH  10  20
ATOM     20  C   UNL     1      -3.582   2.332   9.831  0.00  0.00    -0.040 A 
ATOM     21  C   UNL     1      -3.279   3.638  10.166  0.00  0.00    +0.008 A 
ATOM     22  C   UNL     1      -3.717   4.167  11.366  0.00  0.00    +0.049 A 
ATOM     23  C   UNL     1      -4.462   3.387  12.236  0.00  0.00    +0.161 A 
ATOM     24  C   UNL     1      -4.767   2.072  11.898  0.00  0.00    +0.162 A 
ATOM     25  C   UNL     1      -4.329   1.550  10.692  0.00  0.00    +0.053 A 
BRANCH  24  26
ATOM     26  O   UNL     1      -5.498   1.302  12.748  0.00  0.00    -0.491 OA
ATOM     27  C   UNL     1      -5.774  -0.038  12.336  0.00  0.00    +0.277 C 
ENDBRANCH  24  26
BRANCH  23  28
ATOM     28  O   UNL     1      -4.893   3.905  13.417  0.00  0.00    -0.491 OA
ATOM     29  C   UNL     1      -4.542   5.262  13.697  0.00  0.00    +0.277 C 
ENDBRANCH  23  28
ENDBRANCH  10  20
BRANCH   1  30
ATOM     30  C   UNL     1       0.802   0.513   3.491  0.00  0.00    +0.338 C 
ATOM     31  O   UNL     1       2.017   0.430   3.492  0.00  0.00    -0.245 OA
BRANCH  30  32
ATOM     32  O   UNL     1       0.125   0.479   2.325  0.00  0.00    -0.458 OA
BRANCH  32  33
ATOM     33  C   UNL     1       0.896   0.344   1.130  0.00  0.00    +0.173 C 
ATOM     34  C   UNL     1       1.074  -1.140   0.803  0.00  0.00    +0.052 C 
BRANCH  33  36
ATOM     35  C   UNL     1       0.106   2.542   0.245  0.00  0.00    +0.007 C 
ATOM     36  C   UNL     1       0.173   1.038  -0.026  0.00  0.00    +0.041 C 
ENDBRANCH  33  36
ENDBRANCH  32  33
ENDBRANCH  30  32
ENDBRANCH   1  30
TORSDOF 8
