REMARK  Name = ZINC65002279
REMARK  9 active torsions:
REMARK  status: ('A' for Active; 'I' for Inactive)
REMARK    1  A    between atoms: C_1  and  C_2
REMARK    2  A    between atoms: C_2  and  O_3
REMARK    3  A    between atoms: O_3  and  C_4
REMARK    4  A    between atoms: C_6  and  C_11
REMARK    5  A    between atoms: C_9  and  O_10
REMARK    6  A    between atoms: C_23  and  C_27
REMARK    7  A    between atoms: C_27  and  C_28
REMARK    8  A    between atoms: C_27  and  C_29
REMARK    9  A    between atoms: C_27  and  C_30
REMARK                            x       y       z     vdW  Elec       q    Type
REMARK                         _______ _______ _______ _____ _____    ______ ____
ROOT
ATOM      1  C   UNL     1       0.620  -4.951  -0.019  0.00  0.00    +0.142 A 
ATOM      2  N   UNL     1       0.443  -6.307  -0.031  0.00  0.00    -0.306 N 
ATOM      3  H   UNL     1      -0.456  -6.670  -0.032  0.00  0.00    +0.170 HD
ATOM      4  C   UNL     1       1.495  -7.147  -0.040  0.00  0.00    +0.260 A 
ATOM      5  O   UNL     1       1.322  -8.354  -0.050  0.00  0.00    -0.267 OA
ATOM      6  C   UNL     1       2.820  -6.603  -0.037  0.00  0.00    +0.075 A 
ATOM      7  C   UNL     1       4.094  -7.321  -0.044  0.00  0.00    -0.023 A 
ATOM      8  C   UNL     1       5.219  -6.574  -0.040  0.00  0.00    -0.004 A 
ATOM      9  S   UNL     1       4.654  -4.893  -0.027  0.00  0.00    -0.073 S 
ATOM     10  C   UNL     1       2.906  -5.200  -0.026  0.00  0.00    +0.116 A 
ATOM     11  N   UNL     1       1.828  -4.426  -0.023  0.00  0.00    -0.222 NA
ATOM     12  C   UNL     1       6.634  -7.064  -0.044  0.00  0.00    +0.046 C 
ATOM     13  C   UNL     1       6.631  -8.555   0.322  0.00  0.00    -0.000 C 
ATOM     14  C   UNL     1       5.566  -9.265  -0.520  0.00  0.00    +0.009 C 
ATOM     15  C   UNL     1       4.171  -8.845  -0.056  0.00  0.00    +0.037 C 
ENDROOT
BRANCH   1  18
ATOM     16  C   UNL     1      -1.498  -1.849   0.006  0.00  0.00    +0.162 A 
ATOM     17  C   UNL     1      -0.391  -2.676  -0.003  0.00  0.00    +0.061 A 
ATOM     18  C   UNL     1      -0.559  -4.063  -0.009  0.00  0.00    +0.021 A 
ATOM     19  C   UNL     1      -1.846  -4.608  -0.005  0.00  0.00    +0.015 A 
ATOM     20  C   UNL     1      -2.946  -3.777   0.004  0.00  0.00    +0.050 A 
ATOM     21  C   UNL     1      -2.779  -2.399   0.016  0.00  0.00    +0.158 A 
BRANCH  21  22
ATOM     22  O   UNL     1      -3.866  -1.585   0.030  0.00  0.00    -0.503 OA
ATOM     23  H   UNL     1      -4.190  -1.345  -0.849  0.00  0.00    +0.292 HD
ENDBRANCH  21  22
BRANCH  16  24
ATOM     24  O   UNL     1      -1.339  -0.499   0.012  0.00  0.00    -0.489 OA
BRANCH  24  26
ATOM     25  C   UNL     1      -0.019   1.526   0.010  0.00  0.00    +0.048 C 
ATOM     26  C   UNL     1       0.002  -0.004   0.002  0.00  0.00    +0.226 C 
ENDBRANCH  24  26
ENDBRANCH  16  24
ENDBRANCH   1  18
BRANCH  13  27
ATOM     27  C   UNL     1       8.007  -9.158   0.031  0.00  0.00    -0.035 C 
ATOM     28  C   UNL     1       9.067  -8.433   0.862  0.00  0.00    +0.011 C 
ATOM     29  C   UNL     1       8.000 -10.644   0.397  0.00  0.00    +0.011 C 
ATOM     30  C   UNL     1       8.328  -9.001  -1.456  0.00  0.00    +0.011 C 
ENDBRANCH  13  27
TORSDOF 5
