REMARK  Name = ZINC14075943
REMARK  6 active torsions:
REMARK  status: ('A' for Active; 'I' for Inactive)
REMARK    1  A    between atoms: C_7  and  C_11
REMARK    2  A    between atoms: C_11  and  C_12
REMARK    3  A    between atoms: C_12  and  O_14
REMARK    4  A    between atoms: O_14  and  C_15
REMARK    5  A    between atoms: C_15  and  C_17
REMARK    6  A    between atoms: C_15  and  C_24
REMARK                            x       y       z     vdW  Elec       q    Type
REMARK                         _______ _______ _______ _____ _____    ______ ____
ROOT
ATOM      1  O   UNL     1      -0.597  -4.603  -1.675  0.00  0.00    -0.447 OA
ENDROOT
BRANCH   1   2
ATOM      2  C   UNL     1       0.242  -3.584  -1.434  0.00  0.00    +0.313 C 
ATOM      3  O   UNL     1       0.659  -2.915  -2.349  0.00  0.00    -0.250 OA
BRANCH   2   4
ATOM      4  C   UNL     1       0.666  -3.275  -0.021  0.00  0.00    +0.157 C 
BRANCH   4  11
ATOM      5  C   UNL     1      -0.017   1.362   0.009  0.00  0.00    +0.001 A 
ATOM      6  C   UNL     1       1.170   2.083   0.002  0.00  0.00    +0.002 A 
ATOM      7  C   UNL     1       2.386   1.436  -0.013  0.00  0.00    +0.026 A 
ATOM      8  C   UNL     1       2.428   0.046  -0.021  0.00  0.00    +0.047 A 
ATOM      9  C   UNL     1       1.223  -0.681  -0.013  0.00  0.00    +0.003 A 
ATOM     10  C   UNL     1       0.002  -0.004   0.002  0.00  0.00    +0.010 A 
ATOM     11  C   UNL     1       1.604  -2.095  -0.025  0.00  0.00    -0.012 A 
ATOM     12  C   UNL     1       2.945  -2.141  -0.038  0.00  0.00    +0.087 A 
ATOM     13  N   UNL     1       3.455  -0.871  -0.036  0.00  0.00    -0.360 N 
ATOM     14  H   UNL     1       4.399  -0.650  -0.044  0.00  0.00    +0.165 HD
ENDBRANCH   4  11
ENDBRANCH   2   4
ENDBRANCH   1   2
BRANCH   1  15
ATOM     15  C   UNL     1      -0.957  -4.839  -3.038  0.00  0.00    +0.291 C 
BRANCH  15  16
ATOM     16  C   UNL     1      -2.343  -5.427  -3.097  0.00  0.00    +0.002 A 
ATOM     17  C   UNL     1      -2.772  -6.288  -2.103  0.00  0.00    +0.010 A 
ATOM     18  C   UNL     1      -4.043  -6.827  -2.156  0.00  0.00    +0.039 A 
ATOM     19  C   UNL     1      -4.888  -6.505  -3.205  0.00  0.00    +0.123 A 
ATOM     20  C   UNL     1      -4.457  -5.643  -4.200  0.00  0.00    +0.039 A 
ATOM     21  C   UNL     1      -3.188  -5.101  -4.142  0.00  0.00    +0.010 A 
ATOM     22  F   UNL     1      -6.130  -7.032  -3.258  0.00  0.00    -0.205 F 
ENDBRANCH  15  16
BRANCH  15  23
ATOM     23  C   UNL     1       0.024  -5.802  -3.656  0.00  0.00    +0.256 C 
ATOM     24  O   UNL     1       0.886  -6.312  -2.973  0.00  0.00    -0.272 OA
ATOM     25  N   UNL     1      -0.057  -6.095  -4.970  0.00  0.00    -0.326 N 
ATOM     26  H   UNL     1      -0.746  -5.686  -5.516  0.00  0.00    +0.145 HD
ATOM     27  H   UNL     1       0.574  -6.714  -5.368  0.00  0.00    +0.145 HD
ENDBRANCH  15  23
ENDBRANCH   1  15
TORSDOF 6
