REMARK  Name = ZINC04073175
REMARK  16 active torsions:
REMARK  status: ('A' for Active; 'I' for Inactive)
REMARK    1  A    between atoms: C_1  and  C_2
REMARK    2  A    between atoms: C_2  and  C_3
REMARK    3  A    between atoms: C_2  and  C_4
REMARK    4  A    between atoms: C_4  and  C_5
REMARK    5  A    between atoms: C_5  and  C_6
REMARK    6  A    between atoms: C_6  and  C_16
REMARK    7  A    between atoms: C_10  and  C_13
REMARK    8  A    between atoms: C_13  and  C_14
REMARK    9  A    between atoms: C_13  and  C_15
REMARK   10  A    between atoms: C_16  and  C_17
REMARK   11  A    between atoms: C_17  and  N_18
REMARK   12  A    between atoms: N_18  and  C_19
REMARK   13  A    between atoms: C_19  and  C_20
REMARK   14  A    between atoms: C_23  and  O_26
REMARK   15  A    between atoms: O_26  and  C_27
REMARK   16  A    between atoms: C_28  and  C_30
REMARK                            x       y       z     vdW  Elec       q    Type
REMARK                         _______ _______ _______ _____ _____    ______ ____
ROOT
ATOM      1  C   UNL     1      -5.060   1.579   1.565  0.00  0.00    +0.026 C 
ENDROOT
BRANCH   1   2
ATOM      2  C   UNL     1      -4.548   0.969   0.259  0.00  0.00    -0.023 C 
ATOM      3  C   UNL     1      -4.482  -0.555   0.397  0.00  0.00    +0.035 C 
ATOM      4  C   UNL     1      -4.042  -1.162  -0.938  0.00  0.00    +0.161 C 
ATOM      5  O   UNL     1      -4.954  -0.766  -1.964  0.00  0.00    -0.376 OA
ATOM      6  C   UNL     1      -5.023   0.646  -2.171  0.00  0.00    +0.121 C 
ATOM      7  C   UNL     1      -5.502   1.326  -0.885  0.00  0.00    +0.039 C 
BRANCH   6   8
ATOM      8  C   UNL     1      -6.004   0.949  -3.305  0.00  0.00    +0.012 C 
ATOM      9  C   UNL     1      -5.525   0.269  -4.589  0.00  0.00    +0.010 C 
ATOM     10  C   UNL     1      -7.391   0.420  -2.934  0.00  0.00    +0.010 C 
ENDBRANCH   6   8
BRANCH   2  11
ATOM     11  C   UNL     1      -3.152   1.516  -0.049  0.00  0.00    +0.007 C 
BRANCH  11  12
ATOM     12  C   UNL     1      -3.224   3.036  -0.204  0.00  0.00    +0.003 C 
BRANCH  12  14
ATOM     13  C   UNL     1      -0.941   3.347   0.763  0.00  0.00    +0.007 C 
ATOM     14  C   UNL     1      -1.821   3.588  -0.466  0.00  0.00    -0.017 C 
ATOM     15  C   UNL     1      -1.908   5.090  -0.744  0.00  0.00    +0.007 C 
ENDBRANCH  12  14
ENDBRANCH  11  12
ENDBRANCH   2  11
ENDBRANCH   1   2
BRANCH   1  16
ATOM     16  C   UNL     1      -4.098   1.231   2.702  0.00  0.00    +0.108 C 
BRANCH  16  17
ATOM     17  N   UNL     1      -4.600   1.797   3.957  0.00  0.00    -0.297 N 
ATOM     18  C   UNL     1      -4.270   3.056   4.307  0.00  0.00    +0.213 C 
ATOM     19  O   UNL     1      -4.615   3.496   5.384  0.00  0.00    -0.276 OA
ATOM     20  C   UNL     1      -3.474   3.917   3.362  0.00  0.00    +0.109 C 
BRANCH  17  21
ATOM     21  C   UNL     1      -5.459   0.994   4.830  0.00  0.00    +0.142 C 
BRANCH  21  22
ATOM     22  C   UNL     1      -4.606   0.230   5.810  0.00  0.00    -0.030 A 
ATOM     23  C   UNL     1      -4.152  -1.036   5.488  0.00  0.00    +0.009 A 
ATOM     24  C   UNL     1      -3.366  -1.737   6.382  0.00  0.00    +0.046 A 
ATOM     25  C   UNL     1      -3.041  -1.173   7.607  0.00  0.00    +0.120 A 
ATOM     26  C   UNL     1      -3.502   0.095   7.930  0.00  0.00    +0.046 A 
ATOM     27  C   UNL     1      -4.284   0.793   7.030  0.00  0.00    +0.009 A 
BRANCH  25  28
ATOM     28  O   UNL     1      -2.271  -1.863   8.491  0.00  0.00    -0.495 OA
ATOM     29  C   UNL     1      -1.832  -3.163   8.091  0.00  0.00    +0.277 C 
ENDBRANCH  25  28
ENDBRANCH  21  22
ENDBRANCH  17  21
ENDBRANCH  16  17
ENDBRANCH   1  16
TORSDOF 10
