REMARK  Name = ZINC03522792
REMARK  8 active torsions:
REMARK  status: ('A' for Active; 'I' for Inactive)
REMARK    1  A    between atoms: C_1  and  C_2
REMARK    2  A    between atoms: C_2  and  N_3
REMARK    3  A    between atoms: C_7  and  C_9
REMARK    4  A    between atoms: C_9  and  C_11
REMARK    5  A    between atoms: C_9  and  S_12
REMARK    6  A    between atoms: S_12  and  C_13
REMARK    7  A    between atoms: N_23  and  C_24
REMARK    8  A    between atoms: C_24  and  C_25
REMARK                            x       y       z     vdW  Elec       q    Type
REMARK                         _______ _______ _______ _____ _____    ______ ____
ROOT
ATOM      1  C   UNL     1       2.341   1.397  -0.013  0.00  0.00    +0.173 A 
ATOM      2  N   UNL     1       2.382   0.088  -0.020  0.00  0.00    -0.223 NA
ATOM      3  C   UNL     1       1.257  -0.655  -0.013  0.00  0.00    +0.079 A 
ATOM      4  C   UNL     1       1.300  -2.052  -0.022  0.00  0.00    +0.028 A 
ATOM      5  C   UNL     1       0.135  -2.765  -0.015  0.00  0.00    +0.002 A 
ATOM      6  C   UNL     1      -1.096  -2.122   0.000  0.00  0.00    +0.001 A 
ATOM      7  C   UNL     1      -1.171  -0.757   0.009  0.00  0.00    +0.015 A 
ATOM      8  C   UNL     1       0.002  -0.004   0.002  0.00  0.00    +0.065 A 
ATOM      9  C   UNL     1      -0.018   1.465   0.010  0.00  0.00    +0.263 A 
ATOM     10  O   UNL     1      -1.067   2.082   0.018  0.00  0.00    -0.267 OA
ATOM     11  N   UNL     1       1.174   2.106   0.002  0.00  0.00    -0.283 N 
ENDROOT
BRANCH   1  12
ATOM     12  S   UNL     1       3.863   2.285  -0.023  0.00  0.00    -0.075 S 
BRANCH  12  13
ATOM     13  C   UNL     1       5.033   0.904  -0.042  0.00  0.00    +0.137 C 
ATOM     14  C   UNL     1       4.910   0.114   1.262  0.00  0.00    +0.029 C 
BRANCH  13  19
ATOM     15  N   UNL     1       9.625   0.361  -1.358  0.00  0.00    -0.299 N 
ATOM     16  C   UNL     1       8.658   1.137  -0.828  0.00  0.00    +0.306 C 
ATOM     17  O   UNL     1       8.918   2.265  -0.459  0.00  0.00    -0.252 OA
ATOM     18  N   UNL     1       7.403   0.661  -0.707  0.00  0.00    -0.239 N 
ATOM     19  C   UNL     1       6.436   1.436  -0.177  0.00  0.00    +0.233 C 
ATOM     20  O   UNL     1       6.696   2.562   0.191  0.00  0.00    -0.274 OA
ATOM     21  H   UNL     1       9.417  -0.539  -1.652  0.00  0.00    +0.150 HD
ATOM     22  H   UNL     1       7.195  -0.240  -1.002  0.00  0.00    +0.159 HD
BRANCH  15  24
ATOM     23  C   UNL     1      11.883  -0.194  -2.115  0.00  0.00    +0.024 C 
ATOM     24  C   UNL     1      10.989   0.878  -1.489  0.00  0.00    +0.102 C 
ENDBRANCH  15  24
ENDBRANCH  13  19
ENDBRANCH  12  13
ENDBRANCH   1  12
BRANCH  11  25
ATOM     25  C   UNL     1       1.212   3.571   0.009  0.00  0.00    +0.162 C 
BRANCH  25  26
ATOM     26  C   UNL     1       1.239   4.066   1.432  0.00  0.00    -0.027 A 
ATOM     27  C   UNL     1       0.054   4.329   2.094  0.00  0.00    +0.008 A 
ATOM     28  C   UNL     1       0.077   4.779   3.401  0.00  0.00    +0.038 A 
ATOM     29  C   UNL     1       1.288   4.975   4.044  0.00  0.00    +0.123 A 
ATOM     30  C   UNL     1       2.474   4.715   3.378  0.00  0.00    +0.038 A 
ATOM     31  C   UNL     1       2.448   4.261   2.073  0.00  0.00    +0.008 A 
ATOM     32  F   UNL     1       1.311   5.418   5.319  0.00  0.00    -0.205 F 
ENDBRANCH  25  26
ENDBRANCH  11  25
TORSDOF 6
