REMARK  Name = ZINC09319118
REMARK  6 active torsions:
REMARK  status: ('A' for Active; 'I' for Inactive)
REMARK    1  A    between atoms: C_1  and  S_2
REMARK    2  A    between atoms: S_2  and  C_3
REMARK    3  A    between atoms: C_3  and  C_4
REMARK    4  A    between atoms: C_4  and  C_5
REMARK    5  A    between atoms: N_13  and  C_16
REMARK    6  A    between atoms: C_20  and  N_22
REMARK                            x       y       z     vdW  Elec       q    Type
REMARK                         _______ _______ _______ _____ _____    ______ ____
ROOT
ATOM      1  C   UNL     1       4.188   1.714  -0.886  0.00  0.00    -0.057 C 
ATOM      2  C   UNL     1       4.081   1.950   0.554  0.00  0.00    +0.073 C 
ATOM      3  C   UNL     1       3.178   0.788   1.119  0.00  0.00    +0.088 C 
ATOM      4  C   UNL     1       2.873   1.443   2.430  0.00  0.00    +0.229 C 
ATOM      5  O   UNL     1       1.845   1.353   3.066  0.00  0.00    -0.275 OA
ATOM      6  N   UNL     1       3.986   2.163   2.766  0.00  0.00    -0.210 N 
ATOM      7  C   UNL     1       4.861   2.312   1.713  0.00  0.00    +0.228 C 
ATOM      8  O   UNL     1       6.020   2.665   1.751  0.00  0.00    -0.275 OA
ATOM      9  C   UNL     1       2.178   0.758  -0.017  0.00  0.00    +0.050 C 
ATOM     10  C   UNL     1       1.315  -0.469  -0.014  0.00  0.00    -0.028 A 
ATOM     11  C   UNL     1       1.580  -1.820  -0.023  0.00  0.00    +0.004 A 
ATOM     12  C   UNL     1       0.539  -2.730  -0.016  0.00  0.00    +0.000 A 
ATOM     13  C   UNL     1      -0.769  -2.280  -0.001  0.00  0.00    +0.002 A 
ATOM     14  C   UNL     1      -1.040  -0.928   0.008  0.00  0.00    +0.023 A 
ATOM     15  C   UNL     1       0.002  -0.004   0.002  0.00  0.00    +0.036 A 
ATOM     16  N   UNL     1      -0.017   1.393   0.010  0.00  0.00    -0.286 N 
ATOM     17  C   UNL     1       1.225   1.917   0.001  0.00  0.00    +0.211 C 
ATOM     18  O   UNL     1       1.516   3.095   0.006  0.00  0.00    -0.277 OA
ATOM     19  H   UNL     1      -0.829   1.923   0.017  0.00  0.00    +0.155 HD
ATOM     20  N   UNL     1       3.050   0.810  -1.208  0.00  0.00    +0.394 N 
ATOM     21  H   UNL     1       3.400  -0.130  -1.428  0.00  0.00    -0.083 HD
ATOM     22  H   UNL     1       2.527   1.177  -2.011  0.00  0.00    -0.083 HD
ENDROOT
BRANCH   6  23
ATOM     23  C   UNL     1       4.212   2.691   4.045  0.00  0.00    +0.046 A 
ATOM     24  C   UNL     1       3.276   2.500   5.052  0.00  0.00    +0.024 A 
ATOM     25  C   UNL     1       3.504   3.017   6.312  0.00  0.00    +0.004 A 
ATOM     26  C   UNL     1       4.658   3.734   6.568  0.00  0.00    +0.033 A 
ATOM     27  C   UNL     1       5.590   3.931   5.566  0.00  0.00    +0.128 A 
ATOM     28  C   UNL     1       5.370   3.412   4.305  0.00  0.00    +0.056 A 
BRANCH  27  29
ATOM     29  N   UNL     1       6.824   4.699   5.844  0.00  0.00    +0.056 N 
ATOM     30  O   UNL     1       7.645   4.873   4.961  0.00  0.00    -0.126 OA
ATOM     31  O   UNL     1       7.019   5.157   6.956  0.00  0.00    -0.126 OA
ENDBRANCH  27  29
ENDBRANCH   6  23
BRANCH   1  32
ATOM     32  C   UNL     1       5.523   1.044  -1.217  0.00  0.00    -0.004 C 
BRANCH  32  33
ATOM     33  C   UNL     1       5.642   0.865  -2.732  0.00  0.00    +0.067 C 
BRANCH  33  35
ATOM     34  C   UNL     1       7.211  -0.068  -4.932  0.00  0.00    +0.084 C 
ATOM     35  S   UNL     1       7.225   0.070  -3.123  0.00  0.00    -0.164 S 
ENDBRANCH  33  35
ENDBRANCH  32  33
ENDBRANCH   1  32
TORSDOF 5
