REMARK  Name = ZINC33024421
REMARK  10 active torsions:
REMARK  status: ('A' for Active; 'I' for Inactive)
REMARK    1  A    between atoms: C_1  and  C_2
REMARK    2  A    between atoms: C_3  and  C_31
REMARK    3  A    between atoms: C_4  and  C_9
REMARK    4  A    between atoms: C_7  and  C_8
REMARK    5  A    between atoms: C_14  and  C_17
REMARK    6  A    between atoms: C_17  and  C_18
REMARK    7  A    between atoms: N_20  and  C_21
REMARK    8  A    between atoms: C_21  and  C_22
REMARK    9  A    between atoms: C_22  and  N_23
REMARK   10  A    between atoms: C_28  and  C_30
REMARK                            x       y       z     vdW  Elec       q    Type
REMARK                         _______ _______ _______ _____ _____    ______ ____
ROOT
ATOM      1  C   UNL     1      -9.583  -7.079  -1.325  0.00  0.00    +0.263 C 
ATOM      2  O   UNL     1     -10.739  -7.359  -1.066  0.00  0.00    -0.268 OA
ATOM      3  N   UNL     1      -8.890  -6.261  -0.509  0.00  0.00    -0.296 N 
ATOM      4  C   UNL     1      -9.546  -5.614   0.636  0.00  0.00    +0.108 C 
ATOM      5  C   UNL     1      -9.304  -4.103   0.553  0.00  0.00    +0.023 C 
ATOM      6  C   UNL     1      -7.801  -3.835   0.456  0.00  0.00    +0.001 C 
ATOM      7  C   UNL     1      -7.246  -4.483  -0.815  0.00  0.00    +0.023 C 
ATOM      8  C   UNL     1      -7.464  -5.998  -0.747  0.00  0.00    +0.108 C 
ENDROOT
BRANCH   1  12
ATOM      9  C   UNL     1      -6.724  -9.897  -4.424  0.00  0.00    +0.046 C 
ATOM     10  C   UNL     1      -7.691  -8.866  -3.900  0.00  0.00    -0.027 A 
ATOM     11  C   UNL     1      -8.033  -8.665  -2.559  0.00  0.00    -0.018 A 
ATOM     12  C   UNL     1      -8.945  -7.632  -2.524  0.00  0.00    +0.105 A 
ATOM     13  N   UNL     1      -9.143  -7.210  -3.819  0.00  0.00    -0.354 N 
ATOM     14  H   UNL     1      -9.836  -6.382  -4.028  0.00  0.00    +0.166 HD
ATOM     15  C   UNL     1      -8.377  -7.966  -4.643  0.00  0.00    +0.017 A 
ATOM     16  C   UNL     1      -8.301  -7.827  -6.142  0.00  0.00    +0.063 C 
ATOM     17  C   UNL     1      -7.506  -9.435  -1.375  0.00  0.00    +0.046 C 
ENDBRANCH   1  12
BRANCH   6  18
ATOM     18  C   UNL     1      -7.554  -2.326   0.408  0.00  0.00    +0.099 C 
BRANCH  18  19
ATOM     19  C   UNL     1      -6.071  -2.058   0.436  0.00  0.00    +0.213 C 
ATOM     20  O   UNL     1      -5.289  -2.983   0.490  0.00  0.00    -0.276 OA
ATOM     21  N   UNL     1      -5.615  -0.791   0.402  0.00  0.00    -0.317 N 
ATOM     22  H   UNL     1      -6.324   0.049   0.354  0.00  0.00    +0.149 HD
BRANCH  21  23
ATOM     23  C   UNL     1      -4.173  -0.530   0.430  0.00  0.00    +0.085 C 
BRANCH  23  24
ATOM     24  C   UNL     1      -3.926   0.979   0.382  0.00  0.00    -0.059 C 
BRANCH  24  25
ATOM     25  N   UNL     1      -2.481   1.240   0.409  0.00  0.00    +0.382 N 
ATOM     26  C   UNL     1      -1.833   0.741  -0.810  0.00  0.00    -0.078 C 
ATOM     27  C   UNL     1      -0.360   1.157  -0.814  0.00  0.00    -0.019 C 
ATOM     28  C   UNL     1       0.331   0.582   0.426  0.00  0.00    -0.003 C 
ATOM     29  C   UNL     1      -0.392   1.078   1.681  0.00  0.00    -0.016 C 
ATOM     30  C   UNL     1      -1.865   0.664   1.611  0.00  0.00    -0.072 C 
ATOM     31  C   UNL     1      -2.597   1.175   2.854  0.00  0.00    -0.013 C 
ATOM     32  H   UNL     1      -2.333   2.329   0.446  0.00  0.00    -0.081 HD
ENDBRANCH  24  25
ENDBRANCH  23  24
ENDBRANCH  21  23
ENDBRANCH  18  19
ENDBRANCH   6  18
TORSDOF 6
