REMARK  Name = ZINC65076804
REMARK  4 active torsions:
REMARK  status: ('A' for Active; 'I' for Inactive)
REMARK    1  A    between atoms: C_1  and  C_2
REMARK    2  A    between atoms: C_7  and  C_8
REMARK    3  A    between atoms: C_11  and  C_14
REMARK    4  A    between atoms: C_20  and  C_22
REMARK                            x       y       z     vdW  Elec       q    Type
REMARK                         _______ _______ _______ _____ _____    ______ ____
ROOT
ATOM      1  C   UNL     1       0.948  -1.653   5.718  0.00  0.00    +0.059 C 
ATOM      2  C   UNL     1       0.292  -0.886   6.869  0.00  0.00    +0.030 C 
ATOM      3  C   UNL     1       0.383  -1.720   8.150  0.00  0.00    +0.108 C 
ATOM      4  N   UNL     1       1.789  -2.075   8.386  0.00  0.00    -0.299 N 
ATOM      5  C   UNL     1       2.540  -2.735   7.310  0.00  0.00    +0.108 C 
ATOM      6  C   UNL     1       2.425  -1.890   6.037  0.00  0.00    +0.030 C 
ATOM      7  C   UNL     1       2.379  -1.799   9.566  0.00  0.00    +0.242 C 
ATOM      8  O   UNL     1       1.748  -1.252  10.446  0.00  0.00    -0.273 OA
ENDROOT
BRANCH   7   9
ATOM      9  C   UNL     1       3.822  -2.169   9.791  0.00  0.00    +0.190 C 
ATOM     10  C   UNL     1       4.710  -1.422   8.821  0.00  0.00    +0.016 C 
ATOM     11  C   UNL     1       5.539  -0.667   9.576  0.00  0.00    -0.002 A 
ATOM     12  C   UNL     1       6.618   0.268   9.236  0.00  0.00    +0.029 A 
ATOM     13  C   UNL     1       7.287   0.890  10.235  0.00  0.00    +0.042 A 
ATOM     14  C   UNL     1       6.975   0.662  11.584  0.00  0.00    +0.022 A 
ATOM     15  C   UNL     1       5.998  -0.183  11.974  0.00  0.00    +0.027 A 
ATOM     16  C   UNL     1       5.231  -0.890  11.007  0.00  0.00    +0.043 A 
ATOM     17  N   UNL     1       4.247  -1.750  11.132  0.00  0.00    -0.370 N 
ATOM     18 CL   UNL     1       8.563   1.997   9.838  0.00  0.00    -0.084 Cl
ATOM     19  H   UNL     1       3.866  -2.058  11.969  0.00  0.00    +0.161 HD
ENDBRANCH   7   9
BRANCH   1  22
ATOM     20  C   UNL     1       0.025   0.045   2.504  0.00  0.00    +0.323 C 
ATOM     21  N   UNL     1      -0.267  -0.870   3.619  0.00  0.00    -0.289 N 
ATOM     22  C   UNL     1       0.830  -0.851   4.448  0.00  0.00    +0.141 C 
ATOM     23  N   UNL     1       1.742  -0.063   4.005  0.00  0.00    -0.071 NA
ATOM     24  O   UNL     1       1.339   0.551   2.792  0.00  0.00    -0.365 OA
ATOM     25  H   UNL     1      -1.077  -1.388   3.745  0.00  0.00    +0.151 HD
BRANCH  20  32
ATOM     26  C   UNL     1      -0.018   1.503   0.010  0.00  0.00    +0.044 C 
ATOM     27  C   UNL     1       0.002  -0.004   0.002  0.00  0.00    -0.042 A 
ATOM     28  C   UNL     1       0.006  -0.689  -1.199  0.00  0.00    +0.004 A 
ATOM     29  C   UNL     1       0.025  -2.071  -1.207  0.00  0.00    +0.000 A 
ATOM     30  C   UNL     1       0.040  -2.768  -0.013  0.00  0.00    +0.000 A 
ATOM     31  C   UNL     1       0.037  -2.084   1.188  0.00  0.00    +0.009 A 
ATOM     32  C   UNL     1       0.023  -0.702   1.195  0.00  0.00    +0.016 A 
ENDBRANCH  20  32
ENDBRANCH   1  22
TORSDOF 3
