REMARK  Name = ZINC62525772
REMARK  3 active torsions:
REMARK  status: ('A' for Active; 'I' for Inactive)
REMARK    1  A    between atoms: C_1  and  C_2
REMARK    2  A    between atoms: C_3  and  N_14
REMARK    3  A    between atoms: N_8  and  C_12
REMARK                            x       y       z     vdW  Elec       q    Type
REMARK                         _______ _______ _______ _____ _____    ______ ____
ROOT
ATOM      1  C   UNL     1      -0.018   1.503   0.010  0.00  0.00    +0.048 C 
ATOM      2  C   UNL     1       0.002  -0.004   0.002  0.00  0.00    -0.002 A 
ATOM      3  C   UNL     1       0.006  -0.694  -1.202  0.00  0.00    +0.031 A 
ATOM      4  C   UNL     1       0.025  -2.083  -1.208  0.00  0.00    +0.046 A 
ATOM      5  C   UNL     1       0.040  -2.784  -0.017  0.00  0.00    +0.087 A 
ATOM      6  C   UNL     1       0.036  -2.100   1.189  0.00  0.00    +0.176 A 
ATOM      7  C   UNL     1       0.023  -0.705   1.197  0.00  0.00    +0.096 A 
ATOM      8  N   UNL     1       0.030  -0.314   2.535  0.00  0.00    -0.277 N 
ATOM      9  C   UNL     1       0.051  -1.433   3.285  0.00  0.00    +0.421 A 
ATOM     10  O   UNL     1       0.063  -1.464   4.501  0.00  0.00    -0.223 OA
ATOM     11  O   UNL     1       0.047  -2.509   2.483  0.00  0.00    -0.406 OA
ATOM     12  C   UNL     1       0.016   1.063   3.035  0.00  0.00    +0.156 C 
ATOM     13 CL   UNL     1       0.062  -4.520  -0.031  0.00  0.00    -0.080 Cl
ENDROOT
BRANCH   3  14
ATOM     14  N   UNL     1      -0.010   0.011  -2.411  0.00  0.00    -0.358 N 
ATOM     15  H   UNL     1      -0.023   0.981  -2.407  0.00  0.00    +0.142 HD
ATOM     16  H   UNL     1      -0.007  -0.471  -3.253  0.00  0.00    +0.142 HD
ENDBRANCH   3  14
TORSDOF 1
