REMARK  Name = ZINC08629251
REMARK  13 active torsions:
REMARK  status: ('A' for Active; 'I' for Inactive)
REMARK    1  A    between atoms: C_1  and  C_2
REMARK    2  A    between atoms: C_2  and  C_4
REMARK    3  A    between atoms: C_2  and  O_14
REMARK    4  A    between atoms: N_6  and  C_7
REMARK    5  A    between atoms: C_7  and  C_8
REMARK    6  A    between atoms: C_7  and  C_9
REMARK    7  A    between atoms: C_7  and  C_11
REMARK    8  A    between atoms: C_11  and  C_12
REMARK    9  A    between atoms: C_11  and  C_13
REMARK   10  A    between atoms: O_14  and  C_15
REMARK   11  A    between atoms: C_15  and  C_17
REMARK   12  A    between atoms: C_30  and  C_31
REMARK   13  A    between atoms: C_34  and  O_37
REMARK                            x       y       z     vdW  Elec       q    Type
REMARK                         _______ _______ _______ _____ _____    ______ ____
ROOT
ATOM      1  C   UNL     1       0.427  -1.177   3.619  0.00  0.00    +0.073 A 
ATOM      2  C   UNL     1       0.973  -0.254   4.613  0.00  0.00    +0.015 A 
ATOM      3  C   UNL     1       0.850   1.132   4.472  0.00  0.00    +0.011 A 
ATOM      4  C   UNL     1       1.375   1.955   5.425  0.00  0.00    +0.001 A 
ATOM      5  C   UNL     1       2.032   1.432   6.536  0.00  0.00    +0.002 A 
ATOM      6  C   UNL     1       2.169   0.088   6.704  0.00  0.00    +0.028 A 
ATOM      7  C   UNL     1       1.640  -0.793   5.741  0.00  0.00    +0.072 A 
ATOM      8  N   UNL     1       1.758  -2.112   5.878  0.00  0.00    -0.247 NA
ATOM      9  C   UNL     1       1.273  -2.977   4.993  0.00  0.00    +0.072 A 
ATOM     10  C   UNL     1       0.592  -2.536   3.846  0.00  0.00    -0.007 A 
ATOM     11  C   UNL     1       0.147  -3.724   3.029  0.00  0.00    +0.043 C 
ATOM     12  C   UNL     1       0.618  -4.970   3.790  0.00  0.00    +0.042 C 
ATOM     13  C   UNL     1       1.330  -4.451   5.014  0.00  0.00    -0.021 C 
ATOM     14  C   UNL     1       1.904  -5.204   5.970  0.00  0.00    +0.013 C 
ENDROOT
BRANCH  14  15
ATOM     15  C   UNL     1       1.765  -6.669   5.936  0.00  0.00    -0.024 A 
ATOM     16  C   UNL     1       2.206  -7.441   7.015  0.00  0.00    +0.011 A 
ATOM     17  C   UNL     1       2.074  -8.811   6.979  0.00  0.00    +0.046 A 
ATOM     18  C   UNL     1       1.502  -9.427   5.872  0.00  0.00    +0.117 A 
ATOM     19  C   UNL     1       1.062  -8.665   4.797  0.00  0.00    +0.046 A 
ATOM     20  C   UNL     1       1.186  -7.293   4.826  0.00  0.00    +0.011 A 
BRANCH  18  21
ATOM     21  O   UNL     1       1.375 -10.779   5.840  0.00  0.00    -0.507 OA
ATOM     22  H   UNL     1       0.540 -11.104   6.205  0.00  0.00    +0.292 HD
ENDBRANCH  18  21
ENDBRANCH  14  15
BRANCH   1  23
ATOM     23  C   UNL     1      -0.280  -0.682   2.419  0.00  0.00    +0.341 C 
ATOM     24  O   UNL     1      -1.480  -0.500   2.453  0.00  0.00    -0.245 OA
BRANCH  23  25
ATOM     25  O   UNL     1       0.407  -0.431   1.288  0.00  0.00    -0.449 OA
BRANCH  25  27
ATOM     26  C   UNL     1      -0.389   1.575   0.200  0.00  0.00    +0.062 C 
ATOM     27  C   UNL     1      -0.340   0.046   0.167  0.00  0.00    +0.259 C 
BRANCH  27  28
ATOM     28  C   UNL     1       0.323  -0.408  -1.108  0.00  0.00    +0.255 C 
ATOM     29  O   UNL     1       1.382  -0.996  -1.065  0.00  0.00    -0.272 OA
ATOM     30  N   UNL     1      -0.263  -0.161  -2.297  0.00  0.00    -0.294 N 
ATOM     31  H   UNL     1      -1.110   0.310  -2.332  0.00  0.00    +0.150 HD
BRANCH  30  32
ATOM     32  C   UNL     1       0.381  -0.602  -3.537  0.00  0.00    +0.121 C 
ATOM     33  C   UNL     1       0.543  -2.123  -3.514  0.00  0.00    +0.048 C 
BRANCH  32  34
ATOM     34  C   UNL     1      -0.484  -0.199  -4.732  0.00  0.00    +0.020 C 
ATOM     35  C   UNL     1       0.246  -0.547  -6.031  0.00  0.00    +0.010 C 
ATOM     36  C   UNL     1      -1.814  -0.952  -4.676  0.00  0.00    +0.010 C 
ENDBRANCH  32  34
BRANCH  32  37
ATOM     37  C   UNL     1       1.705   0.030  -3.654  0.00  0.00    +0.088 C 
ATOM     38  N   UNL     1       2.727   0.518  -3.744  0.00  0.00    -0.194 NA
ENDBRANCH  32  37
ENDBRANCH  30  32
ENDBRANCH  27  28
ENDBRANCH  25  27
ENDBRANCH  23  25
ENDBRANCH   1  23
TORSDOF 9
