REMARK  Name = ZINC06031900
REMARK  11 active torsions:
REMARK  status: ('A' for Active; 'I' for Inactive)
REMARK    1  A    between atoms: C_1  and  C_2
REMARK    2  A    between atoms: C_4  and  C_22
REMARK    3  A    between atoms: C_4  and  C_23
REMARK    4  A    between atoms: C_6  and  O_21
REMARK    5  A    between atoms: C_14  and  C_20
REMARK    6  A    between atoms: C_15  and  O_18
REMARK    7  A    between atoms: O_18  and  C_19
REMARK    8  A    between atoms: C_23  and  C_24
REMARK    9  A    between atoms: C_24  and  C_25
REMARK   10  A    between atoms: C_26  and  C_27
REMARK   11  A    between atoms: C_26  and  C_28
REMARK                            x       y       z     vdW  Elec       q    Type
REMARK                         _______ _______ _______ _____ _____    ______ ____
ROOT
ATOM      1  C   UNL     1       0.268   9.680   2.620  0.00  0.00    +0.053 C 
ATOM      2  C   UNL     1      -1.139   9.416   2.079  0.00  0.00    +0.181 C 
ATOM      3  C   UNL     1      -2.112   9.066   3.229  0.00  0.00    +0.037 C 
ATOM      4  C   UNL     1      -2.035   7.552   3.254  0.00  0.00    +0.046 A 
ATOM      5  C   UNL     1      -2.423   6.623   4.199  0.00  0.00    +0.125 A 
ATOM      6  C   UNL     1      -2.224   5.260   3.972  0.00  0.00    +0.058 A 
ATOM      7  C   UNL     1      -1.633   4.842   2.787  0.00  0.00    +0.043 A 
ATOM      8  C   UNL     1      -1.241   5.787   1.823  0.00  0.00    +0.075 A 
ATOM      9  C   UNL     1      -1.444   7.155   2.056  0.00  0.00    +0.140 A 
ATOM     10  O   UNL     1      -1.158   8.227   1.272  0.00  0.00    -0.487 OA
ATOM     11  C   UNL     1      -0.619   5.330   0.567  0.00  0.00    +0.197 C 
ATOM     12  O   UNL     1      -0.278   6.141  -0.274  0.00  0.00    -0.287 OA
ATOM     13  C   UNL     1      -0.410   3.897   0.332  0.00  0.00    +0.042 C 
ATOM     14  C   UNL     1      -0.781   2.983   1.251  0.00  0.00    +0.174 C 
ATOM     15  C   UNL     1      -1.415   3.403   2.521  0.00  0.00    +0.229 C 
ATOM     16  O   UNL     1      -1.750   2.572   3.341  0.00  0.00    -0.283 OA
ATOM     17  C   UNL     1       0.227   3.441  -0.955  0.00  0.00    +0.052 C 
ATOM     18  C   UNL     1      -3.532   9.537   2.906  0.00  0.00    +0.020 C 
ENDROOT
BRANCH  14  19
ATOM     19  O   UNL     1      -0.576   1.667   1.007  0.00  0.00    -0.491 OA
ATOM     20  C   UNL     1       0.351   0.987   1.856  0.00  0.00    +0.277 C 
ENDBRANCH  14  19
BRANCH   5  21
ATOM     21  O   UNL     1      -3.001   7.037   5.355  0.00  0.00    -0.506 OA
ATOM     22  H   UNL     1      -3.965   7.104   5.311  0.00  0.00    +0.292 HD
ENDBRANCH   5  21
BRANCH   3  23
ATOM     23  C   UNL     1      -1.629   9.661   4.553  0.00  0.00    +0.019 C 
BRANCH  23  24
ATOM     24  C   UNL     1      -1.688  11.188   4.478  0.00  0.00    +0.028 C 
BRANCH  24  25
ATOM     25  C   UNL     1      -1.099  11.776   5.735  0.00  0.00    -0.028 C 
ATOM     26  C   UNL     1      -0.143  12.668   5.655  0.00  0.00    -0.080 C 
ATOM     27  C   UNL     1       0.276  13.205   4.311  0.00  0.00    +0.038 C 
ATOM     28  C   UNL     1       0.537  13.158   6.908  0.00  0.00    +0.038 C 
ENDBRANCH  24  25
ENDBRANCH  23  24
ENDBRANCH   3  23
TORSDOF 5
