REMARK  Name = ZINC39289926
REMARK  5 active torsions:
REMARK  status: ('A' for Active; 'I' for Inactive)
REMARK    1  A    between atoms: C_1  and  C_2
REMARK    2  A    between atoms: C_6  and  N_8
REMARK    3  A    between atoms: C_14  and  C_15
REMARK    4  A    between atoms: C_18  and  S_20
REMARK    5  A    between atoms: S_20  and  C_21
REMARK                            x       y       z     vdW  Elec       q    Type
REMARK                         _______ _______ _______ _____ _____    ______ ____
ROOT
ATOM      1  N   UNL     1      -0.844  -3.238   2.083  0.00  0.00    -0.226 NA
ATOM      2  C   UNL     1      -1.501  -4.341   2.369  0.00  0.00    +0.166 C 
ATOM      3  N   UNL     1      -2.376  -5.059   1.579  0.00  0.00    -0.260 N 
ATOM      4  C   UNL     1      -2.944  -6.156   2.048  0.00  0.00    +0.257 C 
ATOM      5  O   UNL     1      -3.719  -6.799   1.361  0.00  0.00    -0.269 OA
ATOM      6  C   UNL     1      -2.631  -6.570   3.371  0.00  0.00    +0.081 C 
ATOM      7  C   UNL     1      -3.088  -7.663   4.074  0.00  0.00    +0.066 C 
ATOM      8  S   UNL     1      -1.482  -5.299   3.877  0.00  0.00    -0.049 S 
ATOM      9  H   UNL     1      -2.574  -4.757   0.679  0.00  0.00    +0.157 HD
ENDROOT
BRANCH   1  15
ATOM     10  C   UNL     1      -1.522   0.807  -0.590  0.00  0.00    +0.044 C 
ATOM     11  C   UNL     1      -1.328  -0.683  -0.481  0.00  0.00    -0.048 A 
ATOM     12  C   UNL     1      -1.302  -1.461  -1.625  0.00  0.00    +0.003 A 
ATOM     13  C   UNL     1      -1.124  -2.830  -1.535  0.00  0.00    +0.002 A 
ATOM     14  C   UNL     1      -0.971  -3.429  -0.302  0.00  0.00    +0.028 A 
ATOM     15  C   UNL     1      -0.995  -2.651   0.857  0.00  0.00    +0.067 A 
ATOM     16  C   UNL     1      -1.171  -1.268   0.758  0.00  0.00    +0.031 A 
ENDBRANCH   1  15
BRANCH   7  17
ATOM     17  C   UNL     1      -2.553  -7.959   5.341  0.00  0.00    +0.131 A 
ATOM     18  C   UNL     1      -2.866  -9.059   6.122  0.00  0.00    +0.050 A 
ATOM     19  C   UNL     1      -2.106  -8.953   7.289  0.00  0.00    +0.057 A 
ATOM     20  C   UNL     1      -1.365  -7.811   7.185  0.00  0.00    +0.165 A 
ATOM     21  O   UNL     1      -1.635  -7.223   6.009  0.00  0.00    -0.449 OA
BRANCH  20  22
ATOM     22  S   UNL     1      -0.233  -7.211   8.395  0.00  0.00    -0.046 S 
BRANCH  22  23
ATOM     23  C   UNL     1       1.357  -7.934   7.905  0.00  0.00    +0.240 C 
ATOM     24  N   UNL     1       1.746  -7.451   6.551  0.00  0.00    -0.275 NA
ATOM     25  C   UNL     1       2.472  -8.618   6.028  0.00  0.00    +0.128 C 
ATOM     26  C   UNL     1       2.491  -8.614   4.524  0.00  0.00    -0.002 C 
ATOM     27  C   UNL     1       2.331  -9.798   3.914  0.00  0.00    -0.002 C 
ATOM     28  C   UNL     1       2.143 -11.028   4.675  0.00  0.00    +0.002 C 
ATOM     29  C   UNL     1       1.889 -11.044   6.002  0.00  0.00    +0.025 C 
ATOM     30  C   UNL     1       1.829  -9.810   6.716  0.00  0.00    +0.060 C 
ATOM     31  N   UNL     1       1.237  -9.395   7.788  0.00  0.00    -0.256 NA
ATOM     32  H   UNL     1       0.931  -7.251   5.990  0.00  0.00    +0.126 HD
ENDBRANCH  22  23
ENDBRANCH  20  22
ENDBRANCH   7  17
TORSDOF 4
