REMARK  Name = ZINC42842203
REMARK  11 active torsions:
REMARK  status: ('A' for Active; 'I' for Inactive)
REMARK    1  A    between atoms: C_1  and  C_2
REMARK    2  A    between atoms: C_2  and  C_3
REMARK    3  A    between atoms: C_3  and  C_4
REMARK    4  A    between atoms: C_4  and  C_5
REMARK    5  A    between atoms: C_5  and  C_7
REMARK    6  A    between atoms: C_5  and  C_9
REMARK    7  A    between atoms: C_7  and  C_8
REMARK    8  A    between atoms: C_9  and  N_10
REMARK    9  A    between atoms: N_13  and  N_14
REMARK   10  A    between atoms: C_15  and  C_17
REMARK   11  A    between atoms: C_17  and  C_18
REMARK                            x       y       z     vdW  Elec       q    Type
REMARK                         _______ _______ _______ _____ _____    ______ ____
ROOT
ATOM      1  N   UNL     1      -6.845  -5.588  -0.335  0.00  0.00    -0.233 N 
ATOM      2  C   UNL     1      -8.109  -6.045  -0.432  0.00  0.00    +0.234 C 
ATOM      3  O   UNL     1      -8.316  -7.233  -0.562  0.00  0.00    -0.274 OA
ATOM      4  H   UNL     1      -6.679  -4.637  -0.231  0.00  0.00    +0.173 HD
ENDROOT
BRANCH   1   8
ATOM      5  N   UNL     1      -4.276  -4.707  -0.142  0.00  0.00    -0.298 N 
ATOM      6  C   UNL     1      -4.506  -6.027  -0.287  0.00  0.00    +0.316 C 
ATOM      7  O   UNL     1      -3.572  -6.806  -0.330  0.00  0.00    -0.251 OA
ATOM      8  N   UNL     1      -5.770  -6.484  -0.384  0.00  0.00    -0.218 N 
ATOM      9  H   UNL     1      -5.020  -4.086  -0.108  0.00  0.00    +0.150 HD
ATOM     10  H   UNL     1      -5.935  -7.434  -0.488  0.00  0.00    +0.174 HD
BRANCH   5  11
ATOM     11  C   UNL     1      -2.902  -4.210  -0.036  0.00  0.00    +0.109 C 
BRANCH  11  12
ATOM     12  C   UNL     1      -2.913  -2.680  -0.012  0.00  0.00    +0.006 C 
BRANCH  12  13
ATOM     13  C   UNL     1      -3.440  -2.153  -1.348  0.00  0.00    +0.002 C 
ATOM     14  C   UNL     1      -2.530  -2.633  -2.480  0.00  0.00    +0.004 C 
ENDBRANCH  12  13
BRANCH  12  15
ATOM     15  C   UNL     1      -1.491  -2.163   0.216  0.00  0.00    +0.005 C 
BRANCH  15  16
ATOM     16  C   UNL     1      -1.520  -0.641   0.365  0.00  0.00    +0.000 C 
BRANCH  16  18
ATOM     17  C   UNL     1      -0.127   1.399   0.742  0.00  0.00    +0.004 C 
ATOM     18  C   UNL     1      -0.098  -0.123   0.593  0.00  0.00    -0.003 C 
ENDBRANCH  16  18
ENDBRANCH  15  16
ENDBRANCH  12  15
ENDBRANCH  11  12
ENDBRANCH   5  11
ENDBRANCH   1   8
BRANCH   2  19
ATOM     19  C   UNL     1      -9.265  -5.080  -0.379  0.00  0.00    +0.134 C 
BRANCH  19  20
ATOM     20  C   UNL     1     -10.560  -5.840  -0.509  0.00  0.00    -0.014 A 
ATOM     21  C   UNL     1     -11.248  -6.058  -1.640  0.00  0.00    +0.087 A 
ATOM     22  N   UNL     1     -12.374  -6.786  -1.369  0.00  0.00    -0.360 N 
ATOM     23  H   UNL     1     -13.029  -7.066  -2.028  0.00  0.00    +0.165 HD
ATOM     24  C   UNL     1     -12.440  -7.062  -0.022  0.00  0.00    +0.047 A 
ATOM     25  C   UNL     1     -11.303  -6.487   0.576  0.00  0.00    +0.003 A 
ATOM     26  C   UNL     1     -11.099  -6.614   1.951  0.00  0.00    +0.010 A 
ATOM     27  C   UNL     1     -12.004  -7.301   2.710  0.00  0.00    +0.001 A 
ATOM     28  C   UNL     1     -13.125  -7.873   2.126  0.00  0.00    +0.002 A 
ATOM     29  C   UNL     1     -13.351  -7.752   0.772  0.00  0.00    +0.026 A 
ENDBRANCH  19  20
ENDBRANCH   2  19
TORSDOF 9
