REMARK  Name = ZINC16042549
REMARK  12 active torsions:
REMARK  status: ('A' for Active; 'I' for Inactive)
REMARK    1  A    between atoms: C_1  and  C_2
REMARK    2  A    between atoms: C_2  and  N_71
REMARK    3  A    between atoms: C_3  and  C_4
REMARK    4  A    between atoms: C_3  and  N_71
REMARK    5  A    between atoms: C_5  and  C_6
REMARK    6  A    between atoms: C_5  and  N_71
REMARK    7  A    between atoms: C_6  and  C_7
REMARK    8  A    between atoms: C_7  and  N_8
REMARK    9  A    between atoms: C_28  and  C_30
REMARK   10  A    between atoms: C_33  and  C_36
REMARK   11  A    between atoms: C_36  and  O_38
REMARK   12  A    between atoms: O_38  and  C_39
REMARK                            x       y       z     vdW  Elec       q    Type
REMARK                         _______ _______ _______ _____ _____    ______ ____
ROOT
ATOM      1  N   UNL     1      -1.190   7.239   0.660  0.00  0.00    -0.291 N 
ATOM      2  C   UNL     1      -2.119   6.888   1.722  0.00  0.00    +0.203 C 
ATOM      3  C   UNL     1      -2.993   5.736   1.346  0.00  0.00    +0.234 C 
ATOM      4  O   UNL     1      -3.826   5.373   2.149  0.00  0.00    -0.274 OA
ATOM      5  N   UNL     1      -2.919   5.080   0.186  0.00  0.00    -0.276 N 
ATOM      6  C   UNL     1      -1.910   5.368  -0.832  0.00  0.00    +0.167 C 
ATOM      7  C   UNL     1      -1.090   6.569  -0.486  0.00  0.00    +0.237 C 
ATOM      8  O   UNL     1      -0.282   6.959  -1.303  0.00  0.00    -0.274 OA
ATOM      9  C   UNL     1      -0.992   4.147  -0.992  0.00  0.00    +0.069 C 
ATOM     10  C   UNL     1      -1.840   2.903  -1.051  0.00  0.00    -0.015 A 
ATOM     11  C   UNL     1      -1.468   1.583  -1.520  0.00  0.00    +0.003 A 
ATOM     12  C   UNL     1      -0.281   1.066  -2.049  0.00  0.00    +0.010 A 
ATOM     13  C   UNL     1      -0.283  -0.264  -2.391  0.00  0.00    +0.001 A 
ATOM     14  C   UNL     1      -1.401  -1.065  -2.225  0.00  0.00    +0.002 A 
ATOM     15  C   UNL     1      -2.588  -0.579  -1.706  0.00  0.00    +0.026 A 
ATOM     16  C   UNL     1      -2.616   0.768  -1.350  0.00  0.00    +0.047 A 
ATOM     17  N   UNL     1      -3.601   1.557  -0.828  0.00  0.00    -0.356 N 
ATOM     18  H   UNL     1      -4.499   1.260  -0.616  0.00  0.00    +0.166 HD
ATOM     19  C   UNL     1      -3.127   2.829  -0.648  0.00  0.00    +0.046 A 
ATOM     20  C   UNL     1      -3.896   4.007  -0.093  0.00  0.00    +0.154 C 
ENDROOT
BRANCH  20  21
ATOM     21  C   UNL     1      -4.905   4.483  -1.106  0.00  0.00    -0.021 A 
ATOM     22  C   UNL     1      -4.718   5.696  -1.746  0.00  0.00    +0.006 A 
ATOM     23  C   UNL     1      -5.635   6.136  -2.678  0.00  0.00    +0.015 A 
ATOM     24  C   UNL     1      -6.759   5.359  -2.967  0.00  0.00    +0.059 A 
ATOM     25  C   UNL     1      -6.944   4.139  -2.314  0.00  0.00    +0.015 A 
ATOM     26  C   UNL     1      -6.016   3.709  -1.388  0.00  0.00    +0.006 A 
BRANCH  24  27
ATOM     27  C   UNL     1      -7.748   5.827  -3.961  0.00  0.00    +0.339 C 
ATOM     28  O   UNL     1      -8.724   5.149  -4.210  0.00  0.00    -0.245 OA
BRANCH  27  29
ATOM     29  O   UNL     1      -7.566   7.004  -4.589  0.00  0.00    -0.464 OA
ATOM     30  C   UNL     1      -8.578   7.400  -5.552  0.00  0.00    +0.280 C 
ENDBRANCH  27  29
ENDBRANCH  24  27
ENDBRANCH  20  21
BRANCH   1  31
ATOM     31  C   UNL     1      -0.315   8.395   0.863  0.00  0.00    +0.106 C 
BRANCH  31  32
ATOM     32  C   UNL     1      -1.008   9.657   0.344  0.00  0.00    +0.000 C 
BRANCH  32  33
ATOM     33  C   UNL     1      -0.093  10.865   0.556  0.00  0.00    -0.077 C 
BRANCH  33  34
ATOM     34  N   UNL     1      -0.785  12.078   0.070  0.00  0.00    +0.379 N 
ATOM     35  H   UNL     1      -1.718  12.123   0.497  0.00  0.00    -0.082 HD
BRANCH  34  37
ATOM     36  C   UNL     1      -0.293  13.585   1.930  0.00  0.00    -0.017 C 
ATOM     37  C   UNL     1      -0.021  13.283   0.455  0.00  0.00    -0.082 C 
ENDBRANCH  34  37
BRANCH  34  38
ATOM     38  C   UNL     1      -0.932  12.020  -1.399  0.00  0.00    -0.082 C 
ATOM     39  C   UNL     1      -1.965  13.064  -1.830  0.00  0.00    -0.017 C 
ENDBRANCH  34  38
ENDBRANCH  33  34
ENDBRANCH  32  33
ENDBRANCH  31  32
ENDBRANCH   1  31
TORSDOF 9
