REMARK  Name = ZINC59187985
REMARK  14 active torsions:
REMARK  status: ('A' for Active; 'I' for Inactive)
REMARK    1  A    between atoms: C_1  and  C_2
REMARK    2  A    between atoms: C_6  and  C_29
REMARK    3  A    between atoms: C_7  and  N_8
REMARK    4  A    between atoms: N_8  and  C_9
REMARK    5  A    between atoms: C_9  and  N_11
REMARK    6  A    between atoms: N_11  and  C_12
REMARK    7  A    between atoms: N_11  and  C_19
REMARK    8  A    between atoms: C_12  and  C_13
REMARK    9  A    between atoms: C_21  and  C_27
REMARK   10  A    between atoms: C_21  and  C_28
REMARK   11  A    between atoms: C_23  and  C_25
REMARK   12  A    between atoms: C_23  and  C_26
REMARK   13  A    between atoms: C_29  and  C_30
REMARK   14  A    between atoms: C_29  and  C_31
REMARK                            x       y       z     vdW  Elec       q    Type
REMARK                         _______ _______ _______ _____ _____    ______ ____
ROOT
ATOM      1  N   UNL     1      -0.800   1.532   1.841  0.00  0.00    -0.304 N 
ENDROOT
BRANCH   1   2
ATOM      2  C   UNL     1      -1.020   0.741   3.058  0.00  0.00    +0.073 C 
ATOM      3  C   UNL     1       0.330   0.442   3.713  0.00  0.00    +0.009 C 
ATOM      4  C   UNL     1       0.119  -0.393   4.976  0.00  0.00    -0.072 C 
ATOM      5  N   UNL     1      -0.654  -1.598   4.714  0.00  0.00    +0.386 N 
ATOM      6  C   UNL     1      -1.863  -1.465   3.917  0.00  0.00    -0.072 C 
ATOM      7  C   UNL     1      -1.677  -0.587   2.684  0.00  0.00    +0.009 C 
ATOM      8  C   UNL     1      -2.247  -2.879   3.419  0.00  0.00    -0.010 C 
ATOM      9  C   UNL     1      -3.038  -0.951   4.752  0.00  0.00    -0.010 C 
ATOM     10  C   UNL     1      -0.505   0.464   6.077  0.00  0.00    -0.010 C 
ATOM     11  C   UNL     1       1.516  -0.832   5.474  0.00  0.00    -0.010 C 
ATOM     12  H   UNL     1      -0.041  -2.279   4.259  0.00  0.00    -0.084 HD
ATOM     13  H   UNL     1      -0.904  -2.020   5.612  0.00  0.00    -0.084 HD
ENDBRANCH   1   2
BRANCH   1  14
ATOM     14  C   UNL     1      -0.331   0.938   0.726  0.00  0.00    +0.138 C 
ATOM     15  S   UNL     1      -0.069   1.862  -0.691  0.00  0.00    -0.018 S 
BRANCH  14  16
ATOM     16  N   UNL     1      -0.067  -0.384   0.728  0.00  0.00    -0.296 N 
ATOM     17  H   UNL     1      -0.699  -1.004   0.333  0.00  0.00    +0.154 HD
BRANCH  16  24
ATOM     18  C   UNL     1       0.090  -3.147   1.387  0.00  0.00    +0.045 C 
ATOM     19  C   UNL     1       1.238  -2.202   1.635  0.00  0.00    -0.029 A 
ATOM     20  C   UNL     1       2.412  -2.670   2.193  0.00  0.00    +0.005 A 
ATOM     21  C   UNL     1       3.465  -1.804   2.421  0.00  0.00    +0.001 A 
ATOM     22  C   UNL     1       3.346  -0.466   2.091  0.00  0.00    +0.006 A 
ATOM     23  C   UNL     1       2.176   0.009   1.534  0.00  0.00    -0.023 A 
ATOM     24  C   UNL     1       1.118  -0.860   1.298  0.00  0.00    +0.039 A 
BRANCH  23  25
ATOM     25  C   UNL     1       2.048   1.467   1.175  0.00  0.00    +0.015 C 
ATOM     26  C   UNL     1       2.949   2.299   2.091  0.00  0.00    +0.012 C 
ATOM     27  C   UNL     1       2.472   1.673  -0.281  0.00  0.00    +0.012 C 
ENDBRANCH  23  25
ENDBRANCH  16  24
ENDBRANCH  14  16
ENDBRANCH   1  14
BRANCH   1  28
ATOM     28  C   UNL     1      -1.092   2.968   1.838  0.00  0.00    +0.162 C 
BRANCH  28  29
ATOM     29  C   UNL     1      -2.523   3.189   1.421  0.00  0.00    +0.058 A 
ATOM     30  C   UNL     1      -3.502   3.330   2.386  0.00  0.00    +0.025 A 
ATOM     31  C   UNL     1      -4.816   3.533   1.992  0.00  0.00    +0.003 A 
ATOM     32  C   UNL     1      -5.097   3.587   0.635  0.00  0.00    +0.020 A 
ATOM     33  C   UNL     1      -4.065   3.437  -0.273  0.00  0.00    +0.111 A 
ATOM     34  N   UNL     1      -2.826   3.251   0.139  0.00  0.00    -0.258 NA
ENDBRANCH  28  29
ENDBRANCH   1  28
TORSDOF 7
