REMARK  Name = ZINC35499052
REMARK  18 active torsions:
REMARK  status: ('A' for Active; 'I' for Inactive)
REMARK    1  A    between atoms: C_1  and  C_2
REMARK    2  A    between atoms: C_2  and  C_3
REMARK    3  A    between atoms: C_2  and  C_4
REMARK    4  A    between atoms: C_2  and  C_5
REMARK    5  A    between atoms: C_8  and  C_11
REMARK    6  A    between atoms: C_11  and  N_12
REMARK    7  A    between atoms: C_16  and  C_17
REMARK    8  A    between atoms: C_17  and  N_18
REMARK    9  A    between atoms: N_18  and  C_19
REMARK   10  A    between atoms: N_18  and  C_22
REMARK   11  A    between atoms: C_19  and  C_20
REMARK   12  A    between atoms: C_22  and  C_23
REMARK   13  A    between atoms: C_23  and  C_25
REMARK   14  A    between atoms: C_23  and  O_35
REMARK   15  A    between atoms: C_25  and  O_26
REMARK   16  A    between atoms: O_26  and  C_27
REMARK   17  A    between atoms: C_30  and  O_33
REMARK   18  A    between atoms: O_33  and  C_34
REMARK                            x       y       z     vdW  Elec       q    Type
REMARK                         _______ _______ _______ _____ _____    ______ ____
ROOT
ATOM      1  N   UNL     1       3.338   1.428  -3.865  0.00  0.00    +0.387 N 
ATOM      2  H   UNL     1       2.738   2.223  -4.027  0.00  0.00    -0.081 HD
ENDROOT
BRANCH   1   3
ATOM      3  C   UNL     1       4.126   1.155  -5.074  0.00  0.00    -0.024 C 
BRANCH   3   8
ATOM      4  N   UNL     1       2.693   1.988  -7.021  0.00  0.00    -0.348 N 
ATOM      5  C   UNL     1       1.902   1.441  -7.988  0.00  0.00    +0.086 A 
ATOM      6  C   UNL     1       1.902   0.102  -7.825  0.00  0.00    +0.019 A 
ATOM      7  C   UNL     1       2.724  -0.188  -6.718  0.00  0.00    +0.021 A 
ATOM      8  C   UNL     1       3.199   0.984  -6.250  0.00  0.00    +0.003 A 
BRANCH   4   9
ATOM      9  C   UNL     1       2.961   3.417  -6.845  0.00  0.00    +0.156 C 
BRANCH   9  13
ATOM     10  C   UNL     1       6.514   4.476  -8.967  0.00  0.00    -0.042 A 
ATOM     11  C   UNL     1       5.303   4.424  -9.630  0.00  0.00    +0.004 A 
ATOM     12  C   UNL     1       4.153   4.082  -8.944  0.00  0.00    +0.005 A 
ATOM     13  C   UNL     1       4.215   3.790  -7.594  0.00  0.00    -0.028 A 
ATOM     14  C   UNL     1       5.426   3.841  -6.930  0.00  0.00    +0.005 A 
ATOM     15  C   UNL     1       6.577   4.179  -7.618  0.00  0.00    +0.004 A 
BRANCH  10  17
ATOM     16  C   UNL     1       8.771   3.697  -9.636  0.00  0.00    +0.015 C 
ATOM     17  C   UNL     1       7.768   4.849  -9.715  0.00  0.00    -0.013 C 
ATOM     18  C   UNL     1       8.381   6.103  -9.089  0.00  0.00    +0.015 C 
ATOM     19  C   UNL     1       7.424   5.127 -11.180  0.00  0.00    +0.015 C 
ENDBRANCH  10  17
ENDBRANCH   9  13
ENDBRANCH   4   9
ENDBRANCH   3   8
ENDBRANCH   1   3
BRANCH   1  20
ATOM     20  C   UNL     1       4.244   1.718  -2.745  0.00  0.00    -0.051 C 
BRANCH  20  21
ATOM     21  C   UNL     1       4.986   3.001  -3.019  0.00  0.00    -0.053 C 
ATOM     22  C   UNL     1       4.943   3.980  -2.150  0.00  0.00    +0.002 C 
ENDBRANCH  20  21
ENDBRANCH   1  20
BRANCH   1  23
ATOM     23  C   UNL     1       2.518   0.254  -3.540  0.00  0.00    -0.043 C 
BRANCH  23  24
ATOM     24  C   UNL     1       1.581   0.592  -2.378  0.00  0.00    +0.135 C 
BRANCH  24  25
ATOM     25  O   UNL     1       0.662   1.607  -2.787  0.00  0.00    -0.390 OA
ATOM     26  H   UNL     1       0.107   1.355  -3.538  0.00  0.00    +0.210 HD
ENDBRANCH  24  25
BRANCH  24  27
ATOM     27  C   UNL     1       0.806  -0.661  -1.966  0.00  0.00    +0.258 C 
BRANCH  27  28
ATOM     28  O   UNL     1       0.019  -0.376  -0.808  0.00  0.00    -0.489 OA
BRANCH  28  29
ATOM     29  C   UNL     1      -0.736  -1.390  -0.309  0.00  0.00    +0.121 A 
ATOM     30  C   UNL     1      -0.714  -2.636  -0.919  0.00  0.00    +0.049 A 
ATOM     31  C   UNL     1      -1.480  -3.667  -0.412  0.00  0.00    +0.049 A 
ATOM     32  C   UNL     1      -2.272  -3.457   0.707  0.00  0.00    +0.120 A 
ATOM     33  C   UNL     1      -2.294  -2.211   1.317  0.00  0.00    +0.049 A 
ATOM     34  C   UNL     1      -1.524  -1.181   0.813  0.00  0.00    +0.049 A 
BRANCH  32  35
ATOM     35  O   UNL     1      -3.028  -4.471   1.206  0.00  0.00    -0.495 OA
ATOM     36  C   UNL     1      -3.820  -4.184   2.360  0.00  0.00    +0.277 C 
ENDBRANCH  32  35
ENDBRANCH  28  29
ENDBRANCH  27  28
ENDBRANCH  24  27
ENDBRANCH  23  24
ENDBRANCH   1  23
TORSDOF 14
