REMARK  Name = ZINC35551173
REMARK  8 active torsions:
REMARK  status: ('A' for Active; 'I' for Inactive)
REMARK    1  A    between atoms: C_1  and  C_2
REMARK    2  A    between atoms: C_2  and  C_3
REMARK    3  A    between atoms: C_4  and  C_37
REMARK    4  A    between atoms: C_6  and  C_27
REMARK    5  A    between atoms: C_8  and  N_9
REMARK    6  A    between atoms: C_15  and  C_17
REMARK    7  A    between atoms: C_20  and  C_23
REMARK    8  A    between atoms: C_30  and  C_33
REMARK                            x       y       z     vdW  Elec       q    Type
REMARK                         _______ _______ _______ _____ _____    ______ ____
ROOT
ATOM      1  C   UNL     1       0.274  -0.345  -0.530  0.00  0.00    +0.011 A 
ATOM      2  C   UNL     1      -0.590  -0.651  -1.564  0.00  0.00    +0.021 A 
ATOM      3  N   UNL     1      -0.095  -0.985  -2.746  0.00  0.00    -0.343 N 
ATOM      4  C   UNL     1       1.215  -1.030  -2.947  0.00  0.00    +0.140 A 
ATOM      5  N   UNL     1       2.077  -0.744  -1.982  0.00  0.00    -0.214 NA
ATOM      6  C   UNL     1       1.649  -0.395  -0.774  0.00  0.00    +0.128 A 
ATOM      7  C   UNL     1      -2.081  -0.605  -1.349  0.00  0.00    +0.064 C 
ATOM      8  H   UNL     1      -0.698  -1.201  -3.474  0.00  0.00    +0.167 HD
ENDROOT
BRANCH   6   9
ATOM      9  N   UNL     1       2.552  -0.091   0.232  0.00  0.00    -0.312 N 
ATOM     10  C   UNL     1       2.965  -1.116   1.201  0.00  0.00    +0.125 C 
ATOM     11  C   UNL     1       4.495  -1.218   1.184  0.00  0.00    +0.127 C 
ATOM     12  N   UNL     1       5.058   0.134   1.300  0.00  0.00    -0.295 N 
ATOM     13  C   UNL     1       4.646   1.159   0.330  0.00  0.00    +0.127 C 
ATOM     14  C   UNL     1       3.120   1.260   0.344  0.00  0.00    +0.125 C 
ATOM     15  C   UNL     1       5.937   0.430   2.278  0.00  0.00    +0.247 C 
ATOM     16  O   UNL     1       6.319   1.574   2.426  0.00  0.00    -0.270 OA
BRANCH  15  17
ATOM     17  C   UNL     1       6.438  -0.638   3.170  0.00  0.00    +0.037 A 
ATOM     18  C   UNL     1       6.629  -1.930   2.678  0.00  0.00    +0.013 A 
ATOM     19  C   UNL     1       7.096  -2.922   3.515  0.00  0.00    +0.013 A 
ATOM     20  C   UNL     1       7.375  -2.638   4.840  0.00  0.00    +0.055 A 
ATOM     21  C   UNL     1       7.187  -1.359   5.335  0.00  0.00    +0.013 A 
ATOM     22  C   UNL     1       6.726  -0.357   4.506  0.00  0.00    +0.013 A 
BRANCH  20  23
ATOM     23  C   UNL     1       7.885  -3.726   5.749  0.00  0.00    +0.417 C 
ATOM     24  F   UNL     1       9.283  -3.755   5.704  0.00  0.00    -0.166 F 
ATOM     25  F   UNL     1       7.466  -3.473   7.060  0.00  0.00    -0.166 F 
ATOM     26  F   UNL     1       7.379  -4.961   5.328  0.00  0.00    -0.166 F 
ENDBRANCH  20  23
ENDBRANCH  15  17
ENDBRANCH   6   9
BRANCH   4  27
ATOM     27  C   UNL     1       1.728  -1.411  -4.286  0.00  0.00    +0.017 A 
ATOM     28  C   UNL     1       0.839  -1.711  -5.316  0.00  0.00    +0.012 A 
ATOM     29  C   UNL     1       1.322  -2.064  -6.560  0.00  0.00    +0.013 A 
ATOM     30  C   UNL     1       2.686  -2.122  -6.784  0.00  0.00    +0.055 A 
ATOM     31  C   UNL     1       3.573  -1.825  -5.765  0.00  0.00    +0.013 A 
ATOM     32  C   UNL     1       3.101  -1.465  -4.519  0.00  0.00    +0.012 A 
BRANCH  30  33
ATOM     33  C   UNL     1       3.207  -2.509  -8.144  0.00  0.00    +0.417 C 
ATOM     34  F   UNL     1       3.362  -1.361  -8.929  0.00  0.00    -0.166 F 
ATOM     35  F   UNL     1       4.444  -3.148  -8.005  0.00  0.00    -0.166 F 
ATOM     36  F   UNL     1       2.300  -3.377  -8.761  0.00  0.00    -0.166 F 
ENDBRANCH  30  33
ENDBRANCH   4  27
BRANCH   1  38
ATOM     37  C   UNL     1      -0.521   1.547   0.862  0.00  0.00    +0.009 C 
ATOM     38  C   UNL     1      -0.254   0.041   0.827  0.00  0.00    +0.037 C 
ENDBRANCH   1  38
TORSDOF 6
