REMARK  Name = ZINC24987771
REMARK  10 active torsions:
REMARK  status: ('A' for Active; 'I' for Inactive)
REMARK    1  A    between atoms: C_1  and  C_2
REMARK    2  A    between atoms: C_2  and  C_3
REMARK    3  A    between atoms: C_3  and  N_4
REMARK    4  A    between atoms: C_8  and  C_10
REMARK    5  A    between atoms: C_10  and  S_11
REMARK    6  A    between atoms: S_11  and  C_12
REMARK    7  A    between atoms: C_14  and  C_26
REMARK    8  A    between atoms: C_15  and  C_19
REMARK    9  A    between atoms: C_16  and  N_18
REMARK   10  A    between atoms: C_26  and  C_27
REMARK                            x       y       z     vdW  Elec       q    Type
REMARK                         _______ _______ _______ _____ _____    ______ ____
ROOT
ATOM      1  C   UNL     1      -4.817  -0.365   0.023  0.00  0.00    +0.191 A 
ATOM      2  N   UNL     1      -4.512   0.392  -1.022  0.00  0.00    -0.226 NA
ATOM      3  C   UNL     1      -3.385   1.084  -1.058  0.00  0.00    +0.055 A 
ATOM      4  C   UNL     1      -2.505   1.003   0.019  0.00  0.00    +0.043 A 
ATOM      5  C   UNL     1      -2.861   0.190   1.111  0.00  0.00    +0.129 A 
ATOM      6  N   UNL     1      -4.013  -0.469   1.072  0.00  0.00    -0.207 NA
ENDROOT
BRANCH   4   7
ATOM      7  C   UNL     1      -1.228   1.758   0.017  0.00  0.00    -0.013 A 
ATOM      8  C   UNL     1      -0.013   1.076   0.008  0.00  0.00    +0.010 A 
ATOM      9  C   UNL     1       1.172   1.783   0.000  0.00  0.00    +0.020 A 
ATOM     10  C   UNL     1       1.155   3.167   0.008  0.00  0.00    +0.041 A 
ATOM     11  C   UNL     1      -0.050   3.849   0.022  0.00  0.00    +0.020 A 
ATOM     12  C   UNL     1      -1.240   3.151   0.030  0.00  0.00    +0.010 A 
ATOM     13 CL   UNL     1       2.649   4.051  -0.002  0.00  0.00    -0.084 Cl
ENDBRANCH   4   7
BRANCH   5  14
ATOM     14  N   UNL     1      -2.025   0.079   2.208  0.00  0.00    -0.343 N 
ATOM     15  H   UNL     1      -2.312  -0.559   3.057  0.00  0.00    +0.144 HD
ATOM     16  H   UNL     1      -1.072   0.628   2.231  0.00  0.00    +0.144 HD
ENDBRANCH   5  14
BRANCH   3  17
ATOM     17  C   UNL     1      -3.055   1.945  -2.250  0.00  0.00    +0.053 C 
ATOM     18  C   UNL     1      -2.283   1.117  -3.278  0.00  0.00    +0.010 C 
ENDBRANCH   3  17
BRANCH   1  19
ATOM     19  S   UNL     1      -6.336  -1.258   0.018  0.00  0.00    -0.077 S 
BRANCH  19  20
ATOM     20  C   UNL     1      -6.224  -2.078   1.627  0.00  0.00    +0.173 C 
BRANCH  20  25
ATOM     21  N   UNL     1      -8.822  -5.096   4.321  0.00  0.00    -0.299 N 
ATOM     22  C   UNL     1      -8.686  -4.388   3.182  0.00  0.00    +0.306 C 
ATOM     23  O   UNL     1      -9.554  -4.431   2.333  0.00  0.00    -0.252 OA
ATOM     24  N   UNL     1      -7.588  -3.632   2.986  0.00  0.00    -0.240 N 
ATOM     25  C   UNL     1      -7.452  -2.924   1.847  0.00  0.00    +0.231 C 
ATOM     26  O   UNL     1      -8.318  -2.967   1.000  0.00  0.00    -0.274 OA
ATOM     27  H   UNL     1      -8.036  -5.057   5.090  0.00  0.00    +0.150 HD
ATOM     28  H   UNL     1      -6.802  -3.593   3.755  0.00  0.00    +0.159 HD
BRANCH  21  29
ATOM     29  C   UNL     1     -10.016  -5.918   4.535  0.00  0.00    +0.105 C 
BRANCH  29  31
ATOM     30  C   UNL     1     -11.167  -7.470   6.118  0.00  0.00    +0.005 C 
ATOM     31  C   UNL     1      -9.921  -6.612   5.895  0.00  0.00    +0.015 C 
ENDBRANCH  29  31
ENDBRANCH  21  29
ENDBRANCH  20  25
ENDBRANCH  19  20
ENDBRANCH   1  19
TORSDOF 8
