REMARK  Name = ZINC35886395
REMARK  6 active torsions:
REMARK  status: ('A' for Active; 'I' for Inactive)
REMARK    1  A    between atoms: C_1  and  C_2
REMARK    2  A    between atoms: C_2  and  C_3
REMARK    3  A    between atoms: N_7  and  C_27
REMARK    4  A    between atoms: C_11  and  N_16
REMARK    5  A    between atoms: N_19  and  C_20
REMARK    6  A    between atoms: C_20  and  C_21
REMARK                            x       y       z     vdW  Elec       q    Type
REMARK                         _______ _______ _______ _____ _____    ______ ____
ROOT
ATOM      1  C   UNL     1       0.716  -0.514  -1.330  0.00  0.00    +0.259 C 
ATOM      2  C   UNL     1       0.768  -1.982  -1.625  0.00  0.00    +0.257 C 
ATOM      3  O   UNL     1       0.020  -2.325  -2.515  0.00  0.00    -0.272 OA
ATOM      4  N   UNL     1       1.440  -2.940  -1.129  0.00  0.00    -0.287 N 
ATOM      5  C   UNL     1       2.574  -2.987  -0.268  0.00  0.00    +0.147 C 
ATOM      6  C   UNL     1       3.220  -1.704   0.154  0.00  0.00    +0.013 A 
ATOM      7  C   UNL     1       4.282  -1.898   1.053  0.00  0.00    +0.032 A 
ATOM      8  C   UNL     1       4.967  -0.831   1.597  0.00  0.00    +0.035 A 
ATOM      9  C   UNL     1       4.584   0.458   1.250  0.00  0.00    +0.027 A 
ATOM     10  C   UNL     1       3.560   0.637   0.358  0.00  0.00    +0.048 A 
ATOM     11  C   UNL     1       2.881  -0.459  -0.230  0.00  0.00    +0.126 A 
ATOM     12  O   UNL     1       2.020   0.009  -1.181  0.00  0.00    -0.479 OA
ENDROOT
BRANCH   4  13
ATOM     13  C   UNL     1       0.948  -4.263  -1.521  0.00  0.00    +0.107 C 
ATOM     14  C   UNL     1       0.647  -5.080  -0.266  0.00  0.00    +0.027 C 
ATOM     15  C   UNL     1       0.345  -6.522  -0.690  0.00  0.00    +0.007 C 
ATOM     16  C   UNL     1       1.641  -7.161  -1.185  0.00  0.00    +0.035 C 
ATOM     17  C   UNL     1       2.305  -6.282  -2.212  0.00  0.00    -0.042 A 
ATOM     18  C   UNL     1       1.990  -4.951  -2.363  0.00  0.00    -0.024 A 
ATOM     19  C   UNL     1       2.645  -4.194  -3.326  0.00  0.00    +0.006 A 
ATOM     20  C   UNL     1       3.607  -4.768  -4.133  0.00  0.00    +0.000 A 
ATOM     21  C   UNL     1       3.921  -6.105  -3.983  0.00  0.00    +0.000 A 
ATOM     22  C   UNL     1       3.271  -6.857  -3.027  0.00  0.00    +0.004 A 
ENDBRANCH   4  13
BRANCH   8  23
ATOM     23  N   UNL     1       6.030  -1.045   2.485  0.00  0.00    -0.269 N 
ATOM     24  C   UNL     1       7.090  -0.212   2.481  0.00  0.00    +0.304 C 
ATOM     25  O   UNL     1       7.088   0.770   1.764  0.00  0.00    -0.252 OA
ATOM     26  N   UNL     1       8.151  -0.468   3.271  0.00  0.00    -0.295 N 
ATOM     27  H   UNL     1       6.003  -1.792   3.103  0.00  0.00    +0.156 HD
ATOM     28  H   UNL     1       8.153  -1.252   3.842  0.00  0.00    +0.151 HD
BRANCH  26  29
ATOM     29  C   UNL     1       9.303   0.437   3.265  0.00  0.00    +0.141 C 
BRANCH  29  30
ATOM     30  C   UNL     1      10.345  -0.071   4.228  0.00  0.00    -0.030 A 
ATOM     31  C   UNL     1      10.320   0.333   5.550  0.00  0.00    +0.005 A 
ATOM     32  C   UNL     1      11.277  -0.133   6.433  0.00  0.00    +0.000 A 
ATOM     33  C   UNL     1      12.257  -1.003   5.994  0.00  0.00    +0.000 A 
ATOM     34  C   UNL     1      12.282  -1.407   4.672  0.00  0.00    +0.000 A 
ATOM     35  C   UNL     1      11.323  -0.944   3.790  0.00  0.00    +0.005 A 
ENDBRANCH  29  30
ENDBRANCH  26  29
ENDBRANCH   8  23
BRANCH   1  37
ATOM     36  C   UNL     1      -0.245   1.215   0.195  0.00  0.00    +0.008 C 
ATOM     37  C   UNL     1      -0.070  -0.287  -0.037  0.00  0.00    +0.051 C 
ENDBRANCH   1  37
TORSDOF 5
