REMARK  Name = ZINC36146132
REMARK  13 active torsions:
REMARK  status: ('A' for Active; 'I' for Inactive)
REMARK    1  A    between atoms: C_4  and  C_7
REMARK    2  A    between atoms: C_7  and  O_8
REMARK    3  A    between atoms: O_8  and  C_9
REMARK    4  A    between atoms: C_9  and  C_10
REMARK    5  A    between atoms: C_10  and  C_12
REMARK    6  A    between atoms: C_10  and  O_39
REMARK    7  A    between atoms: C_12  and  N_13
REMARK    8  A    between atoms: N_13  and  C_14
REMARK    9  A    between atoms: N_13  and  C_25
REMARK   10  A    between atoms: C_14  and  C_15
REMARK   11  A    between atoms: C_19  and  C_21
REMARK   12  A    between atoms: C_25  and  C_26
REMARK   13  A    between atoms: C_29  and  C_32
REMARK                            x       y       z     vdW  Elec       q    Type
REMARK                         _______ _______ _______ _____ _____    ______ ____
ROOT
ATOM      1  N   UNL     1       7.147  -2.707   4.335  0.00  0.00    +0.387 N 
ATOM      2  H   UNL     1       6.372  -3.231   4.711  0.00  0.00    -0.081 HD
ENDROOT
BRANCH   1   3
ATOM      3  C   UNL     1       6.880  -2.377   2.929  0.00  0.00    -0.044 C 
BRANCH   3   4
ATOM      4  C   UNL     1       5.445  -1.865   2.788  0.00  0.00    +0.124 C 
BRANCH   4   5
ATOM      5  O   UNL     1       5.322  -0.606   3.452  0.00  0.00    -0.391 OA
ATOM      6  H   UNL     1       5.806   0.114   3.024  0.00  0.00    +0.210 HD
ENDBRANCH   4   5
BRANCH   4   7
ATOM      7  C   UNL     1       5.107  -1.696   1.306  0.00  0.00    +0.189 C 
BRANCH   7   8
ATOM      8  O   UNL     1       3.732  -1.330   1.170  0.00  0.00    -0.373 OA
BRANCH   8   9
ATOM      9  C   UNL     1       3.311  -1.146  -0.183  0.00  0.00    +0.195 C 
BRANCH   9  13
ATOM     10  C   UNL     1      -0.821  -0.065  -0.256  0.00  0.00    +0.000 A 
ATOM     11  C   UNL     1       0.149   0.917  -0.180  0.00  0.00    +0.000 A 
ATOM     12  C   UNL     1       1.486   0.567  -0.156  0.00  0.00    +0.006 A 
ATOM     13  C   UNL     1       1.853  -0.765  -0.208  0.00  0.00    -0.022 A 
ATOM     14  C   UNL     1       0.883  -1.747  -0.283  0.00  0.00    +0.006 A 
ATOM     15  C   UNL     1      -0.454  -1.397  -0.308  0.00  0.00    +0.000 A 
ENDBRANCH   9  13
ENDBRANCH   8   9
ENDBRANCH   7   8
ENDBRANCH   4   7
ENDBRANCH   3   4
ENDBRANCH   1   3
BRANCH   1  16
ATOM     16  C   UNL     1       7.318  -1.467   5.104  0.00  0.00    -0.043 C 
BRANCH  16  17
ATOM     17  C   UNL     1       8.540  -0.735   4.612  0.00  0.00    -0.063 A 
ATOM     18  C   UNL     1       9.772  -0.980   5.191  0.00  0.00    +0.002 A 
ATOM     19  C   UNL     1      10.893  -0.308   4.740  0.00  0.00    +0.001 A 
ATOM     20  C   UNL     1      10.782   0.607   3.709  0.00  0.00    +0.012 A 
ATOM     21  C   UNL     1       9.551   0.851   3.131  0.00  0.00    +0.055 A 
ATOM     22  C   UNL     1       8.431   0.176   3.579  0.00  0.00    +0.014 A 
BRANCH  21  23
ATOM     23  C   UNL     1       9.431   1.849   2.008  0.00  0.00    +0.417 C 
ATOM     24  F   UNL     1      10.689   2.394   1.731  0.00  0.00    -0.166 F 
ATOM     25  F   UNL     1       8.938   1.209   0.866  0.00  0.00    -0.166 F 
ATOM     26  F   UNL     1       8.553   2.871   2.385  0.00  0.00    -0.166 F 
ENDBRANCH  21  23
ENDBRANCH  16  17
ENDBRANCH   1  16
BRANCH   1  27
ATOM     27  C   UNL     1       8.372  -3.512   4.426  0.00  0.00    -0.030 C 
BRANCH  27  28
ATOM     28  C   UNL     1       8.583  -3.960   5.873  0.00  0.00    +0.194 C 
ATOM     29  C   UNL     1       9.892  -4.773   6.017  0.00  0.00    +0.104 C 
ATOM     30  C   UNL     1       9.508  -5.840   7.024  0.00  0.00    +0.091 C 
ATOM     31  N   UNL     1       8.220  -5.869   7.112  0.00  0.00    -0.089 NA
ATOM     32  O   UNL     1       7.590  -4.930   6.263  0.00  0.00    -0.392 OA
BRANCH  30  33
ATOM     33  C   UNL     1      10.446  -6.698   7.774  0.00  0.00    -0.000 A 
ATOM     34  C   UNL     1      11.823  -6.561   7.589  0.00  0.00    +0.012 A 
ATOM     35  C   UNL     1      12.694  -7.365   8.292  0.00  0.00    +0.039 A 
ATOM     36  C   UNL     1      12.206  -8.309   9.182  0.00  0.00    +0.123 A 
ATOM     37  C   UNL     1      10.839  -8.450   9.370  0.00  0.00    +0.039 A 
ATOM     38  C   UNL     1       9.959  -7.647   8.676  0.00  0.00    +0.012 A 
ATOM     39  F   UNL     1      13.064  -9.095   9.868  0.00  0.00    -0.205 F 
ENDBRANCH  30  33
ENDBRANCH  27  28
ENDBRANCH   1  27
TORSDOF 13
