REMARK  Name = ZINC29132660
REMARK  14 active torsions:
REMARK  status: ('A' for Active; 'I' for Inactive)
REMARK    1  A    between atoms: C_1  and  C_2
REMARK    2  A    between atoms: C_3  and  C_28
REMARK    3  A    between atoms: C_4  and  C_27
REMARK    4  A    between atoms: C_7  and  C_8
REMARK    5  A    between atoms: N_10  and  C_11
REMARK    6  A    between atoms: C_11  and  C_13
REMARK    7  A    between atoms: C_11  and  C_21
REMARK    8  A    between atoms: C_16  and  O_19
REMARK    9  A    between atoms: O_19  and  C_20
REMARK   10  A    between atoms: N_25  and  C_26
REMARK   11  A    between atoms: C_28  and  O_30
REMARK   12  A    between atoms: O_30  and  C_31
REMARK   13  A    between atoms: C_31  and  C_32
REMARK   14  A    between atoms: C_31  and  C_33
REMARK                            x       y       z     vdW  Elec       q    Type
REMARK                         _______ _______ _______ _____ _____    ______ ____
ROOT
ATOM      1  C   UNL     1       1.283   1.713   2.775  0.00  0.00    +0.261 C 
ATOM      2  O   UNL     1       2.066   1.332   1.925  0.00  0.00    -0.269 OA
ATOM      3  N   UNL     1       1.726   2.015   4.012  0.00  0.00    -0.296 N 
ATOM      4  H   UNL     1       1.018   2.360   4.780  0.00  0.00    +0.150 HD
ENDROOT
BRANCH   1  11
ATOM      5  C   UNL     1      -0.013   1.086   0.008  0.00  0.00    +0.047 C 
ATOM      6  C   UNL     1      -0.718   1.572   1.248  0.00  0.00    -0.006 A 
ATOM      7  C   UNL     1      -2.100   1.838   1.379  0.00  0.00    +0.083 A 
ATOM      8  C   UNL     1      -2.311   2.258   2.680  0.00  0.00    +0.028 A 
ATOM      9  N   UNL     1      -1.130   2.262   3.319  0.00  0.00    -0.354 N 
ATOM     10  H   UNL     1      -1.077   2.572   4.374  0.00  0.00    +0.166 HD
ATOM     11  C   UNL     1      -0.143   1.844   2.454  0.00  0.00    +0.106 A 
ATOM     12  C   UNL     1      -3.638   2.650   3.276  0.00  0.00    +0.064 C 
BRANCH   7  13
ATOM     13  C   UNL     1      -3.123   1.692   0.330  0.00  0.00    +0.341 C 
ATOM     14  O   UNL     1      -3.709   0.636   0.195  0.00  0.00    -0.245 OA
BRANCH  13  15
ATOM     15  O   UNL     1      -3.410   2.730  -0.480  0.00  0.00    -0.458 OA
BRANCH  15  16
ATOM     16  C   UNL     1      -4.429   2.515  -1.492  0.00  0.00    +0.171 C 
ATOM     17  C   UNL     1      -5.800   2.883  -0.920  0.00  0.00    +0.052 C 
ATOM     18  C   UNL     1      -4.132   3.392  -2.710  0.00  0.00    +0.052 C 
ENDBRANCH  15  16
ENDBRANCH  13  15
ENDBRANCH   7  13
ENDBRANCH   1  11
BRANCH   3  19
ATOM     19  C   UNL     1       3.149   1.885   4.333  0.00  0.00    +0.170 C 
BRANCH  19  20
ATOM     20  C   UNL     1       3.494   2.808   5.473  0.00  0.00    -0.020 A 
ATOM     21  C   UNL     1       2.613   2.961   6.527  0.00  0.00    +0.009 A 
ATOM     22  C   UNL     1       2.929   3.802   7.576  0.00  0.00    +0.046 A 
ATOM     23  C   UNL     1       4.127   4.503   7.565  0.00  0.00    +0.120 A 
ATOM     24  C   UNL     1       5.006   4.352   6.503  0.00  0.00    +0.046 A 
ATOM     25  C   UNL     1       4.688   3.505   5.460  0.00  0.00    +0.009 A 
BRANCH  23  26
ATOM     26  O   UNL     1       4.437   5.336   8.593  0.00  0.00    -0.495 OA
ATOM     27  C   UNL     1       3.484   5.442   9.653  0.00  0.00    +0.277 C 
ENDBRANCH  23  26
ENDBRANCH  19  20
BRANCH  19  28
ATOM     28  C   UNL     1       3.446   0.462   4.731  0.00  0.00    +0.134 A 
ATOM     29  N   UNL     1       2.733  -0.264   5.548  0.00  0.00    -0.238 NA
ATOM     30  C   UNL     1       3.293  -1.477   5.667  0.00  0.00    +0.130 A 
ATOM     31  C   UNL     1       4.400  -1.501   4.900  0.00  0.00    +0.106 A 
ATOM     32  N   UNL     1       4.497  -0.271   4.306  0.00  0.00    -0.336 N 
ATOM     33  C   UNL     1       5.546   0.167   3.382  0.00  0.00    +0.150 C 
ENDBRANCH  19  28
ENDBRANCH   3  19
TORSDOF 8
