REMARK  Name = ZINC03402693
REMARK  11 active torsions:
REMARK  status: ('A' for Active; 'I' for Inactive)
REMARK    1  A    between atoms: C_1  and  C_2
REMARK    2  A    between atoms: C_2  and  C_3
REMARK    3  A    between atoms: C_3  and  C_4
REMARK    4  A    between atoms: C_4  and  N_5
REMARK    5  A    between atoms: C_9  and  S_27
REMARK    6  A    between atoms: C_13  and  S_14
REMARK    7  A    between atoms: S_14  and  C_15
REMARK    8  A    between atoms: C_15  and  C_16
REMARK    9  A    between atoms: N_18  and  C_19
REMARK   10  A    between atoms: C_20  and  C_24
REMARK   11  A    between atoms: S_27  and  N_30
REMARK                            x       y       z     vdW  Elec       q    Type
REMARK                         _______ _______ _______ _____ _____    ______ ____
ROOT
ATOM      1  N   UNL     1      -5.716  -2.283   0.310  0.00  0.00    -0.319 N 
ATOM      2  C   UNL     1      -4.741  -1.351  -0.009  0.00  0.00    +0.070 A 
ATOM      3  C   UNL     1      -4.237  -0.859  -1.203  0.00  0.00    +0.030 A 
ATOM      4  C   UNL     1      -3.241   0.096  -1.186  0.00  0.00    +0.030 A 
ATOM      5  C   UNL     1      -2.733   0.560   0.018  0.00  0.00    +0.107 A 
ATOM      6  C   UNL     1      -3.222   0.082   1.213  0.00  0.00    +0.058 A 
ATOM      7  C   UNL     1      -4.234  -0.881   1.213  0.00  0.00    +0.092 A 
ATOM      8  N   UNL     1      -4.905  -1.530   2.201  0.00  0.00    -0.222 NA
ATOM      9  C   UNL     1      -5.776  -2.354   1.673  0.00  0.00    +0.170 A 
ENDROOT
BRANCH   5  10
ATOM     10  S   UNL     1      -1.456   1.774   0.019  0.00  0.00    +0.056 S 
ATOM     11  O   UNL     1      -1.536   2.446   1.268  0.00  0.00    -0.153 OA
ATOM     12  O   UNL     1      -1.548   2.460  -1.223  0.00  0.00    -0.153 OA
BRANCH  10  13
ATOM     13  N   UNL     1      -0.011   0.966   0.007  0.00  0.00    -0.204 NA
ATOM     14  H   UNL     1       0.002  -0.004   0.002  0.00  0.00    +0.144 HD
ATOM     15  H   UNL     1       0.822   1.462   0.002  0.00  0.00    +0.144 HD
ENDBRANCH  10  13
ENDBRANCH   5  10
BRANCH   1  16
ATOM     16  C   UNL     1      -6.531  -3.048  -0.637  0.00  0.00    +0.124 C 
BRANCH  16  17
ATOM     17  C   UNL     1      -7.808  -2.269  -0.956  0.00  0.00    +0.021 C 
BRANCH  17  19
ATOM     18  C   UNL     1      -9.937  -2.289  -2.263  0.00  0.00    +0.004 C 
ATOM     19  C   UNL     1      -8.659  -3.068  -1.945  0.00  0.00    -0.002 C 
ENDBRANCH  17  19
ENDBRANCH  16  17
ENDBRANCH   1  16
BRANCH   9  20
ATOM     20  S   UNL     1      -6.864  -3.398   2.586  0.00  0.00    -0.078 S 
BRANCH  20  21
ATOM     21  C   UNL     1      -6.381  -2.957   4.273  0.00  0.00    +0.173 C 
BRANCH  21  22
ATOM     22  C   UNL     1      -7.205  -3.750   5.255  0.00  0.00    +0.228 C 
ATOM     23  O   UNL     1      -8.036  -4.537   4.853  0.00  0.00    -0.275 OA
ATOM     24  N   UNL     1      -7.018  -3.586   6.579  0.00  0.00    -0.279 N 
ATOM     25  H   UNL     1      -6.353  -2.956   6.901  0.00  0.00    +0.155 HD
BRANCH  24  26
ATOM     26  C   UNL     1      -7.775  -4.316   7.483  0.00  0.00    +0.084 A 
ATOM     27  C   UNL     1      -7.725  -4.290   8.871  0.00  0.00    +0.065 A 
ATOM     28  C   UNL     1      -8.640  -5.160   9.571  0.00  0.00    +0.022 A 
ATOM     29  C   UNL     1      -9.453  -5.926   8.821  0.00  0.00    +0.048 A 
ATOM     30  S   UNL     1      -9.008  -5.486   7.154  0.00  0.00    -0.081 S 
BRANCH  27  31
ATOM     31  C   UNL     1      -6.791  -3.418   9.591  0.00  0.00    +0.244 C 
ATOM     32  O   UNL     1      -6.034  -2.693   8.971  0.00  0.00    -0.270 OA
ATOM     33  N   UNL     1      -6.770  -3.419  10.938  0.00  0.00    -0.325 N 
ATOM     34  H   UNL     1      -7.373  -3.997  11.432  0.00  0.00    +0.145 HD
ATOM     35  H   UNL     1      -6.152  -2.843  11.415  0.00  0.00    +0.145 HD
ENDBRANCH  27  31
ENDBRANCH  24  26
ENDBRANCH  21  22
ENDBRANCH  20  21
ENDBRANCH   9  20
TORSDOF 10
