REMARK  Name = ZINC19237005
REMARK  10 active torsions:
REMARK  status: ('A' for Active; 'I' for Inactive)
REMARK    1  A    between atoms: C_1  and  C_2
REMARK    2  A    between atoms: C_7  and  C_8
REMARK    3  A    between atoms: N_16  and  C_19
REMARK    4  A    between atoms: C_23  and  C_25
REMARK    5  A    between atoms: C_25  and  C_27
REMARK    6  A    between atoms: C_28  and  C_30
REMARK    7  A    between atoms: C_28  and  C_37
REMARK    8  A    between atoms: C_30  and  C_31
REMARK    9  A    between atoms: C_37  and  O_39
REMARK   10  A    between atoms: O_39  and  C_40
REMARK                            x       y       z     vdW  Elec       q    Type
REMARK                         _______ _______ _______ _____ _____    ______ ____
ROOT
ATOM      1  C   UNL     1       1.116   9.106  -0.292  0.00  0.00    +0.098 C 
ATOM      2  C   UNL     1       1.696   7.891   0.435  0.00  0.00    +0.111 C 
ATOM      3  C   UNL     1       3.094   7.857  -0.300  0.00  0.00    +0.121 C 
ATOM      4  C   UNL     1       3.553   6.525   0.003  0.00  0.00    +0.232 C 
ATOM      5  O   UNL     1       4.691   6.163   0.208  0.00  0.00    -0.274 OA
ATOM      6  N   UNL     1       2.415   5.757   0.010  0.00  0.00    -0.210 N 
ATOM      7  C   UNL     1       1.272   6.505   0.019  0.00  0.00    +0.232 C 
ATOM      8  O   UNL     1       0.151   6.130  -0.249  0.00  0.00    -0.274 OA
ATOM      9  C   UNL     1       3.522   9.263  -0.206  0.00  0.00    +0.133 C 
ATOM     10  N   UNL     1       2.278  10.008  -0.548  0.00  0.00    -0.293 NA
ATOM     11  H   UNL     1       2.289  10.300  -1.609  0.00  0.00    +0.124 HD
ENDROOT
BRANCH   1  18
ATOM     12  C   UNL     1      -1.607   8.140  -0.333  0.00  0.00    +0.044 C 
ATOM     13  C   UNL     1      -0.816   8.222  -1.614  0.00  0.00    -0.046 A 
ATOM     14  C   UNL     1      -1.396   7.839  -2.809  0.00  0.00    +0.003 A 
ATOM     15  C   UNL     1      -0.669   7.908  -3.983  0.00  0.00    +0.000 A 
ATOM     16  C   UNL     1       0.636   8.365  -3.962  0.00  0.00    +0.000 A 
ATOM     17  C   UNL     1       1.213   8.753  -2.768  0.00  0.00    +0.005 A 
ATOM     18  C   UNL     1       0.486   8.684  -1.594  0.00  0.00    -0.027 A 
ENDBRANCH   1  18
BRANCH   6  19
ATOM     19  C   UNL     1       2.425   4.354   0.002  0.00  0.00    +0.045 A 
ATOM     20  C   UNL     1       3.634   3.668  -0.013  0.00  0.00    +0.024 A 
ATOM     21  C   UNL     1       3.651   2.286  -0.021  0.00  0.00    +0.003 A 
ATOM     22  C   UNL     1       2.468   1.576  -0.007  0.00  0.00    +0.011 A 
ATOM     23  C   UNL     1       1.246   2.256   0.002  0.00  0.00    +0.019 A 
ATOM     24  C   UNL     1       1.231   3.654   0.010  0.00  0.00    +0.035 A 
BRANCH  23  25
ATOM     25  C   UNL     1      -0.018   1.503   0.010  0.00  0.00    +0.160 C 
ATOM     26  O   UNL     1      -1.077   2.095   0.018  0.00  0.00    -0.292 OA
ATOM     27  C   UNL     1       0.002  -0.004   0.002  0.00  0.00    +0.091 C 
ENDBRANCH  23  25
ENDBRANCH   6  19
BRANCH   9  28
ATOM     28  C   UNL     1       3.953   9.601   1.198  0.00  0.00    +0.328 C 
ATOM     29  O   UNL     1       4.349   8.729   1.935  0.00  0.00    -0.249 OA
BRANCH  28  30
ATOM     30  O   UNL     1       3.898  10.871   1.629  0.00  0.00    -0.467 OA
ATOM     31  C   UNL     1       4.328  11.123   2.993  0.00  0.00    +0.280 C 
ENDBRANCH  28  30
ENDBRANCH   9  28
BRANCH   9  32
ATOM     32  C   UNL     1       4.642   9.561  -1.206  0.00  0.00    +0.069 C 
BRANCH  32  33
ATOM     33  C   UNL     1       5.054  11.005  -1.082  0.00  0.00    -0.045 A 
ATOM     34  C   UNL     1       4.432  11.970  -1.852  0.00  0.00    +0.004 A 
ATOM     35  C   UNL     1       4.808  13.295  -1.736  0.00  0.00    +0.000 A 
ATOM     36  C   UNL     1       5.811  13.654  -0.856  0.00  0.00    +0.000 A 
ATOM     37  C   UNL     1       6.437  12.689  -0.089  0.00  0.00    +0.000 A 
ATOM     38  C   UNL     1       6.059  11.364  -0.203  0.00  0.00    +0.004 A 
ENDBRANCH  32  33
ENDBRANCH   9  32
TORSDOF 7
