REMARK  Name = ZINC32974949
REMARK  11 active torsions:
REMARK  status: ('A' for Active; 'I' for Inactive)
REMARK    1  A    between atoms: C_1  and  C_2
REMARK    2  A    between atoms: C_5  and  C_8
REMARK    3  A    between atoms: C_9  and  C_19
REMARK    4  A    between atoms: N_11  and  C_13
REMARK    5  A    between atoms: C_19  and  C_20
REMARK    6  A    between atoms: C_20  and  C_21
REMARK    7  A    between atoms: N_23  and  C_24
REMARK    8  A    between atoms: C_24  and  C_25
REMARK    9  A    between atoms: C_25  and  N_26
REMARK   10  A    between atoms: N_26  and  C_27
REMARK   11  A    between atoms: N_26  and  C_28
REMARK                            x       y       z     vdW  Elec       q    Type
REMARK                         _______ _______ _______ _____ _____    ______ ____
ROOT
ATOM      1  C   UNL     1       7.869   2.222   6.588  0.00  0.00    +0.096 A 
ATOM      2  C   UNL     1       8.048   1.582   5.345  0.00  0.00    -0.001 A 
ATOM      3  C   UNL     1       9.167   0.830   5.424  0.00  0.00    +0.118 A 
ATOM      4  N   UNL     1       9.690   0.990   6.668  0.00  0.00    -0.239 N 
ATOM      5  N   UNL     1       8.858   1.863   7.379  0.00  0.00    -0.166 NA
ENDROOT
BRANCH   1  10
ATOM      6  C   UNL     1       3.559   5.786   7.965  0.00  0.00    +0.044 C 
ATOM      7  C   UNL     1       4.687   4.854   7.604  0.00  0.00    -0.050 A 
ATOM      8  C   UNL     1       5.094   3.885   8.504  0.00  0.00    +0.004 A 
ATOM      9  C   UNL     1       6.126   3.028   8.179  0.00  0.00    +0.010 A 
ATOM     10  C   UNL     1       6.758   3.140   6.942  0.00  0.00    +0.002 A 
ATOM     11  C   UNL     1       6.347   4.121   6.042  0.00  0.00    +0.010 A 
ATOM     12  C   UNL     1       5.311   4.970   6.375  0.00  0.00    +0.004 A 
ENDBRANCH   1  10
BRANCH   4  13
ATOM     13  C   UNL     1      10.855   0.383   7.155  0.00  0.00    +0.065 A 
ATOM     14  C   UNL     1      11.587  -0.472   6.342  0.00  0.00    +0.028 A 
ATOM     15  C   UNL     1      12.738  -1.065   6.824  0.00  0.00    +0.002 A 
ATOM     16  C   UNL     1      13.155  -0.817   8.119  0.00  0.00    +0.000 A 
ATOM     17  C   UNL     1      12.425   0.029   8.933  0.00  0.00    +0.002 A 
ATOM     18  C   UNL     1      11.276   0.630   8.455  0.00  0.00    +0.028 A 
ENDBRANCH   4  13
BRANCH   2  19
ATOM     19  C   UNL     1       7.148   1.709   4.144  0.00  0.00    +0.048 C 
BRANCH  19  20
ATOM     20  C   UNL     1       5.924   0.810   4.326  0.00  0.00    +0.100 C 
BRANCH  20  21
ATOM     21  C   UNL     1       5.039   0.913   3.111  0.00  0.00    +0.213 C 
ATOM     22  O   UNL     1       5.356   1.635   2.189  0.00  0.00    -0.276 OA
ATOM     23  N   UNL     1       3.895   0.203   3.047  0.00  0.00    -0.317 N 
ATOM     24  H   UNL     1       3.607  -0.452   3.883  0.00  0.00    +0.149 HD
BRANCH  23  25
ATOM     25  C   UNL     1       3.035   0.303   1.866  0.00  0.00    +0.085 C 
BRANCH  25  26
ATOM     26  C   UNL     1       1.811  -0.597   2.048  0.00  0.00    -0.060 C 
BRANCH  26  27
ATOM     27  N   UNL     1       0.948  -0.496   0.863  0.00  0.00    +0.381 N 
ATOM     28  C   UNL     1       1.616  -1.051  -0.322  0.00  0.00    -0.096 C 
ATOM     29  H   UNL     1       0.755   0.570   0.675  0.00  0.00    -0.082 HD
BRANCH  27  30
ATOM     30  C   UNL     1      -0.344  -1.155   1.096  0.00  0.00    -0.069 C 
ATOM     31  C   UNL     1      -1.052  -0.486   2.276  0.00  0.00    -0.015 C 
ATOM     32  C   UNL     1      -2.398  -1.172   2.518  0.00  0.00    -0.002 C 
ATOM     33  C   UNL     1      -3.267  -1.047   1.265  0.00  0.00    -0.000 C 
ATOM     34  C   UNL     1      -2.559  -1.715   0.084  0.00  0.00    -0.002 C 
ATOM     35  C   UNL     1      -1.213  -1.030  -0.158  0.00  0.00    -0.015 C 
ENDBRANCH  27  30
ENDBRANCH  26  27
ENDBRANCH  25  26
ENDBRANCH  23  25
ENDBRANCH  20  21
ENDBRANCH  19  20
ENDBRANCH   2  19
TORSDOF 9
