REMARK  Name = ZINC36013993
REMARK  14 active torsions:
REMARK  status: ('A' for Active; 'I' for Inactive)
REMARK    1  A    between atoms: C_1  and  C_2
REMARK    2  A    between atoms: C_2  and  N_3
REMARK    3  A    between atoms: C_4  and  C_23
REMARK    4  A    between atoms: C_5  and  C_18
REMARK    5  A    between atoms: C_6  and  C_11
REMARK    6  A    between atoms: C_18  and  O_20
REMARK    7  A    between atoms: O_20  and  C_21
REMARK    8  A    between atoms: C_21  and  C_22
REMARK    9  A    between atoms: C_23  and  N_24
REMARK   10  A    between atoms: C_28  and  C_31
REMARK   11  A    between atoms: N_34  and  C_35
REMARK   12  A    between atoms: C_35  and  C_36
REMARK   13  A    between atoms: C_35  and  C_37
REMARK   14  A    between atoms: C_35  and  C_38
REMARK                            x       y       z     vdW  Elec       q    Type
REMARK                         _______ _______ _______ _____ _____    ______ ____
ROOT
ATOM      1  N   UNL     1      -1.224  -0.555  -0.171  0.00  0.00    -0.258 N 
ATOM      2  C   UNL     1      -2.111  -0.558   0.867  0.00  0.00    +0.041 C 
ATOM      3  C   UNL     1      -3.398  -0.925   0.683  0.00  0.00    +0.080 C 
ATOM      4  C   UNL     1      -3.822  -1.333  -0.714  0.00  0.00    +0.144 C 
ATOM      5  N   UNL     1      -2.788  -1.295  -1.762  0.00  0.00    -0.288 N 
ATOM      6  C   UNL     1      -1.545  -0.900  -1.424  0.00  0.00    +0.307 C 
ATOM      7  O   UNL     1      -0.686  -0.862  -2.283  0.00  0.00    -0.252 OA
ATOM      8  H   UNL     1      -2.998  -1.545  -2.676  0.00  0.00    +0.151 HD
ENDROOT
BRANCH   4   9
ATOM      9  C   UNL     1      -4.360  -2.739  -0.644  0.00  0.00    -0.022 A 
ATOM     10  C   UNL     1      -3.488  -3.811  -0.606  0.00  0.00    +0.007 A 
ATOM     11  C   UNL     1      -3.981  -5.101  -0.542  0.00  0.00    +0.020 A 
ATOM     12  C   UNL     1      -5.347  -5.319  -0.516  0.00  0.00    +0.041 A 
ATOM     13  C   UNL     1      -6.219  -4.245  -0.554  0.00  0.00    +0.020 A 
ATOM     14  C   UNL     1      -5.725  -2.955  -0.612  0.00  0.00    +0.007 A 
ATOM     15 CL   UNL     1      -5.967  -6.938  -0.436  0.00  0.00    -0.084 Cl
ENDBRANCH   4   9
BRANCH   1  17
ATOM     16  C   UNL     1       0.286   1.368  -0.092  0.00  0.00    +0.025 C 
ATOM     17  C   UNL     1       0.156  -0.144   0.101  0.00  0.00    +0.111 C 
ENDBRANCH   1  17
BRANCH   3  18
ATOM     18  C   UNL     1      -4.318  -0.929   1.757  0.00  0.00    +0.339 C 
ATOM     19  O   UNL     1      -4.563  -1.967   2.344  0.00  0.00    -0.245 OA
BRANCH  18  20
ATOM     20  O   UNL     1      -4.925   0.216   2.130  0.00  0.00    -0.462 OA
BRANCH  20  21
ATOM     21  C   UNL     1      -5.843   0.139   3.223  0.00  0.00    +0.229 C 
ATOM     22  C   UNL     1      -6.426   1.526   3.499  0.00  0.00    +0.048 C 
ENDBRANCH  20  21
ENDBRANCH  18  20
ENDBRANCH   3  18
BRANCH   2  23
ATOM     23  C   UNL     1      -1.648  -0.145   2.240  0.00  0.00    +0.136 C 
BRANCH  23  24
ATOM     24  N   UNL     1      -0.689  -1.133   2.751  0.00  0.00    -0.294 NA
ATOM     25  C   UNL     1      -1.337  -2.432   2.970  0.00  0.00    +0.104 C 
ATOM     26  C   UNL     1      -0.274  -3.477   3.326  0.00  0.00    +0.125 C 
ATOM     27  N   UNL     1       0.511  -2.974   4.464  0.00  0.00    -0.280 N 
ATOM     28  C   UNL     1       1.079  -1.621   4.374  0.00  0.00    +0.088 C 
ATOM     29  C   UNL     1      -0.037  -0.650   3.976  0.00  0.00    +0.107 C 
ATOM     30  C   UNL     1       1.659  -1.216   5.730  0.00  0.00    +0.029 C 
ATOM     31  C   UNL     1       0.705  -3.735   5.560  0.00  0.00    +0.303 C 
ATOM     32  O   UNL     1       1.281  -3.273   6.526  0.00  0.00    -0.253 OA
ATOM     33  N   UNL     1       0.259  -5.006   5.586  0.00  0.00    -0.294 N 
ATOM     34  H   UNL     1      -0.138  -5.397   4.792  0.00  0.00    +0.151 HD
BRANCH  33  35
ATOM     35  C   UNL     1       0.376  -5.799   6.812  0.00  0.00    +0.028 C 
ATOM     36  C   UNL     1      -0.400  -5.113   7.938  0.00  0.00    +0.031 C 
ATOM     37  C   UNL     1      -0.200  -7.196   6.573  0.00  0.00    +0.031 C 
ATOM     38  C   UNL     1       1.850  -5.915   7.206  0.00  0.00    +0.031 C 
ENDBRANCH  33  35
ENDBRANCH  23  24
ENDBRANCH   2  23
TORSDOF 8
