REMARK  Name = ZINC04226135
REMARK  9 active torsions:
REMARK  status: ('A' for Active; 'I' for Inactive)
REMARK    1  A    between atoms: C_1  and  C_2
REMARK    2  A    between atoms: C_2  and  C_3
REMARK    3  A    between atoms: C_2  and  C_4
REMARK    4  A    between atoms: C_2  and  C_5
REMARK    5  A    between atoms: C_8  and  C_11
REMARK    6  A    between atoms: N_13  and  C_14
REMARK    7  A    between atoms: C_14  and  C_23
REMARK    8  A    between atoms: C_15  and  C_16
REMARK    9  A    between atoms: N_25  and  N_26
REMARK                            x       y       z     vdW  Elec       q    Type
REMARK                         _______ _______ _______ _____ _____    ______ ____
ROOT
ATOM      1  C   UNL     1       2.499  -4.154  -0.181  0.00  0.00    +0.098 C 
ATOM      2  C   UNL     1       3.416  -5.053   0.247  0.00  0.00    +0.039 C 
ENDROOT
BRANCH   2   3
ATOM      3  C   UNL     1       3.078  -6.483   0.291  0.00  0.00    +0.012 A 
ATOM      4  C   UNL     1       1.790  -6.891   0.656  0.00  0.00    +0.011 A 
ATOM      5  C   UNL     1       1.479  -8.233   0.690  0.00  0.00    +0.001 A 
ATOM      6  C   UNL     1       2.440  -9.179   0.375  0.00  0.00    +0.003 A 
ATOM      7  C   UNL     1       3.717  -8.788   0.018  0.00  0.00    +0.039 A 
ATOM      8  C   UNL     1       4.045  -7.446  -0.026  0.00  0.00    +0.131 A 
ATOM      9  F   UNL     1       5.293  -7.064  -0.374  0.00  0.00    -0.205 F 
ENDBRANCH   2   3
BRANCH   1  12
ATOM     10  C   UNL     1       1.849  -1.889  -0.502  0.00  0.00    +0.248 C 
ATOM     11  O   UNL     1       0.836  -2.269  -1.057  0.00  0.00    -0.270 OA
ATOM     12  N   UNL     1       2.762  -2.784  -0.078  0.00  0.00    -0.277 N 
ATOM     13  H   UNL     1       3.603  -2.478   0.298  0.00  0.00    +0.155 HD
BRANCH  10  17
ATOM     14  C   UNL     1       2.507   2.264   0.098  0.00  0.00    -0.042 A 
ATOM     15  C   UNL     1       1.354   1.834  -0.533  0.00  0.00    +0.005 A 
ATOM     16  C   UNL     1       1.134   0.487  -0.732  0.00  0.00    +0.013 A 
ATOM     17  C   UNL     1       2.078  -0.443  -0.294  0.00  0.00    +0.037 A 
ATOM     18  C   UNL     1       3.240  -0.003   0.343  0.00  0.00    +0.013 A 
ATOM     19  C   UNL     1       3.447   1.348   0.535  0.00  0.00    +0.005 A 
BRANCH  14  21
ATOM     20  C   UNL     1       1.612   4.315   1.167  0.00  0.00    +0.015 C 
ATOM     21  C   UNL     1       2.741   3.738   0.311  0.00  0.00    -0.013 C 
ATOM     22  C   UNL     1       4.078   3.944   1.026  0.00  0.00    +0.015 C 
ATOM     23  C   UNL     1       2.771   4.450  -1.042  0.00  0.00    +0.015 C 
ENDBRANCH  14  21
ENDBRANCH  10  17
ENDBRANCH   1  12
BRANCH   1  24
ATOM     24  C   UNL     1       1.228  -4.617  -0.753  0.00  0.00    +0.272 C 
ATOM     25  O   UNL     1       0.198  -4.512  -0.113  0.00  0.00    -0.268 OA
ATOM     26  N   UNL     1       1.201  -5.157  -1.988  0.00  0.00    -0.249 N 
ATOM     27  H   UNL     1       2.030  -5.308  -2.469  0.00  0.00    +0.169 HD
BRANCH  26  28
ATOM     28  N   UNL     1       0.008  -5.493  -2.561  0.00  0.00    -0.254 NA
ATOM     29  H   UNL     1      -0.581  -4.681  -2.673  0.00  0.00    +0.140 HD
ATOM     30  H   UNL     1       0.150  -5.961  -3.444  0.00  0.00    +0.140 HD
ENDBRANCH  26  28
ENDBRANCH   1  24
TORSDOF 6
