REMARK  Name = ZINC58330771
REMARK  8 active torsions:
REMARK  status: ('A' for Active; 'I' for Inactive)
REMARK    1  A    between atoms: C_1  and  C_2
REMARK    2  A    between atoms: C_4  and  C_23
REMARK    3  A    between atoms: C_7  and  N_8
REMARK    4  A    between atoms: N_11  and  C_12
REMARK    5  A    between atoms: C_12  and  C_13
REMARK    6  A    between atoms: C_12  and  C_14
REMARK    7  A    between atoms: C_12  and  C_15
REMARK    8  A    between atoms: N_25  and  C_26
REMARK                            x       y       z     vdW  Elec       q    Type
REMARK                         _______ _______ _______ _____ _____    ______ ____
ROOT
ATOM      1  N   UNL     1       0.137  -0.005   2.425  0.00  0.00    -0.269 N 
ATOM      2  C   UNL     1       0.026  -0.682   3.585  0.00  0.00    +0.305 C 
ATOM      3  O   UNL     1       0.064  -1.897   3.585  0.00  0.00    -0.252 OA
ATOM      4  N   UNL     1      -0.125  -0.013   4.745  0.00  0.00    -0.290 N 
ATOM      5  H   UNL     1       0.159   0.965   2.430  0.00  0.00    +0.156 HD
ATOM      6  H   UNL     1      -0.155   0.957   4.745  0.00  0.00    +0.151 HD
ENDROOT
BRANCH   1  13
ATOM      7  C   UNL     1      -1.085   1.157   0.138  0.00  0.00    +0.045 C 
ATOM      8  C   UNL     1      -0.366  -0.166   0.072  0.00  0.00    -0.028 A 
ATOM      9  C   UNL     1      -0.283  -0.845  -1.123  0.00  0.00    +0.018 A 
ATOM     10  C   UNL     1       0.384  -2.072  -1.183  0.00  0.00    +0.037 A 
ATOM     11  C   UNL     1       0.964  -2.605  -0.029  0.00  0.00    +0.015 A 
ATOM     12  C   UNL     1       0.877  -1.921   1.163  0.00  0.00    +0.024 A 
ATOM     13  C   UNL     1       0.218  -0.698   1.218  0.00  0.00    +0.038 A 
BRANCH  10  14
ATOM     14  C   UNL     1       0.475  -2.802  -2.462  0.00  0.00    +0.244 C 
ATOM     15  O   UNL     1      -0.031  -2.337  -3.465  0.00  0.00    -0.270 OA
ATOM     16  N   UNL     1       1.118  -3.985  -2.518  0.00  0.00    -0.314 N 
ATOM     17  C   UNL     1       1.208  -4.711  -3.788  0.00  0.00    +0.128 C 
ATOM     18  H   UNL     1       1.522  -4.356  -1.718  0.00  0.00    +0.149 HD
ENDBRANCH  10  14
ENDBRANCH   1  13
BRANCH   4  19
ATOM     19  C   UNL     1      -0.245  -0.749   6.005  0.00  0.00    +0.056 C 
ATOM     20  C   UNL     1      -1.427  -1.716   5.921  0.00  0.00    +0.036 C 
ATOM     21  C   UNL     1       1.042  -1.538   6.259  0.00  0.00    +0.036 C 
BRANCH  19  22
ATOM     22  C   UNL     1      -0.470   0.222   7.135  0.00  0.00    -0.023 A 
ATOM     23  C   UNL     1      -1.259  -0.141   8.211  0.00  0.00    +0.007 A 
ATOM     24  C   UNL     1      -1.467   0.749   9.248  0.00  0.00    +0.022 A 
ATOM     25  C   UNL     1      -0.885   2.004   9.210  0.00  0.00    +0.059 A 
ATOM     26  C   UNL     1      -0.095   2.367   8.133  0.00  0.00    +0.060 A 
ATOM     27  C   UNL     1       0.117   1.473   7.098  0.00  0.00    +0.027 A 
ATOM     28 CL   UNL     1       0.636   3.941   8.083  0.00  0.00    -0.082 Cl
ATOM     29 CL   UNL     1      -1.146   3.122  10.511  0.00  0.00    -0.082 Cl
ENDBRANCH  19  22
ENDBRANCH   4  19
TORSDOF 4
