REMARK  Name = ZINC22289589
REMARK  8 active torsions:
REMARK  status: ('A' for Active; 'I' for Inactive)
REMARK    1  A    between atoms: C_1  and  C_2
REMARK    2  A    between atoms: C_2  and  C_3
REMARK    3  A    between atoms: C_2  and  C_4
REMARK    4  A    between atoms: C_4  and  C_6
REMARK    5  A    between atoms: C_4  and  N_21
REMARK    6  A    between atoms: C_11  and  C_14
REMARK    7  A    between atoms: C_14  and  N_15
REMARK    8  A    between atoms: C_22  and  C_24
REMARK                            x       y       z     vdW  Elec       q    Type
REMARK                         _______ _______ _______ _____ _____    ______ ____
ROOT
ATOM      1  C   UNL     1       2.071  -0.090   1.367  0.00  0.00    +0.239 C 
ATOM      2  O   UNL     1       3.007  -0.854   1.264  0.00  0.00    -0.273 OA
ATOM      3  N   UNL     1       2.292   1.221   1.589  0.00  0.00    -0.263 N 
ATOM      4  C   UNL     1       3.586   1.681   1.805  0.00  0.00    +0.165 A 
ATOM      5  N   UNL     1       3.987   2.911   2.041  0.00  0.00    -0.231 NA
ATOM      6  C   UNL     1       5.264   3.188   2.226  0.00  0.00    +0.034 A 
ATOM      7  C   UNL     1       6.135   2.151   2.162  0.00  0.00    +0.070 A 
ATOM      8  S   UNL     1       5.018   0.798   1.835  0.00  0.00    -0.060 S 
ATOM      9  H   UNL     1       1.548   1.843   1.598  0.00  0.00    +0.157 HD
ENDROOT
BRANCH   1  10
ATOM     10  C   UNL     1       0.660  -0.607   1.246  0.00  0.00    +0.162 C 
BRANCH  10  11
ATOM     11  N   UNL     1       0.636  -2.038   1.554  0.00  0.00    -0.300 N 
ATOM     12  C   UNL     1      -0.497  -2.612   2.003  0.00  0.00    +0.245 C 
ATOM     13  O   UNL     1      -1.500  -1.942   2.152  0.00  0.00    -0.270 OA
ATOM     14  H   UNL     1       1.437  -2.574   1.435  0.00  0.00    +0.150 HD
BRANCH  12  15
ATOM     15  C   UNL     1      -0.521  -4.057   2.315  0.00  0.00    +0.037 A 
ATOM     16  C   UNL     1       0.630  -4.829   2.150  0.00  0.00    +0.014 A 
ATOM     17  C   UNL     1       0.602  -6.176   2.442  0.00  0.00    +0.021 A 
ATOM     18  C   UNL     1      -0.566  -6.764   2.898  0.00  0.00    +0.041 A 
ATOM     19  C   UNL     1      -1.712  -6.004   3.064  0.00  0.00    +0.021 A 
ATOM     20  C   UNL     1      -1.694  -4.654   2.780  0.00  0.00    +0.014 A 
ATOM     21 CL   UNL     1      -0.594  -8.461   3.263  0.00  0.00    -0.084 Cl
ENDBRANCH  12  15
ENDBRANCH  10  11
BRANCH  10  23
ATOM     22  C   UNL     1       0.973  -1.241  -1.150  0.00  0.00    +0.009 C 
ATOM     23  C   UNL     1       0.156  -0.384  -0.181  0.00  0.00    +0.012 C 
ATOM     24  C   UNL     1      -1.319  -0.781  -0.269  0.00  0.00    +0.009 C 
ENDBRANCH  10  23
ENDBRANCH   1  10
BRANCH   6  25
ATOM     25  C   UNL     1       5.733   4.594   2.497  0.00  0.00    -0.022 C 
BRANCH  25  26
ATOM     26  N   UNL     1       5.923   5.301   1.223  0.00  0.00    +0.383 N 
ATOM     27  C   UNL     1       7.005   4.661   0.466  0.00  0.00    -0.078 C 
ATOM     28  C   UNL     1       7.152   5.342  -0.897  0.00  0.00    -0.019 C 
ATOM     29  C   UNL     1       7.480   6.823  -0.688  0.00  0.00    -0.004 C 
ATOM     30  C   UNL     1       6.382   7.464   0.166  0.00  0.00    -0.019 C 
ATOM     31  C   UNL     1       6.263   6.704   1.489  0.00  0.00    -0.078 C 
ATOM     32  H   UNL     1       5.069   5.259   0.686  0.00  0.00    -0.081 HD
ENDBRANCH  25  26
ENDBRANCH   6  25
TORSDOF 6
