REMARK  Name = ZINC62244219
REMARK  8 active torsions:
REMARK  status: ('A' for Active; 'I' for Inactive)
REMARK    1  A    between atoms: C_1  and  C_2
REMARK    2  A    between atoms: C_2  and  C_3
REMARK    3  A    between atoms: C_2  and  C_4
REMARK    4  A    between atoms: C_2  and  C_5
REMARK    5  A    between atoms: C_8  and  N_11
REMARK    6  A    between atoms: C_12  and  C_18
REMARK    7  A    between atoms: C_13  and  C_16
REMARK    8  A    between atoms: C_16  and  O_17
REMARK                            x       y       z     vdW  Elec       q    Type
REMARK                         _______ _______ _______ _____ _____    ______ ____
ROOT
ATOM      1  N   UNL     1       2.659  -1.835  -4.667  0.00  0.00    -0.212 N 
ATOM      2  C   UNL     1       3.603  -1.144  -5.380  0.00  0.00    +0.100 A 
ATOM      3  C   UNL     1       3.960  -1.966  -6.413  0.00  0.00    +0.116 A 
ATOM      4  N   UNL     1       3.235  -3.079  -6.277  0.00  0.00    -0.131 NA
ATOM      5  N   UNL     1       2.484  -2.974  -5.239  0.00  0.00    -0.060 NA
ENDROOT
BRANCH   1   9
ATOM      6  C   UNL     1       0.707  -0.490  -1.238  0.00  0.00    -0.042 A 
ATOM      7  C   UNL     1       0.035  -1.284  -2.148  0.00  0.00    +0.006 A 
ATOM      8  C   UNL     1       0.678  -1.732  -3.285  0.00  0.00    +0.028 A 
ATOM      9  C   UNL     1       2.002  -1.382  -3.514  0.00  0.00    +0.068 A 
ATOM     10  C   UNL     1       2.675  -0.585  -2.599  0.00  0.00    +0.028 A 
ATOM     11  C   UNL     1       2.025  -0.136  -1.466  0.00  0.00    +0.006 A 
BRANCH   6  13
ATOM     12  C   UNL     1      -0.019   1.526   0.010  0.00  0.00    +0.015 C 
ATOM     13  C   UNL     1       0.002  -0.004   0.002  0.00  0.00    -0.013 C 
ATOM     14  C   UNL     1       0.742  -0.511   1.242  0.00  0.00    +0.015 C 
ATOM     15  C   UNL     1      -1.433  -0.534   0.013  0.00  0.00    +0.015 C 
ENDBRANCH   6  13
ENDBRANCH   1   9
BRANCH   2  16
ATOM     16  C   UNL     1       4.127   0.209  -5.092  0.00  0.00    +0.005 A 
ATOM     17  C   UNL     1       3.264   1.256  -4.748  0.00  0.00    +0.030 A 
ATOM     18  C   UNL     1       3.795   2.502  -4.488  0.00  0.00    +0.111 A 
ATOM     19  N   UNL     1       5.096   2.712  -4.559  0.00  0.00    -0.263 NA
ATOM     20  C   UNL     1       5.944   1.753  -4.879  0.00  0.00    +0.111 A 
ATOM     21  C   UNL     1       5.499   0.476  -5.150  0.00  0.00    +0.030 A 
ENDBRANCH   2  16
BRANCH   3  22
ATOM     22  C   UNL     1       4.971  -1.672  -7.491  0.00  0.00    +0.215 C 
BRANCH  22  23
ATOM     23  O   UNL     1       6.261  -2.118  -7.069  0.00  0.00    -0.389 OA
ATOM     24  H   UNL     1       6.963  -1.961  -7.715  0.00  0.00    +0.210 HD
ENDBRANCH  22  23
ENDBRANCH   3  22
TORSDOF 5
