REMARK  Name = ZINC43224964
REMARK  9 active torsions:
REMARK  status: ('A' for Active; 'I' for Inactive)
REMARK    1  A    between atoms: C_1  and  C_2
REMARK    2  A    between atoms: C_2  and  C_3
REMARK    3  A    between atoms: C_3  and  C_4
REMARK    4  A    between atoms: C_5  and  C_21
REMARK    5  A    between atoms: C_6  and  C_18
REMARK    6  A    between atoms: C_7  and  C_17
REMARK    7  A    between atoms: N_8  and  C_9
REMARK    8  A    between atoms: C_9  and  C_10
REMARK    9  A    between atoms: C_10  and  N_11
REMARK                            x       y       z     vdW  Elec       q    Type
REMARK                         _______ _______ _______ _____ _____    ______ ____
ROOT
ATOM      1  C   UNL     1      -1.413  -2.041   0.005  0.00  0.00    +0.027 A 
ATOM      2  C   UNL     1      -1.407  -2.826  -1.103  0.00  0.00    +0.015 A 
ATOM      3  C   UNL     1      -1.385  -4.216  -0.615  0.00  0.00    +0.065 A 
ATOM      4  C   UNL     1      -1.380  -4.139   0.749  0.00  0.00    +0.028 A 
ATOM      5  N   UNL     1      -1.391  -2.841   1.107  0.00  0.00    -0.348 N 
ATOM      6  C   UNL     1      -1.360  -5.312   1.695  0.00  0.00    +0.064 C 
ENDROOT
BRANCH   2   7
ATOM      7  C   UNL     1      -1.420  -2.376  -2.515  0.00  0.00    -0.012 A 
ATOM      8  C   UNL     1      -2.523  -1.689  -3.020  0.00  0.00    +0.012 A 
ATOM      9  C   UNL     1      -2.534  -1.272  -4.335  0.00  0.00    +0.050 A 
ATOM     10  C   UNL     1      -1.448  -1.534  -5.160  0.00  0.00    +0.162 A 
ATOM     11  C   UNL     1      -0.344  -2.217  -4.661  0.00  0.00    +0.163 A 
ATOM     12  C   UNL     1      -0.327  -2.633  -3.341  0.00  0.00    +0.058 A 
ATOM     13  O   UNL     1       0.732  -2.474  -5.455  0.00  0.00    -0.485 OA
ATOM     14  C   UNL     1       0.530  -2.367  -6.868  0.00  0.00    +0.270 C 
ATOM     15  C   UNL     1      -0.229  -1.063  -7.147  0.00  0.00    +0.270 C 
ATOM     16  O   UNL     1      -1.482  -1.117  -6.456  0.00  0.00    -0.485 OA
ENDBRANCH   2   7
BRANCH   3  17
ATOM     17  C   UNL     1      -1.372  -5.440  -1.432  0.00  0.00    +0.244 C 
ATOM     18  O   UNL     1      -0.313  -5.931  -1.775  0.00  0.00    -0.270 OA
ATOM     19  N   UNL     1      -2.533  -6.017  -1.800  0.00  0.00    -0.325 N 
ATOM     20  H   UNL     1      -3.377  -5.625  -1.527  0.00  0.00    +0.145 HD
ATOM     21  H   UNL     1      -2.525  -6.823  -2.339  0.00  0.00    +0.145 HD
ENDBRANCH   3  17
BRANCH   1  22
ATOM     22  C   UNL     1      -1.433  -0.534   0.013  0.00  0.00    +0.054 C 
BRANCH  22  24
ATOM     23  C   UNL     1      -0.019   1.526   0.010  0.00  0.00    +0.004 C 
ATOM     24  C   UNL     1       0.002  -0.004   0.002  0.00  0.00    +0.003 C 
ENDBRANCH  22  24
ENDBRANCH   1  22
BRANCH   5  25
ATOM     25  C   UNL     1      -1.386  -2.357   2.490  0.00  0.00    +0.103 C 
BRANCH  25  26
ATOM     26  C   UNL     1      -2.826  -2.209   2.985  0.00  0.00    -0.057 C 
BRANCH  26  27
ATOM     27  N   UNL     1      -2.820  -1.723   4.371  0.00  0.00    +0.381 N 
ATOM     28  C   UNL     1      -2.205  -2.734   5.239  0.00  0.00    -0.079 C 
ATOM     29  C   UNL     1      -2.123  -2.200   6.671  0.00  0.00    -0.019 C 
ATOM     30  C   UNL     1      -3.534  -1.885   7.174  0.00  0.00    -0.004 C 
ATOM     31  C   UNL     1      -4.194  -0.885   6.219  0.00  0.00    -0.019 C 
ATOM     32  C   UNL     1      -4.199  -1.468   4.804  0.00  0.00    -0.079 C 
ATOM     33  H   UNL     1      -2.288  -0.868   4.425  0.00  0.00    -0.082 HD
ENDBRANCH  26  27
ENDBRANCH  25  26
ENDBRANCH   5  25
TORSDOF 7
