REMARK  Name = ZINC00327160
REMARK  11 active torsions:
REMARK  status: ('A' for Active; 'I' for Inactive)
REMARK    1  A    between atoms: C_1  and  C_2
REMARK    2  A    between atoms: C_2  and  C_3
REMARK    3  A    between atoms: C_3  and  C_5
REMARK    4  A    between atoms: C_3  and  S_6
REMARK    5  A    between atoms: S_6  and  C_7
REMARK    6  A    between atoms: N_11  and  C_12
REMARK    7  A    between atoms: C_12  and  C_13
REMARK    8  A    between atoms: C_13  and  C_14
REMARK    9  A    between atoms: C_14  and  C_15
REMARK   10  A    between atoms: C_14  and  C_16
REMARK   11  A    between atoms: N_23  and  C_24
REMARK                            x       y       z     vdW  Elec       q    Type
REMARK                         _______ _______ _______ _____ _____    ______ ____
ROOT
ATOM      1  C   UNL     1      -2.114  -0.776   1.419  0.00  0.00    +0.172 A 
ATOM      2  N   UNL     1      -0.920  -1.332   1.480  0.00  0.00    -0.204 NA
ATOM      3  C   UNL     1      -1.040  -2.656   1.584  0.00  0.00    +0.169 A 
ATOM      4  C   UNL     1      -2.397  -2.958   1.579  0.00  0.00    +0.152 A 
ATOM      5  N   UNL     1      -3.067  -1.745   1.473  0.00  0.00    -0.313 N 
ATOM      6  C   UNL     1      -2.803  -4.300   1.674  0.00  0.00    +0.280 A 
ATOM      7  O   UNL     1      -3.987  -4.587   1.671  0.00  0.00    -0.265 OA
ATOM      8  N   UNL     1      -1.867  -5.267   1.768  0.00  0.00    -0.273 N 
ATOM      9  H   UNL     1      -2.152  -6.223   1.835  0.00  0.00    +0.173 HD
ATOM     10  C   UNL     1      -0.557  -4.966   1.771  0.00  0.00    +0.331 A 
ATOM     11  O   UNL     1       0.258  -5.864   1.857  0.00  0.00    -0.246 OA
ATOM     12  N   UNL     1      -0.126  -3.693   1.683  0.00  0.00    -0.280 N 
ATOM     13  C   UNL     1       1.310  -3.405   1.691  0.00  0.00    +0.155 C 
ENDROOT
BRANCH   1  14
ATOM     14  S   UNL     1      -2.427   0.953   1.280  0.00  0.00    -0.085 S 
BRANCH  14  15
ATOM     15  C   UNL     1      -0.729   1.579   1.267  0.00  0.00    +0.051 C 
ATOM     16  C   UNL     1      -0.013   1.086   0.008  0.00  0.00    +0.019 C 
BRANCH  15  18
ATOM     17  C   UNL     1      -1.354   3.604   2.591  0.00  0.00    +0.005 C 
ATOM     18  C   UNL     1      -0.750   3.109   1.275  0.00  0.00    +0.011 C 
ENDBRANCH  15  18
ENDBRANCH  14  15
ENDBRANCH   1  14
BRANCH   5  19
ATOM     19  C   UNL     1      -4.518  -1.549   1.429  0.00  0.00    +0.125 C 
BRANCH  19  20
ATOM     20  C   UNL     1      -4.994  -1.590  -0.025  0.00  0.00    +0.024 C 
BRANCH  20  21
ATOM     21  C   UNL     1      -6.509  -1.385  -0.072  0.00  0.00    -0.016 C 
ATOM     22  C   UNL     1      -6.849   0.022   0.426  0.00  0.00    +0.007 C 
ATOM     23  C   UNL     1      -7.002  -1.549  -1.511  0.00  0.00    +0.007 C 
ENDBRANCH  20  21
ENDBRANCH  19  20
ENDBRANCH   5  19
TORSDOF 6
