REMARK  Name = ZINC36595368
REMARK  20 active torsions:
REMARK  status: ('A' for Active; 'I' for Inactive)
REMARK    1  A    between atoms: C_1  and  C_2
REMARK    2  A    between atoms: C_2  and  C_3
REMARK    3  A    between atoms: C_3  and  C_4
REMARK    4  A    between atoms: C_3  and  C_6
REMARK    5  A    between atoms: C_4  and  C_5
REMARK    6  A    between atoms: C_6  and  C_8
REMARK    7  A    between atoms: C_6  and  N_19
REMARK    8  A    between atoms: N_10  and  C_11
REMARK    9  A    between atoms: C_11  and  C_12
REMARK   10  A    between atoms: C_11  and  C_13
REMARK   11  A    between atoms: C_11  and  C_14
REMARK   12  A    between atoms: C_14  and  C_15
REMARK   13  A    between atoms: C_15  and  C_16
REMARK   14  A    between atoms: C_15  and  C_17
REMARK   15  A    between atoms: C_15  and  C_18
REMARK   16  A    between atoms: N_19  and  C_20
REMARK   17  A    between atoms: C_20  and  C_21
REMARK   18  A    between atoms: C_24  and  C_26
REMARK   19  A    between atoms: C_27  and  C_29
REMARK   20  A    between atoms: C_34  and  O_35
REMARK                            x       y       z     vdW  Elec       q    Type
REMARK                         _______ _______ _______ _____ _____    ______ ____
ROOT
ATOM      1  C   UNL     1       0.731  -0.121  -5.565  0.00  0.00    +0.166 C 
ENDROOT
BRANCH   1   2
ATOM      2  C   UNL     1       2.159  -0.593  -5.648  0.00  0.00    +0.234 C 
ATOM      3  O   UNL     1       2.918  -0.093  -6.451  0.00  0.00    -0.274 OA
ATOM      4  N   UNL     1       2.594  -1.573  -4.830  0.00  0.00    -0.309 N 
ATOM      5  H   UNL     1       1.992  -1.961  -4.176  0.00  0.00    +0.149 HD
BRANCH   4   6
ATOM      6  C   UNL     1       3.975  -2.050  -4.929  0.00  0.00    +0.030 C 
ATOM      7  C   UNL     1       4.223  -2.607  -6.332  0.00  0.00    +0.031 C 
ATOM      8  C   UNL     1       4.936  -0.890  -4.663  0.00  0.00    +0.031 C 
BRANCH   6   9
ATOM      9  C   UNL     1       4.208  -3.153  -3.894  0.00  0.00    +0.031 C 
BRANCH   9  10
ATOM     10  C   UNL     1       3.799  -2.647  -2.509  0.00  0.00    -0.036 C 
ATOM     11  C   UNL     1       2.273  -2.645  -2.397  0.00  0.00    +0.010 C 
ATOM     12  C   UNL     1       4.388  -3.566  -1.436  0.00  0.00    +0.010 C 
ATOM     13  C   UNL     1       4.327  -1.225  -2.309  0.00  0.00    +0.010 C 
ENDBRANCH   9  10
ENDBRANCH   6   9
ENDBRANCH   4   6
ENDBRANCH   1   2
BRANCH   1  14
ATOM     14  N   UNL     1       0.432   0.736  -6.715  0.00  0.00    -0.278 N 
ATOM     15  C   UNL     1      -0.548   0.393  -7.574  0.00  0.00    +0.251 C 
ATOM     16  O   UNL     1      -1.553  -0.155  -7.164  0.00  0.00    -0.270 OA
BRANCH  15  17
ATOM     17  C   UNL     1      -0.401   0.681  -9.014  0.00  0.00    +0.078 A 
ATOM     18  C   UNL     1       0.857   0.972  -9.547  0.00  0.00    +0.017 A 
ATOM     19  C   UNL     1       0.987   1.240 -10.893  0.00  0.00    +0.001 A 
ATOM     20  C   UNL     1      -0.124   1.223 -11.720  0.00  0.00    +0.004 A 
ATOM     21  C   UNL     1      -1.373   0.938 -11.206  0.00  0.00    +0.046 A 
ATOM     22  C   UNL     1      -1.522   0.660  -9.855  0.00  0.00    +0.129 A 
BRANCH  22  23
ATOM     23  O   UNL     1      -2.748   0.374  -9.349  0.00  0.00    -0.506 OA
ATOM     24  H   UNL     1      -3.238   1.150  -9.044  0.00  0.00    +0.292 HD
ENDBRANCH  22  23
ENDBRANCH  15  17
BRANCH  14  25
ATOM     25  C   UNL     1       1.198   1.966  -6.931  0.00  0.00    +0.183 C 
BRANCH  25  26
ATOM     26  C   UNL     1       0.339   3.158  -6.598  0.00  0.00    +0.122 A 
ATOM     27  C   UNL     1       0.338   3.825  -5.430  0.00  0.00    +0.046 A 
ATOM     28  C   UNL     1      -0.613   4.864  -5.552  0.00  0.00    +0.045 A 
ATOM     29  C   UNL     1      -1.135   4.771  -6.788  0.00  0.00    +0.102 A 
ATOM     30  O   UNL     1      -0.551   3.739  -7.419  0.00  0.00    -0.463 OA
ATOM     31  C   UNL     1      -2.193   5.674  -7.369  0.00  0.00    +0.086 C 
ENDBRANCH  25  26
ENDBRANCH  14  25
ENDBRANCH   1  14
BRANCH   1  32
ATOM     32  C   UNL     1       0.531   0.673  -4.272  0.00  0.00    +0.018 C 
BRANCH  32  34
ATOM     33  C   UNL     1       2.903   1.446  -4.147  0.00  0.00    +0.004 C 
ATOM     34  C   UNL     1       1.447   1.898  -4.279  0.00  0.00    +0.002 C 
ENDBRANCH  32  34
BRANCH  32  35
ATOM     35  C   UNL     1      -0.927   1.128  -4.173  0.00  0.00    +0.002 C 
ATOM     36  C   UNL     1      -1.825  -0.087  -3.930  0.00  0.00    +0.004 C 
ENDBRANCH  32  35
ENDBRANCH   1  32
TORSDOF 12
