REMARK  Name = ZINC02830728
REMARK  7 active torsions:
REMARK  status: ('A' for Active; 'I' for Inactive)
REMARK    1  A    between atoms: C_4  and  C_7
REMARK    2  A    between atoms: C_7  and  N_8
REMARK    3  A    between atoms: C_15  and  C_18
REMARK    4  A    between atoms: C_15  and  O_30
REMARK    5  A    between atoms: C_18  and  C_19
REMARK    6  A    between atoms: C_19  and  C_21
REMARK    7  A    between atoms: C_25  and  N_27
REMARK                            x       y       z     vdW  Elec       q    Type
REMARK                         _______ _______ _______ _____ _____    ______ ____
ROOT
ATOM      1  N   UNL     1      -6.150   4.668  -1.827  0.00  0.00    -0.264 N 
ATOM      2  C   UNL     1      -6.939   3.747  -1.137  0.00  0.00    +0.043 A 
ATOM      3  C   UNL     1      -8.191   3.213  -1.438  0.00  0.00    +0.025 A 
ATOM      4  C   UNL     1      -8.780   2.300  -0.577  0.00  0.00    +0.017 A 
ATOM      5  C   UNL     1      -8.131   1.910   0.582  0.00  0.00    +0.018 A 
ATOM      6  C   UNL     1      -6.887   2.437   0.885  0.00  0.00    +0.024 A 
ATOM      7  C   UNL     1      -6.300   3.345   0.033  0.00  0.00    +0.016 A 
ATOM      8  C   UNL     1      -4.984   4.088   0.071  0.00  0.00    +0.175 C 
ATOM      9  C   UNL     1      -4.993   4.923  -1.192  0.00  0.00    +0.257 C 
ATOM     10  O   UNL     1      -4.120   5.680  -1.561  0.00  0.00    -0.272 OA
ATOM     11 BR   UNL     1      -8.942   0.661   1.748  0.00  0.00    -0.050 Br
ENDROOT
BRANCH   8  12
ATOM     12  O   UNL     1      -4.917   4.927   1.226  0.00  0.00    -0.374 OA
ATOM     13  H   UNL     1      -4.105   5.450   1.285  0.00  0.00    +0.211 HD
ENDBRANCH   8  12
BRANCH   1  14
ATOM     14  C   UNL     1      -6.537   5.285  -3.097  0.00  0.00    +0.148 C 
BRANCH  14  18
ATOM     15  C   UNL     1      -5.148   2.871  -6.336  0.00  0.00    +0.000 A 
ATOM     16  C   UNL     1      -6.401   2.649  -5.796  0.00  0.00    +0.000 A 
ATOM     17  C   UNL     1      -6.851   3.430  -4.748  0.00  0.00    +0.005 A 
ATOM     18  C   UNL     1      -6.047   4.434  -4.240  0.00  0.00    -0.030 A 
ATOM     19  C   UNL     1      -4.796   4.660  -4.783  0.00  0.00    +0.005 A 
ATOM     20  C   UNL     1      -4.345   3.875  -5.828  0.00  0.00    +0.000 A 
ENDBRANCH  14  18
ENDBRANCH   1  14
BRANCH   8  21
ATOM     21  C   UNL     1      -3.813   3.105   0.055  0.00  0.00    +0.129 C 
BRANCH  21  22
ATOM     22  C   UNL     1      -2.514   3.870   0.046  0.00  0.00    +0.167 C 
ATOM     23  O   UNL     1      -2.526   5.082   0.052  0.00  0.00    -0.292 OA
BRANCH  22  24
ATOM     24  C   UNL     1      -1.234   3.146   0.031  0.00  0.00    +0.020 A 
ATOM     25  C   UNL     1      -1.217   1.747   0.017  0.00  0.00    +0.011 A 
ATOM     26  C   UNL     1      -0.013   1.076   0.008  0.00  0.00    +0.003 A 
ATOM     27  C   UNL     1       1.178   1.782   0.000  0.00  0.00    +0.033 A 
ATOM     28  C   UNL     1       1.169   3.166   0.007  0.00  0.00    +0.127 A 
ATOM     29  C   UNL     1      -0.027   3.852   0.022  0.00  0.00    +0.044 A 
BRANCH  28  30
ATOM     30  N   UNL     1       2.448   3.912  -0.002  0.00  0.00    +0.056 N 
ATOM     31  O   UNL     1       3.505   3.308  -0.015  0.00  0.00    -0.126 OA
ATOM     32  O   UNL     1       2.442   5.130   0.004  0.00  0.00    -0.126 OA
ENDBRANCH  28  30
ENDBRANCH  22  24
ENDBRANCH  21  22
ENDBRANCH   8  21
TORSDOF 7
