REMARK  Name = ZINC62960992
REMARK  6 active torsions:
REMARK  status: ('A' for Active; 'I' for Inactive)
REMARK    1  A    between atoms: C_1  and  C_2
REMARK    2  A    between atoms: C_2  and  C_3
REMARK    3  A    between atoms: C_3  and  C_20
REMARK    4  A    between atoms: C_9  and  C_11
REMARK    5  A    between atoms: C_13  and  N_18
REMARK    6  A    between atoms: N_18  and  N_19
REMARK                            x       y       z     vdW  Elec       q    Type
REMARK                         _______ _______ _______ _____ _____    ______ ____
ROOT
ATOM      1  C   UNL     1      -4.889  -2.193   3.176  0.00  0.00    +0.043 A 
ATOM      2  C   UNL     1      -5.482  -0.931   3.114  0.00  0.00    +0.057 A 
ATOM      3  C   UNL     1      -6.077  -0.409   4.257  0.00  0.00    +0.134 A 
ATOM      4  N   UNL     1      -6.083  -1.095   5.389  0.00  0.00    -0.220 NA
ATOM      5  C   UNL     1      -5.532  -2.290   5.485  0.00  0.00    +0.132 A 
ATOM      6  C   UNL     1      -4.925  -2.882   4.394  0.00  0.00    +0.053 A 
ATOM      7 CL   UNL     1      -5.575  -3.134   7.001  0.00  0.00    -0.062 Cl
ENDROOT
BRANCH   1  14
ATOM      8  C   UNL     1      -0.831  -1.007   0.552  0.00  0.00    -0.029 C 
ATOM      9  C   UNL     1      -1.554  -0.510   1.806  0.00  0.00    +0.025 C 
ATOM     10  C   UNL     1      -3.066  -0.675   1.618  0.00  0.00    +0.108 C 
ATOM     11  N   UNL     1      -3.349  -2.075   1.273  0.00  0.00    -0.297 N 
ATOM     12  C   UNL     1      -2.639  -2.681   0.138  0.00  0.00    +0.108 C 
ATOM     13  C   UNL     1      -1.133  -2.493   0.342  0.00  0.00    +0.025 C 
ATOM     14  C   UNL     1      -4.244  -2.790   1.984  0.00  0.00    +0.247 C 
ATOM     15  O   UNL     1      -4.521  -3.924   1.647  0.00  0.00    -0.270 OA
ATOM     16  C   UNL     1      -1.314  -0.213  -0.664  0.00  0.00    +0.011 C 
BRANCH   8  18
ATOM     17  C   UNL     1       0.978   0.673   0.931  0.00  0.00    +0.004 C 
ATOM     18  C   UNL     1       0.677  -0.812   0.722  0.00  0.00    +0.003 C 
ENDBRANCH   8  18
ENDBRANCH   1  14
BRANCH   3  19
ATOM     19  N   UNL     1      -6.672   0.847   4.210  0.00  0.00    -0.267 N 
ATOM     20  H   UNL     1      -6.670   1.353   3.383  0.00  0.00    +0.167 HD
BRANCH  19  21
ATOM     21  N   UNL     1      -7.258   1.367   5.329  0.00  0.00    -0.255 NA
ATOM     22  H   UNL     1      -7.645   2.280   5.143  0.00  0.00    +0.140 HD
ATOM     23  H   UNL     1      -7.963   0.742   5.691  0.00  0.00    +0.140 HD
ENDBRANCH  19  21
ENDBRANCH   3  19
TORSDOF 4
