REMARK  Name = ZINC03227686
REMARK  7 active torsions:
REMARK  status: ('A' for Active; 'I' for Inactive)
REMARK    1  A    between atoms: C_1  and  C_2
REMARK    2  A    between atoms: C_2  and  C_4
REMARK    3  A    between atoms: C_8  and  C_10
REMARK    4  A    between atoms: C_10  and  C_11
REMARK    5  A    between atoms: C_10  and  C_12
REMARK    6  A    between atoms: C_10  and  N_13
REMARK    7  A    between atoms: N_16  and  N_17
REMARK                            x       y       z     vdW  Elec       q    Type
REMARK                         _______ _______ _______ _____ _____    ______ ____
ROOT
ATOM      1  N   UNL     1       2.387  -0.322  -0.016  0.00  0.00    -0.289 N 
ATOM      2  C   UNL     1       2.367   1.023  -0.086  0.00  0.00    +0.317 C 
ATOM      3  O   UNL     1       3.410   1.644  -0.168  0.00  0.00    -0.251 OA
ATOM      4  N   UNL     1       1.191   1.682  -0.066  0.00  0.00    -0.219 N 
ATOM      5  H   UNL     1       1.556  -0.817   0.049  0.00  0.00    +0.151 HD
ATOM      6  H   UNL     1       1.177   2.650  -0.117  0.00  0.00    +0.174 HD
ENDROOT
BRANCH   4   7
ATOM      7  N   UNL     1      -0.010   0.967   0.028  0.00  0.00    -0.241 N 
ATOM      8  C   UNL     1      -1.214   1.641   0.043  0.00  0.00    +0.176 A 
ATOM      9  N   UNL     1      -2.431   1.152   0.120  0.00  0.00    -0.224 NA
ATOM     10  C   UNL     1      -3.530   1.938   0.126  0.00  0.00    +0.080 A 
ATOM     11  C   UNL     1      -4.885   1.543   0.204  0.00  0.00    +0.029 A 
ATOM     12  C   UNL     1      -5.888   2.477   0.198  0.00  0.00    +0.002 A 
ATOM     13  C   UNL     1      -5.614   3.835   0.115  0.00  0.00    +0.001 A 
ATOM     14  C   UNL     1      -4.299   4.256   0.037  0.00  0.00    +0.017 A 
ATOM     15  C   UNL     1      -3.289   3.328   0.043  0.00  0.00    +0.041 A 
ATOM     16  S   UNL     1      -1.515   3.401  -0.029  0.00  0.00    -0.051 S 
ATOM     17  H   UNL     1       0.004  -0.001   0.079  0.00  0.00    +0.172 HD
ENDBRANCH   4   7
BRANCH   1  18
ATOM     18  C   UNL     1       3.666  -1.038  -0.038  0.00  0.00    +0.056 C 
ATOM     19  C   UNL     1       4.390  -0.747  -1.354  0.00  0.00    +0.036 C 
ATOM     20  C   UNL     1       4.531  -0.572   1.134  0.00  0.00    +0.036 C 
BRANCH  18  25
ATOM     21  C   UNL     1       2.027  -4.347   0.788  0.00  0.00    -0.022 A 
ATOM     22  C   UNL     1       2.967  -5.249   0.288  0.00  0.00    +0.008 A 
ATOM     23  C   UNL     1       4.119  -4.780  -0.310  0.00  0.00    +0.001 A 
ATOM     24  C   UNL     1       4.340  -3.418  -0.419  0.00  0.00    +0.006 A 
ATOM     25  C   UNL     1       3.414  -2.519   0.080  0.00  0.00    -0.024 A 
ATOM     26  C   UNL     1       2.258  -2.975   0.680  0.00  0.00    +0.014 A 
BRANCH  21  28
ATOM     27  C   UNL     1       0.871  -5.625   2.715  0.00  0.00    +0.044 C 
ATOM     28  C   UNL     1       0.791  -4.843   1.429  0.00  0.00    -0.050 C 
ATOM     29  C   UNL     1      -0.388  -4.600   0.874  0.00  0.00    +0.012 C 
ENDBRANCH  21  28
ENDBRANCH  18  25
ENDBRANCH   1  18
TORSDOF 4
