REMARK  Name = ZINC14662976
REMARK  11 active torsions:
REMARK  status: ('A' for Active; 'I' for Inactive)
REMARK    1  A    between atoms: C_1  and  O_2
REMARK    2  A    between atoms: O_2  and  C_3
REMARK    3  A    between atoms: C_3  and  C_4
REMARK    4  A    between atoms: C_4  and  O_5
REMARK    5  A    between atoms: O_5  and  C_6
REMARK    6  A    between atoms: C_11  and  C_12
REMARK    7  A    between atoms: N_14  and  C_15
REMARK    8  A    between atoms: C_15  and  N_17
REMARK    9  A    between atoms: N_17  and  N_18
REMARK   10  A    between atoms: C_19  and  C_21
REMARK   11  A    between atoms: C_24  and  N_27
REMARK                            x       y       z     vdW  Elec       q    Type
REMARK                         _______ _______ _______ _____ _____    ______ ____
ROOT
ATOM      1  C   UNL     1      -5.705  -3.142  -1.462  0.00  0.00    +0.153 C 
ATOM      2  S   UNL     1      -5.449  -1.452  -1.552  0.00  0.00    -0.017 S 
ENDROOT
BRANCH   1   5
ATOM      3  C   UNL     1      -3.405  -3.481  -1.262  0.00  0.00    +0.253 C 
ATOM      4  O   UNL     1      -3.222  -2.281  -1.326  0.00  0.00    -0.270 OA
ATOM      5  N   UNL     1      -4.656  -3.977  -1.327  0.00  0.00    -0.263 N 
ATOM      6  H   UNL     1      -4.801  -4.935  -1.276  0.00  0.00    +0.157 HD
BRANCH   3  12
ATOM      7  C   UNL     1      -0.953  -3.883  -1.046  0.00  0.00    +0.133 A 
ATOM      8  C   UNL     1       0.119  -4.750  -0.900  0.00  0.00    +0.047 A 
ATOM      9  C   UNL     1      -0.097  -6.112  -0.828  0.00  0.00    +0.019 A 
ATOM     10  C   UNL     1      -1.383  -6.623  -0.901  0.00  0.00    +0.019 A 
ATOM     11  C   UNL     1      -2.461  -5.775  -1.046  0.00  0.00    +0.032 A 
ATOM     12  C   UNL     1      -2.256  -4.394  -1.113  0.00  0.00    +0.080 A 
ATOM     13 BR   UNL     1      -1.662  -8.491  -0.802  0.00  0.00    -0.050 Br
BRANCH   7  14
ATOM     14  O   UNL     1      -0.742  -2.545  -1.117  0.00  0.00    -0.489 OA
BRANCH  14  15
ATOM     15  C   UNL     1       0.613  -2.097  -1.041  0.00  0.00    +0.257 C 
BRANCH  15  16
ATOM     16  C   UNL     1       0.652  -0.570  -1.138  0.00  0.00    +0.200 C 
BRANCH  16  18
ATOM     17  C   UNL     1      -0.017   1.425   0.010  0.00  0.00    +0.194 C 
ATOM     18  O   UNL     1       0.002  -0.004   0.002  0.00  0.00    -0.380 OA
ENDBRANCH  16  18
ENDBRANCH  15  16
ENDBRANCH  14  15
ENDBRANCH   7  14
ENDBRANCH   3  12
ENDBRANCH   1   5
BRANCH   1  19
ATOM     19  N   UNL     1      -6.957  -3.638  -1.527  0.00  0.00    -0.245 N 
ATOM     20  H   UNL     1      -7.712  -3.038  -1.624  0.00  0.00    +0.172 HD
BRANCH  19  21
ATOM     21  N   UNL     1      -7.167  -5.021  -1.453  0.00  0.00    -0.231 N 
ATOM     22  C   UNL     1      -8.418  -5.518  -1.518  0.00  0.00    +0.260 C 
ATOM     23  O   UNL     1      -9.365  -4.765  -1.640  0.00  0.00    -0.269 OA
ATOM     24  H   UNL     1      -6.412  -5.622  -1.356  0.00  0.00    +0.173 HD
BRANCH  22  25
ATOM     25  C   UNL     1      -8.640  -6.977  -1.440  0.00  0.00    +0.038 A 
ATOM     26  C   UNL     1      -7.556  -7.844  -1.294  0.00  0.00    +0.015 A 
ATOM     27  C   UNL     1      -7.770  -9.205  -1.222  0.00  0.00    +0.033 A 
ATOM     28  C   UNL     1      -9.055  -9.711  -1.295  0.00  0.00    +0.126 A 
ATOM     29  C   UNL     1     -10.134  -8.857  -1.440  0.00  0.00    +0.033 A 
ATOM     30  C   UNL     1      -9.935  -7.494  -1.507  0.00  0.00    +0.015 A 
BRANCH  28  31
ATOM     31  N   UNL     1      -9.277 -11.173  -1.217  0.00  0.00    +0.056 N 
ATOM     32  O   UNL     1      -8.336 -11.921  -1.091  0.00  0.00    -0.126 OA
ATOM     33  O   UNL     1     -10.399 -11.618  -1.280  0.00  0.00    -0.126 OA
ENDBRANCH  28  31
ENDBRANCH  22  25
ENDBRANCH  19  21
ENDBRANCH   1  19
TORSDOF 10
