REMARK  Name = ZINC02707268
REMARK  4 active torsions:
REMARK  status: ('A' for Active; 'I' for Inactive)
REMARK    1  A    between atoms: C_1  and  O_2
REMARK    2  A    between atoms: O_2  and  C_3
REMARK    3  A    between atoms: C_7  and  C_9
REMARK    4  A    between atoms: C_26  and  C_28
REMARK                            x       y       z     vdW  Elec       q    Type
REMARK                         _______ _______ _______ _____ _____    ______ ____
ROOT
ATOM      1  C   UNL     1      -2.595  -4.138  -0.017  0.00  0.00    +0.234 C 
ATOM      2  C   UNL     1      -2.828  -4.645  -1.410  0.00  0.00    +0.028 C 
ATOM      3  C   UNL     1      -4.080  -4.830  -1.874  0.00  0.00    +0.083 C 
ATOM      4  C   UNL     1      -5.204  -4.524  -0.952  0.00  0.00    +0.042 A 
ATOM      5  C   UNL     1      -6.502  -4.366  -1.417  0.00  0.00    +0.013 A 
ATOM      6  C   UNL     1      -7.517  -4.081  -0.524  0.00  0.00    +0.001 A 
ATOM      7  C   UNL     1      -7.241  -3.953   0.827  0.00  0.00    +0.004 A 
ATOM      8  C   UNL     1      -5.950  -4.110   1.298  0.00  0.00    +0.046 A 
ATOM      9  C   UNL     1      -4.924  -4.397   0.414  0.00  0.00    +0.131 A 
ATOM     10  O   UNL     1      -3.652  -4.560   0.846  0.00  0.00    -0.479 OA
ATOM     11  N   UNL     1      -4.311  -5.278  -3.133  0.00  0.00    -0.213 NA
ATOM     12  C   UNL     1      -3.369  -5.577  -3.997  0.00  0.00    +0.237 C 
ATOM     13  N   UNL     1      -3.422  -6.032  -5.268  0.00  0.00    -0.205 NA
ATOM     14  C   UNL     1      -2.218  -6.192  -5.744  0.00  0.00    +0.203 C 
ATOM     15  N   UNL     1      -1.305  -5.844  -4.795  0.00  0.00    -0.251 N 
ATOM     16  N   UNL     1      -2.034  -5.447  -3.671  0.00  0.00    -0.208 N 
ATOM     17  C   UNL     1      -1.672  -4.962  -2.334  0.00  0.00    +0.166 C 
ATOM     18  H   UNL     1      -0.339  -5.868  -4.882  0.00  0.00    +0.171 HD
ENDROOT
BRANCH   1  23
ATOM     19  C   UNL     1      -1.280  -0.598   0.127  0.00  0.00    +0.120 A 
ATOM     20  C   UNL     1      -2.442   0.134  -0.075  0.00  0.00    +0.045 A 
ATOM     21  C   UNL     1      -3.645  -0.519  -0.257  0.00  0.00    +0.004 A 
ATOM     22  C   UNL     1      -3.694  -1.901  -0.238  0.00  0.00    +0.008 A 
ATOM     23  C   UNL     1      -2.538  -2.632  -0.037  0.00  0.00    +0.000 A 
ATOM     24  C   UNL     1      -1.331  -1.985   0.140  0.00  0.00    +0.053 A 
BRANCH  19  26
ATOM     25  C   UNL     1      -0.118   1.470   0.281  0.00  0.00    +0.277 C 
ATOM     26  O   UNL     1      -0.095   0.041   0.306  0.00  0.00    -0.495 OA
ENDBRANCH  19  26
ENDBRANCH   1  23
BRANCH  17  27
ATOM     27  C   UNL     1      -0.842  -3.715  -2.494  0.00  0.00    +0.016 A 
ATOM     28  C   UNL     1       0.379  -3.430  -1.978  0.00  0.00    +0.013 A 
ATOM     29  C   UNL     1       0.958  -2.207  -2.262  0.00  0.00    +0.008 A 
ATOM     30  C   UNL     1       0.288  -1.330  -3.049  0.00  0.00    +0.045 A 
ATOM     31  S   UNL     1      -1.207  -2.233  -3.420  0.00  0.00    -0.099 S 
ENDBRANCH  17  27
TORSDOF 3
