REMARK  Name = ZINC66464924
REMARK  4 active torsions:
REMARK  status: ('A' for Active; 'I' for Inactive)
REMARK    1  A    between atoms: C_1  and  C_2
REMARK    2  A    between atoms: N_15  and  C_16
REMARK    3  A    between atoms: C_16  and  C_17
REMARK    4  A    between atoms: N_21  and  C_23
REMARK                            x       y       z     vdW  Elec       q    Type
REMARK                         _______ _______ _______ _____ _____    ______ ____
ROOT
ATOM      1  C   UNL     1      -0.018   1.503   0.010  0.00  0.00    +0.090 C 
ATOM      2  C   UNL     1       0.002  -0.004   0.002  0.00  0.00    +0.149 A 
ATOM      3  N   UNL     1       0.007  -0.765  -1.089  0.00  0.00    -0.211 NA
ATOM      4  C   UNL     1       0.026  -2.035  -0.743  0.00  0.00    +0.169 A 
ATOM      5  C   UNL     1       0.041  -3.302  -1.481  0.00  0.00    +0.045 A 
ATOM      6  C   UNL     1       0.036  -3.346  -2.874  0.00  0.00    +0.014 A 
ATOM      7  C   UNL     1       0.050  -4.565  -3.516  0.00  0.00    +0.001 A 
ATOM      8  C   UNL     1       0.070  -5.747  -2.787  0.00  0.00    +0.002 A 
ATOM      9  C   UNL     1       0.075  -5.726  -1.411  0.00  0.00    +0.028 A 
ATOM     10  C   UNL     1       0.061  -4.503  -0.736  0.00  0.00    +0.078 A 
ATOM     11  N   UNL     1       0.067  -4.443   0.618  0.00  0.00    -0.214 NA
ATOM     12  C   UNL     1       0.054  -3.305   1.261  0.00  0.00    +0.219 A 
ATOM     13  N   UNL     1       0.033  -2.095   0.625  0.00  0.00    -0.181 N 
ATOM     14  N   UNL     1       0.023  -0.765   1.068  0.00  0.00    -0.147 NA
ATOM     15  N   UNL     1       0.061  -3.325   2.636  0.00  0.00    -0.313 N 
ATOM     16  H   UNL     1       0.052  -2.493   3.133  0.00  0.00    +0.149 HD
ENDROOT
BRANCH  15  17
ATOM     17  C   UNL     1       0.083  -4.605   3.349  0.00  0.00    +0.109 C 
BRANCH  17  18
ATOM     18  C   UNL     1       0.086  -4.348   4.857  0.00  0.00    +0.025 C 
ATOM     19  C   UNL     1       1.438  -3.737   5.314  0.00  0.00    +0.025 C 
ATOM     20  C   UNL     1       1.535  -4.178   6.790  0.00  0.00    +0.105 C 
ATOM     21  N   UNL     1       0.669  -5.355   6.952  0.00  0.00    -0.330 N 
ATOM     22  C   UNL     1       0.063  -5.680   5.648  0.00  0.00    +0.110 C 
BRANCH  21  23
ATOM     23  C   UNL     1       0.457  -6.052   8.145  0.00  0.00    +0.030 A 
ATOM     24  C   UNL     1      -0.383  -7.158   8.165  0.00  0.00    +0.026 A 
ATOM     25  C   UNL     1      -0.591  -7.845   9.345  0.00  0.00    +0.040 A 
ATOM     26  C   UNL     1       0.037  -7.433  10.507  0.00  0.00    +0.124 A 
ATOM     27  C   UNL     1       0.876  -6.331  10.490  0.00  0.00    +0.040 A 
ATOM     28  C   UNL     1       1.091  -5.644   9.312  0.00  0.00    +0.026 A 
ATOM     29  F   UNL     1      -0.168  -8.107  11.660  0.00  0.00    -0.205 F 
ENDBRANCH  21  23
ENDBRANCH  17  18
ENDBRANCH  15  17
TORSDOF 3
