REMARK  Name = ZINC46085365
REMARK  5 active torsions:
REMARK  status: ('A' for Active; 'I' for Inactive)
REMARK    1  A    between atoms: C_1  and  C_2
REMARK    2  A    between atoms: C_2  and  C_21
REMARK    3  A    between atoms: N_3  and  N_4
REMARK    4  A    between atoms: C_13  and  C_15
REMARK    5  A    between atoms: N_29  and  C_30
REMARK                            x       y       z     vdW  Elec       q    Type
REMARK                         _______ _______ _______ _____ _____    ______ ____
ROOT
ATOM      1  N   UNL     1       0.407   0.014   2.356  0.00  0.00    -0.205 N 
ATOM      2  C   UNL     1       0.231  -0.675   3.544  0.00  0.00    +0.236 A 
ATOM      3  N   UNL     1       0.075  -1.985   3.498  0.00  0.00    -0.213 NA
ATOM      4  C   UNL     1      -0.098  -2.687   4.625  0.00  0.00    +0.077 A 
ATOM      5  C   UNL     1      -0.266  -4.080   4.613  0.00  0.00    +0.028 A 
ATOM      6  C   UNL     1      -0.438  -4.747   5.789  0.00  0.00    +0.002 A 
ATOM      7  C   UNL     1      -0.452  -4.067   7.005  0.00  0.00    +0.001 A 
ATOM      8  C   UNL     1      -0.292  -2.714   7.053  0.00  0.00    +0.012 A 
ATOM      9  C   UNL     1      -0.112  -1.998   5.864  0.00  0.00    +0.026 A 
ATOM     10  C   UNL     1       0.060  -0.591   5.852  0.00  0.00    +0.084 A 
ATOM     11  N   UNL     1       0.230   0.011   4.683  0.00  0.00    -0.213 NA
ATOM     12  H   UNL     1       0.527   0.976   2.366  0.00  0.00    +0.177 HD
ENDROOT
BRANCH  10  13
ATOM     13  C   UNL     1       0.055   0.185   7.112  0.00  0.00    +0.001 A 
ATOM     14  C   UNL     1       0.768  -0.274   8.220  0.00  0.00    +0.010 A 
ATOM     15  C   UNL     1       0.760   0.455   9.392  0.00  0.00    +0.001 A 
ATOM     16  C   UNL     1       0.046   1.637   9.470  0.00  0.00    +0.000 A 
ATOM     17  C   UNL     1      -0.663   2.098   8.375  0.00  0.00    +0.001 A 
ATOM     18  C   UNL     1      -0.658   1.382   7.195  0.00  0.00    +0.010 A 
ENDBRANCH  10  13
BRANCH   1  21
ATOM     19  C   UNL     1       0.765   1.462   0.038  0.00  0.00    +0.071 C 
ATOM     20  C   UNL     1       0.579  -0.033   0.022  0.00  0.00    +0.098 C 
ATOM     21  N   UNL     1       0.413  -0.680   1.138  0.00  0.00    -0.181 NA
BRANCH  20  22
ATOM     22  C   UNL     1       0.585  -0.759  -1.253  0.00  0.00    +0.157 A 
ATOM     23  N   UNL     1       0.750  -0.211  -2.436  0.00  0.00    -0.226 NA
ATOM     24  C   UNL     1       0.701  -1.169  -3.392  0.00  0.00    +0.090 A 
ATOM     25  C   UNL     1       0.815  -1.139  -4.787  0.00  0.00    +0.030 A 
ATOM     26  C   UNL     1       0.721  -2.300  -5.501  0.00  0.00    +0.002 A 
ATOM     27  C   UNL     1       0.512  -3.512  -4.859  0.00  0.00    +0.002 A 
ATOM     28  C   UNL     1       0.397  -3.565  -3.486  0.00  0.00    +0.028 A 
ATOM     29  C   UNL     1       0.490  -2.398  -2.742  0.00  0.00    +0.069 A 
ATOM     30  N   UNL     1       0.425  -2.115  -1.391  0.00  0.00    -0.326 N 
ATOM     31  C   UNL     1       0.221  -3.081  -0.309  0.00  0.00    +0.151 C 
ENDBRANCH  20  22
ENDBRANCH   1  21
TORSDOF 3
