REMARK  Name = ZINC09124887
REMARK  7 active torsions:
REMARK  status: ('A' for Active; 'I' for Inactive)
REMARK    1  A    between atoms: C_1  and  O_2
REMARK    2  A    between atoms: O_2  and  C_3
REMARK    3  A    between atoms: C_3  and  C_5
REMARK    4  A    between atoms: C_9  and  N_10
REMARK    5  A    between atoms: C_11  and  C_13
REMARK    6  A    between atoms: C_13  and  S_14
REMARK    7  A    between atoms: S_14  and  C_15
REMARK                            x       y       z     vdW  Elec       q    Type
REMARK                         _______ _______ _______ _____ _____    ______ ____
ROOT
ATOM      1  N   UNL     1      -1.281  -2.312  -2.478  0.00  0.00    -0.279 N 
ATOM      2  C   UNL     1      -1.325  -3.159  -3.526  0.00  0.00    +0.228 C 
ATOM      3  O   UNL     1      -1.370  -4.356  -3.336  0.00  0.00    -0.275 OA
ATOM      4  H   UNL     1      -1.246  -1.355  -2.630  0.00  0.00    +0.155 HD
ENDROOT
BRANCH   1   9
ATOM      5  C   UNL     1      -1.248  -2.096   0.003  0.00  0.00    +0.091 A 
ATOM      6  C   UNL     1      -1.271  -2.859   1.243  0.00  0.00    -0.021 A 
ATOM      7  C   UNL     1      -1.318  -4.195   1.063  0.00  0.00    -0.004 A 
ATOM      8  S   UNL     1      -1.343  -4.413  -0.695  0.00  0.00    -0.077 S 
ATOM      9  C   UNL     1      -1.288  -2.809  -1.184  0.00  0.00    +0.086 A 
ATOM     10  C   UNL     1      -1.333  -5.260   2.115  0.00  0.00    +0.043 C 
ATOM     11  C   UNL     1      -2.393  -4.912   3.168  0.00  0.00    +0.005 C 
ATOM     12  C   UNL     1      -1.742  -4.055   4.249  0.00  0.00    +0.001 C 
ATOM     13  C   UNL     1      -0.655  -3.173   3.639  0.00  0.00    +0.005 C 
ATOM     14  C   UNL     1      -1.258  -2.210   2.620  0.00  0.00    +0.037 C 
BRANCH   5  15
ATOM     15  C   UNL     1      -1.191  -0.633   0.010  0.00  0.00    +0.342 C 
ATOM     16  O   UNL     1      -2.220   0.016   0.023  0.00  0.00    -0.245 OA
BRANCH  15  18
ATOM     17  C   UNL     1      -0.017   1.425   0.010  0.00  0.00    +0.280 C 
ATOM     18  O   UNL     1       0.002  -0.004   0.002  0.00  0.00    -0.464 OA
ENDBRANCH  15  18
ENDBRANCH   5  15
ENDBRANCH   1   9
BRANCH   2  19
ATOM     19  C   UNL     1      -1.318  -2.619  -4.932  0.00  0.00    +0.173 C 
BRANCH  19  20
ATOM     20  S   UNL     1      -1.384  -3.998  -6.110  0.00  0.00    -0.076 S 
BRANCH  20  21
ATOM     21  C   UNL     1      -1.369  -3.212  -7.687  0.00  0.00    +0.198 A 
ATOM     22  N   UNL     1      -1.315  -1.920  -7.904  0.00  0.00    -0.120 NA
ATOM     23  N   UNL     1      -1.323  -1.713  -9.289  0.00  0.00    -0.110 NA
ATOM     24  C   UNL     1      -1.382  -2.887  -9.876  0.00  0.00    +0.235 A 
ATOM     25  N   UNL     1      -1.406  -3.844  -8.901  0.00  0.00    -0.255 N 
ATOM     26  C   UNL     1      -1.461  -5.096  -9.518  0.00  0.00    +0.075 A 
ATOM     27  C   UNL     1      -1.506  -6.389  -9.017  0.00  0.00    +0.028 A 
ATOM     28  C   UNL     1      -1.557  -7.462  -9.884  0.00  0.00    +0.002 A 
ATOM     29  C   UNL     1      -1.562  -7.254 -11.252  0.00  0.00    +0.002 A 
ATOM     30  C   UNL     1      -1.517  -5.972 -11.761  0.00  0.00    +0.028 A 
ATOM     31  C   UNL     1      -1.466  -4.886 -10.897  0.00  0.00    +0.066 A 
ATOM     32  N   UNL     1      -1.424  -3.512 -11.110  0.00  0.00    -0.322 N 
ATOM     33  H   UNL     1      -1.416  -3.069 -11.973  0.00  0.00    +0.169 HD
ENDBRANCH  20  21
ENDBRANCH  19  20
ENDBRANCH   2  19
TORSDOF 6
