REMARK  Name = ZINC37362136
REMARK  4 active torsions:
REMARK  status: ('A' for Active; 'I' for Inactive)
REMARK    1  A    between atoms: C_1  and  C_2
REMARK    2  A    between atoms: C_2  and  C_21
REMARK    3  A    between atoms: C_5  and  C_12
REMARK    4  A    between atoms: C_5  and  N_15
REMARK                            x       y       z     vdW  Elec       q    Type
REMARK                         _______ _______ _______ _____ _____    ______ ____
ROOT
ATOM      1  C   UNL     1      -0.268   1.368   0.270  0.00  0.00    +0.016 C 
ATOM      2  C   UNL     1      -0.145  -0.153   0.164  0.00  0.00    -0.010 C 
ATOM      3  C   UNL     1       0.560  -0.512  -1.142  0.00  0.00    +0.010 C 
ATOM      4  C   UNL     1       0.869  -2.014  -1.129  0.00  0.00    +0.005 C 
ATOM      5  C   UNL     1       1.962  -2.271  -0.094  0.00  0.00    +0.064 C 
ATOM      6  C   UNL     1       1.598  -1.647   1.227  0.00  0.00    -0.044 A 
ATOM      7  C   UNL     1       0.633  -0.671   1.345  0.00  0.00    -0.039 A 
ATOM      8  C   UNL     1       0.350  -0.131   2.593  0.00  0.00    +0.004 A 
ATOM      9  C   UNL     1       1.025  -0.567   3.715  0.00  0.00    +0.000 A 
ATOM     10  C   UNL     1       1.991  -1.549   3.597  0.00  0.00    +0.000 A 
ATOM     11  C   UNL     1       2.275  -2.085   2.358  0.00  0.00    +0.003 A 
ATOM     12  C   UNL     1      -1.543  -0.774   0.170  0.00  0.00    +0.016 C 
ENDROOT
BRANCH   5  13
ATOM     13  N   UNL     1       3.226  -1.694  -0.571  0.00  0.00    +0.393 N 
ATOM     14  C   UNL     1       3.559  -2.265  -1.882  0.00  0.00    -0.077 C 
ATOM     15  C   UNL     1       4.832  -1.609  -2.420  0.00  0.00    -0.019 C 
ATOM     16  C   UNL     1       5.984  -1.863  -1.443  0.00  0.00    -0.004 C 
ATOM     17  C   UNL     1       5.595  -1.330  -0.061  0.00  0.00    -0.019 C 
ATOM     18  C   UNL     1       4.294  -1.997   0.390  0.00  0.00    -0.077 C 
ATOM     19  H   UNL     1       3.126  -0.694  -0.658  0.00  0.00    -0.080 HD
ENDBRANCH   5  13
BRANCH   5  20
ATOM     20  C   UNL     1       2.133  -3.757   0.089  0.00  0.00    +0.350 C 
ATOM     21  O   UNL     1       3.171  -4.298  -0.252  0.00  0.00    -0.248 OA
ATOM     22  O   UNL     1       1.233  -4.419   0.578  0.00  0.00    -0.248 OA
ENDBRANCH   5  20
TORSDOF 2
