REMARK  Name = ZINC33810320
REMARK  7 active torsions:
REMARK  status: ('A' for Active; 'I' for Inactive)
REMARK    1  A    between atoms: C_1  and  C_2
REMARK    2  A    between atoms: C_2  and  C_31
REMARK    3  A    between atoms: C_6  and  C_20
REMARK    4  A    between atoms: C_11  and  S_15
REMARK    5  A    between atoms: S_15  and  C_16
REMARK    6  A    between atoms: C_16  and  C_17
REMARK    7  A    between atoms: C_23  and  C_26
REMARK                            x       y       z     vdW  Elec       q    Type
REMARK                         _______ _______ _______ _____ _____    ______ ____
ROOT
ATOM      1  C   UNL     1       4.231   1.751   3.506  0.00  0.00    +0.011 C 
ATOM      2  C   UNL     1       5.371   0.739   3.645  0.00  0.00    -0.023 C 
ATOM      3  C   UNL     1       6.292   0.833   2.428  0.00  0.00    +0.058 C 
ATOM      4  C   UNL     1       5.516   0.498   1.178  0.00  0.00    +0.017 C 
ATOM      5  C   UNL     1       4.482  -0.368   1.213  0.00  0.00    +0.024 C 
ATOM      6  C   UNL     1       3.710  -0.705  -0.038  0.00  0.00    +0.092 C 
ATOM      7  C   UNL     1       4.473  -0.321  -1.270  0.00  0.00    +0.069 A 
ATOM      8  C   UNL     1       5.514   0.551  -1.205  0.00  0.00    +0.135 A 
ATOM      9  N   UNL     1       6.183   0.885  -2.353  0.00  0.00    -0.208 NA
ATOM     10  C   UNL     1       5.807   0.342  -3.545  0.00  0.00    +0.171 A 
ATOM     11  N   UNL     1       4.803  -0.507  -3.621  0.00  0.00    -0.302 N 
ATOM     12  C   UNL     1       4.117  -0.864  -2.524  0.00  0.00    +0.258 A 
ATOM     13  O   UNL     1       3.189  -1.655  -2.611  0.00  0.00    -0.267 OA
ATOM     14  N   UNL     1       5.889   1.093   0.003  0.00  0.00    -0.302 N 
ATOM     15  C   UNL     1       4.090  -0.981   2.416  0.00  0.00    +0.162 C 
ATOM     16  O   UNL     1       3.164  -1.768   2.411  0.00  0.00    -0.292 OA
ATOM     17  C   UNL     1       4.795  -0.679   3.710  0.00  0.00    +0.086 C 
ATOM     18  C   UNL     1       6.165   1.031   4.920  0.00  0.00    +0.011 C 
ATOM     19  H   UNL     1       6.494   2.011   0.018  0.00  0.00    +0.153 HD
ATOM     20  H   UNL     1       4.516  -0.934  -4.593  0.00  0.00    +0.171 HD
ENDROOT
BRANCH   6  21
ATOM     21  C   UNL     1       2.396   0.034  -0.021  0.00  0.00    -0.035 A 
ATOM     22  C   UNL     1       1.208  -0.674  -0.013  0.00  0.00    +0.006 A 
ATOM     23  C   UNL     1       0.002  -0.004   0.002  0.00  0.00    +0.019 A 
ATOM     24  C   UNL     1      -0.017   1.392   0.010  0.00  0.00    +0.052 A 
ATOM     25  C   UNL     1       1.187   2.100   0.002  0.00  0.00    +0.019 A 
ATOM     26  C   UNL     1       2.385   1.417  -0.013  0.00  0.00    +0.006 A 
BRANCH  24  27
ATOM     27  C   UNL     1      -1.265   2.094   0.019  0.00  0.00    +0.099 C 
ATOM     28  N   UNL     1      -2.255   2.652   0.027  0.00  0.00    -0.191 NA
ENDBRANCH  24  27
ENDBRANCH   6  21
BRANCH  10  29
ATOM     29  S   UNL     1       6.679   0.785  -5.011  0.00  0.00    -0.084 S 
BRANCH  29  30
ATOM     30  C   UNL     1       5.772  -0.203  -6.226  0.00  0.00    +0.104 C 
BRANCH  30  31
ATOM     31  C   UNL     1       6.360   0.021  -7.596  0.00  0.00    -0.023 C 
ATOM     32  C   UNL     1       6.945  -0.966  -8.228  0.00  0.00    +0.005 C 
ENDBRANCH  30  31
ENDBRANCH  29  30
ENDBRANCH  10  29
TORSDOF 5
