REMARK  Name = ZINC12636810
REMARK  7 active torsions:
REMARK  status: ('A' for Active; 'I' for Inactive)
REMARK    1  A    between atoms: C_1  and  C_2
REMARK    2  A    between atoms: C_5  and  N_8
REMARK    3  A    between atoms: N_8  and  C_9
REMARK    4  A    between atoms: C_9  and  C_11
REMARK    5  A    between atoms: C_9  and  C_17
REMARK    6  A    between atoms: N_19  and  C_20
REMARK    7  A    between atoms: C_26  and  C_28
REMARK                            x       y       z     vdW  Elec       q    Type
REMARK                         _______ _______ _______ _____ _____    ______ ____
ROOT
ATOM      1  C   UNL     1       0.167   0.931  -0.670  0.00  0.00    +0.197 C 
ENDROOT
BRANCH   1   2
ATOM      2  C   UNL     1      -0.784   1.405   0.399  0.00  0.00    -0.018 A 
ATOM      3  C   UNL     1      -0.753   2.723   0.816  0.00  0.00    +0.006 A 
ATOM      4  C   UNL     1      -1.628   3.159   1.793  0.00  0.00    +0.000 A 
ATOM      5  C   UNL     1      -2.528   2.275   2.360  0.00  0.00    +0.000 A 
ATOM      6  C   UNL     1      -2.555   0.957   1.946  0.00  0.00    +0.000 A 
ATOM      7  C   UNL     1      -1.683   0.521   0.966  0.00  0.00    +0.006 A 
ENDBRANCH   1   2
BRANCH   1   8
ATOM      8  C   UNL     1      -0.615   0.506  -1.886  0.00  0.00    +0.239 C 
ATOM      9  O   UNL     1      -0.430   1.059  -2.950  0.00  0.00    -0.273 OA
ATOM     10  N   UNL     1      -1.521  -0.487  -1.792  0.00  0.00    -0.311 N 
ATOM     11  H   UNL     1      -1.670  -0.929  -0.941  0.00  0.00    +0.149 HD
BRANCH  10  12
ATOM     12  C   UNL     1      -2.282  -0.899  -2.974  0.00  0.00    +0.073 C 
ATOM     13  C   UNL     1      -3.506   0.004  -3.133  0.00  0.00    +0.022 C 
ATOM     14  C   UNL     1      -4.301  -0.427  -4.368  0.00  0.00    +0.002 C 
ATOM     15  C   UNL     1      -4.756  -1.878  -4.201  0.00  0.00    +0.000 C 
ATOM     16  C   UNL     1      -3.531  -2.781  -4.042  0.00  0.00    +0.002 C 
ATOM     17  C   UNL     1      -2.737  -2.350  -2.807  0.00  0.00    +0.022 C 
ENDBRANCH  10  12
ENDBRANCH   1   8
BRANCH   1  18
ATOM     18  N   UNL     1       1.079   2.019  -1.031  0.00  0.00    -0.250 N 
ATOM     19  C   UNL     1       2.388   1.932  -0.722  0.00  0.00    +0.272 C 
ATOM     20  O   UNL     1       3.172   2.751  -1.162  0.00  0.00    -0.268 OA
BRANCH  18  25
ATOM     21  C   UNL     1      -0.901   6.599  -3.729  0.00  0.00    +0.044 C 
ATOM     22  C   UNL     1      -0.376   5.383  -3.012  0.00  0.00    -0.050 A 
ATOM     23  C   UNL     1       0.986   5.227  -2.825  0.00  0.00    +0.005 A 
ATOM     24  C   UNL     1       1.471   4.113  -2.168  0.00  0.00    +0.024 A 
ATOM     25  C   UNL     1       0.590   3.149  -1.696  0.00  0.00    +0.038 A 
ATOM     26  C   UNL     1      -0.776   3.306  -1.890  0.00  0.00    +0.024 A 
ATOM     27  C   UNL     1      -1.255   4.425  -2.542  0.00  0.00    +0.005 A 
ENDBRANCH  18  25
BRANCH  19  28
ATOM     28  C   UNL     1       2.869   0.844   0.148  0.00  0.00    +0.157 A 
ATOM     29  C   UNL     1       4.213   0.596   0.388  0.00  0.00    +0.101 A 
ATOM     30  S   UNL     1       4.112  -0.765   1.455  0.00  0.00    +0.029 S 
ATOM     31  N   UNL     1       2.544  -0.922   1.527  0.00  0.00    -0.110 NA
ATOM     32  N   UNL     1       2.060   0.007   0.787  0.00  0.00    -0.136 NA
ENDBRANCH  19  28
ENDBRANCH   1  18
TORSDOF 6
