REMARK  Name = ZINC13915021
REMARK  9 active torsions:
REMARK  status: ('A' for Active; 'I' for Inactive)
REMARK    1  A    between atoms: C_1  and  C_2
REMARK    2  A    between atoms: C_2  and  O_3
REMARK    3  A    between atoms: O_3  and  C_4
REMARK    4  A    between atoms: C_6  and  C_16
REMARK    5  A    between atoms: C_9  and  O_10
REMARK    6  A    between atoms: O_10  and  C_11
REMARK    7  A    between atoms: C_11  and  C_12
REMARK    8  A    between atoms: N_23  and  C_26
REMARK    9  A    between atoms: C_30  and  C_32
REMARK                            x       y       z     vdW  Elec       q    Type
REMARK                         _______ _______ _______ _____ _____    ______ ____
ROOT
ATOM      1  C   UNL     1       1.387   3.985  -1.210  0.00  0.00    +0.026 C 
ATOM      2  C   UNL     1       2.470   4.468  -0.499  0.00  0.00    +0.100 C 
ATOM      3  C   UNL     1       2.372   5.694   0.317  0.00  0.00    +0.257 C 
ATOM      4  O   UNL     1       1.330   6.317   0.386  0.00  0.00    -0.270 OA
ATOM      5  N   UNL     1       3.469   6.102   0.988  0.00  0.00    -0.235 N 
ATOM      6  C   UNL     1       4.626   5.428   0.916  0.00  0.00    +0.320 C 
ATOM      7  O   UNL     1       5.578   5.852   1.542  0.00  0.00    -0.251 OA
ATOM      8  N   UNL     1       4.789   4.312   0.193  0.00  0.00    -0.190 N 
ATOM      9  C   UNL     1       3.777   3.783  -0.526  0.00  0.00    +0.263 C 
ATOM     10  O   UNL     1       3.938   2.769  -1.179  0.00  0.00    -0.269 OA
ATOM     11  H   UNL     1       3.421   6.904   1.532  0.00  0.00    +0.159 HD
ENDROOT
BRANCH   1  14
ATOM     12  C   UNL     1       0.895   0.800  -3.119  0.00  0.00    +0.164 A 
ATOM     13  C   UNL     1       0.713   1.807  -2.193  0.00  0.00    +0.057 A 
ATOM     14  C   UNL     1       1.574   2.915  -2.189  0.00  0.00    -0.019 A 
ATOM     15  C   UNL     1       2.614   2.992  -3.127  0.00  0.00    +0.027 A 
ATOM     16  C   UNL     1       2.787   1.982  -4.046  0.00  0.00    +0.064 A 
ATOM     17  C   UNL     1       1.932   0.885  -4.048  0.00  0.00    +0.177 A 
ATOM     18 BR   UNL     1       4.189   2.087  -5.311  0.00  0.00    -0.046 Br
BRANCH  12  19
ATOM     19  O   UNL     1       0.062  -0.275  -3.125  0.00  0.00    -0.489 OA
BRANCH  19  21
ATOM     20  C   UNL     1      -1.805  -1.573  -2.308  0.00  0.00    +0.048 C 
ATOM     21  C   UNL     1      -0.978  -0.297  -2.146  0.00  0.00    +0.226 C 
ENDBRANCH  19  21
ENDBRANCH  12  19
BRANCH  17  22
ATOM     22  O   UNL     1       2.108  -0.108  -4.957  0.00  0.00    -0.478 OA
BRANCH  22  23
ATOM     23  C   UNL     1       1.417   0.022  -6.201  0.00  0.00    +0.324 C 
BRANCH  23  24
ATOM     24  C   UNL     1       1.731  -1.164  -7.076  0.00  0.00    +0.248 C 
ATOM     25  O   UNL     1       2.473  -2.035  -6.674  0.00  0.00    -0.272 OA
ATOM     26  N   UNL     1       1.187  -1.257  -8.306  0.00  0.00    -0.327 N 
ATOM     27  H   UNL     1       0.594  -0.561  -8.628  0.00  0.00    +0.145 HD
ATOM     28  H   UNL     1       1.389  -2.021  -8.869  0.00  0.00    +0.145 HD
ENDBRANCH  23  24
ENDBRANCH  22  23
ENDBRANCH  17  22
ENDBRANCH   1  14
BRANCH   8  29
ATOM     29  C   UNL     1       6.040   3.680   0.182  0.00  0.00    +0.046 A 
ATOM     30  C   UNL     1       6.320   2.677   1.100  0.00  0.00    +0.024 A 
ATOM     31  C   UNL     1       7.552   2.053   1.084  0.00  0.00    +0.002 A 
ATOM     32  C   UNL     1       8.509   2.433   0.161  0.00  0.00    +0.003 A 
ATOM     33  C   UNL     1       8.235   3.435  -0.751  0.00  0.00    -0.049 A 
ATOM     34  C   UNL     1       7.003   4.060  -0.743  0.00  0.00    +0.027 A 
ATOM     35  C   UNL     1       9.281   3.846  -1.755  0.00  0.00    +0.044 C 
ENDBRANCH   8  29
TORSDOF 7
