REMARK  Name = ZINC04505747
REMARK  7 active torsions:
REMARK  status: ('A' for Active; 'I' for Inactive)
REMARK    1  A    between atoms: C_1  and  C_2
REMARK    2  A    between atoms: C_5  and  C_29
REMARK    3  A    between atoms: C_6  and  N_8
REMARK    4  A    between atoms: N_8  and  N_9
REMARK    5  A    between atoms: C_11  and  C_28
REMARK    6  A    between atoms: C_18  and  C_21
REMARK    7  A    between atoms: C_26  and  O_27
REMARK                            x       y       z     vdW  Elec       q    Type
REMARK                         _______ _______ _______ _____ _____    ______ ____
ROOT
ATOM      1  N   UNL     1       0.047  -2.160   3.510  0.00  0.00    -0.175 NA
ATOM      2  C   UNL     1       0.060  -2.829   4.649  0.00  0.00    +0.168 C 
ATOM      3  C   UNL     1       0.053  -2.278   6.013  0.00  0.00    +0.089 C 
ATOM      4  N   UNL     1       0.071  -3.278   6.840  0.00  0.00    -0.173 NA
ATOM      5  N   UNL     1       0.091  -4.498   6.164  0.00  0.00    -0.130 N 
ATOM      6  C   UNL     1       0.079  -4.291   4.832  0.00  0.00    +0.294 C 
ATOM      7  O   UNL     1       0.086  -5.139   3.957  0.00  0.00    -0.266 OA
ATOM      8  C   UNL     1       0.113  -5.747   6.776  0.00  0.00    +0.189 A 
ATOM      9  N   UNL     1       0.115  -6.048   8.061  0.00  0.00    -0.223 NA
ATOM     10  C   UNL     1       0.137  -7.306   8.473  0.00  0.00    +0.084 A 
ATOM     11  C   UNL     1       0.160  -8.314   7.549  0.00  0.00    +0.077 A 
ATOM     12  S   UNL     1       0.140  -7.372   6.030  0.00  0.00    -0.058 S 
ATOM     13  C   UNL     1       0.029  -0.818   6.383  0.00  0.00    +0.070 C 
ENDROOT
BRANCH  10  14
ATOM     14  C   UNL     1       0.139  -7.620   9.923  0.00  0.00    +0.042 A 
ATOM     15  C   UNL     1       0.169  -8.944  10.352  0.00  0.00    +0.013 A 
ATOM     16  C   UNL     1       0.170  -9.231  11.703  0.00  0.00    +0.001 A 
ATOM     17  C   UNL     1       0.141  -8.206  12.632  0.00  0.00    +0.004 A 
ATOM     18  C   UNL     1       0.111  -6.888  12.216  0.00  0.00    +0.046 A 
ATOM     19  C   UNL     1       0.116  -6.586  10.864  0.00  0.00    +0.126 A 
BRANCH  19  20
ATOM     20  O   UNL     1       0.092  -5.291  10.454  0.00  0.00    -0.506 OA
ATOM     21  H   UNL     1      -0.798  -4.933  10.333  0.00  0.00    +0.292 HD
ENDBRANCH  19  20
ENDBRANCH  10  14
BRANCH   1  22
ATOM     22  N   UNL     1       0.050  -2.797   2.388  0.00  0.00    -0.237 N 
ATOM     23  H   UNL     1       0.062  -3.767   2.381  0.00  0.00    +0.174 HD
BRANCH  22  29
ATOM     24  C   UNL     1      -0.018   1.503   0.010  0.00  0.00    +0.044 C 
ATOM     25  C   UNL     1       0.002  -0.004   0.002  0.00  0.00    -0.049 A 
ATOM     26  C   UNL     1       0.006  -0.688  -1.200  0.00  0.00    +0.004 A 
ATOM     27  C   UNL     1       0.024  -2.071  -1.213  0.00  0.00    +0.005 A 
ATOM     28  C   UNL     1       0.039  -2.774  -0.024  0.00  0.00    -0.028 A 
ATOM     29  C   UNL     1       0.035  -2.090   1.186  0.00  0.00    +0.051 A 
ATOM     30  C   UNL     1       0.023  -0.700   1.194  0.00  0.00    +0.028 A 
ATOM     31  C   UNL     1       0.059  -4.281  -0.039  0.00  0.00    +0.046 C 
ENDBRANCH  22  29
ENDBRANCH   1  22
TORSDOF 4
