REMARK  Name = ZINC09184887
REMARK  11 active torsions:
REMARK  status: ('A' for Active; 'I' for Inactive)
REMARK    1  A    between atoms: C_1  and  C_2
REMARK    2  A    between atoms: C_3  and  C_32
REMARK    3  A    between atoms: C_8  and  C_22
REMARK    4  A    between atoms: C_10  and  C_15
REMARK    5  A    between atoms: C_15  and  C_17
REMARK    6  A    between atoms: C_26  and  O_30
REMARK    7  A    between atoms: C_27  and  O_28
REMARK    8  A    between atoms: O_28  and  C_29
REMARK    9  A    between atoms: O_30  and  C_31
REMARK   10  A    between atoms: C_32  and  O_34
REMARK   11  A    between atoms: O_34  and  C_35
REMARK                            x       y       z     vdW  Elec       q    Type
REMARK                         _______ _______ _______ _____ _____    ______ ____
ROOT
ATOM      1  C   UNL     1       6.777   3.713   2.945  0.00  0.00    +0.067 C 
ATOM      2  C   UNL     1       5.771   2.591   2.919  0.00  0.00    +0.062 A 
ATOM      3  C   UNL     1       5.003   2.290   4.036  0.00  0.00    +0.120 A 
ATOM      4  S   UNL     1       4.034   0.926   3.409  0.00  0.00    -0.045 S 
ATOM      5  C   UNL     1       4.711   0.881   1.811  0.00  0.00    +0.169 A 
ATOM      6  N   UNL     1       5.592   1.869   1.845  0.00  0.00    -0.229 NA
ATOM      7  N   UNL     1       4.404   0.032   0.766  0.00  0.00    -0.232 N 
ATOM      8  C   UNL     1       3.332  -0.971   0.753  0.00  0.00    +0.155 C 
ATOM      9  C   UNL     1       3.398  -1.639  -0.600  0.00  0.00    +0.077 C 
ATOM     10  C   UNL     1       4.416  -1.057  -1.274  0.00  0.00    +0.250 C 
ATOM     11  C   UNL     1       5.035  -0.023  -0.422  0.00  0.00    +0.293 C 
ATOM     12  O   UNL     1       5.975   0.675  -0.744  0.00  0.00    -0.266 OA
ATOM     13  O   UNL     1       4.807  -1.373  -2.531  0.00  0.00    -0.282 OA
ENDROOT
BRANCH   8  14
ATOM     14  C   UNL     1       1.994  -0.301   0.936  0.00  0.00    +0.023 A 
ATOM     15  C   UNL     1       1.268   0.106  -0.168  0.00  0.00    +0.009 A 
ATOM     16  C   UNL     1       0.041   0.721  -0.004  0.00  0.00    +0.004 A 
ATOM     17  C   UNL     1      -0.466   0.931   1.265  0.00  0.00    +0.049 A 
ATOM     18  C   UNL     1       0.256   0.526   2.375  0.00  0.00    +0.162 A 
ATOM     19  C   UNL     1       1.492  -0.093   2.210  0.00  0.00    +0.167 A 
BRANCH  19  20
ATOM     20  O   UNL     1       2.205  -0.493   3.297  0.00  0.00    -0.491 OA
ATOM     21  C   UNL     1       1.871  -1.763   3.861  0.00  0.00    +0.277 C 
ENDBRANCH  19  20
BRANCH  18  22
ATOM     22  O   UNL     1      -0.241   0.732   3.624  0.00  0.00    -0.491 OA
ATOM     23  C   UNL     1      -1.514   1.373   3.718  0.00  0.00    +0.277 C 
ENDBRANCH  18  22
ENDBRANCH   8  14
BRANCH   9  24
ATOM     24  C   UNL     1       2.525  -2.713  -1.090  0.00  0.00    +0.202 C 
ATOM     25  O   UNL     1       2.662  -3.141  -2.222  0.00  0.00    -0.286 OA
BRANCH  24  26
ATOM     26  C   UNL     1       1.489  -3.271  -0.216  0.00  0.00    +0.059 A 
ATOM     27  C   UNL     1       0.647  -4.353  -0.437  0.00  0.00    +0.019 A 
ATOM     28  C   UNL     1      -0.241  -4.665   0.560  0.00  0.00    +0.008 A 
ATOM     29  C   UNL     1      -0.257  -3.916   1.695  0.00  0.00    +0.046 A 
ATOM     30  S   UNL     1       0.986  -2.741   1.412  0.00  0.00    -0.093 S 
ENDBRANCH  24  26
ENDBRANCH   9  24
BRANCH   3  31
ATOM     31  C   UNL     1       4.987   2.918   5.356  0.00  0.00    +0.347 C 
ATOM     32  O   UNL     1       5.729   3.853   5.593  0.00  0.00    -0.244 OA
BRANCH  31  33
ATOM     33  O   UNL     1       4.150   2.462   6.310  0.00  0.00    -0.464 OA
ATOM     34  C   UNL     1       4.188   3.123   7.577  0.00  0.00    +0.280 C 
ENDBRANCH  31  33
ENDBRANCH   3  31
TORSDOF 7
