REMARK  Name = ZINC06882137
REMARK  6 active torsions:
REMARK  status: ('A' for Active; 'I' for Inactive)
REMARK    1  A    between atoms: C_1  and  C_2
REMARK    2  A    between atoms: C_8  and  C_9
REMARK    3  A    between atoms: C_8  and  N_58
REMARK    4  A    between atoms: N_11  and  C_12
REMARK    5  A    between atoms: C_15  and  S_18
REMARK    6  A    between atoms: S_18  and  N_21
REMARK                            x       y       z     vdW  Elec       q    Type
REMARK                         _______ _______ _______ _____ _____    ______ ____
ROOT
ATOM      1  C   UNL     1      -4.508   1.681  -1.593  0.00  0.00    +0.033 A 
ATOM      2  C   UNL     1      -4.860   1.024  -0.422  0.00  0.00    +0.025 A 
ATOM      3  C   UNL     1      -6.186   0.734  -0.166  0.00  0.00    +0.031 A 
ATOM      4  C   UNL     1      -7.161   1.088  -1.081  0.00  0.00    +0.113 A 
ATOM      5  C   UNL     1      -6.813   1.737  -2.251  0.00  0.00    +0.031 A 
ATOM      6  C   UNL     1      -5.489   2.035  -2.509  0.00  0.00    +0.025 A 
ENDROOT
BRANCH   1   9
ATOM      7  C   UNL     1      -2.842   3.118  -2.501  0.00  0.00    +0.201 C 
ATOM      8  O   UNL     1      -3.716   3.839  -2.933  0.00  0.00    -0.278 OA
ATOM      9  N   UNL     1      -3.166   1.981  -1.852  0.00  0.00    -0.287 N 
ATOM     10  H   UNL     1      -2.468   1.371  -1.565  0.00  0.00    +0.155 HD
BRANCH   7  11
ATOM     11  C   UNL     1      -1.395   3.492  -2.688  0.00  0.00    +0.019 C 
BRANCH  11  18
ATOM     12  C   UNL     1       1.544   6.593  -5.127  0.00  0.00    +0.005 C 
ATOM     13  C   UNL     1       0.102   6.292  -4.713  0.00  0.00    -0.031 C 
ATOM     14  C   UNL     1      -0.462   7.478  -3.925  0.00  0.00    -0.001 C 
ATOM     15  C   UNL     1      -1.883   7.145  -3.464  0.00  0.00    -0.018 C 
ATOM     16  C   UNL     1      -1.855   5.868  -2.620  0.00  0.00    -0.078 C 
ATOM     17  C   UNL     1       0.073   5.040  -3.833  0.00  0.00    -0.075 C 
ATOM     18  N   UNL     1      -1.326   4.760  -3.444  0.00  0.00    +0.386 N 
ATOM     19  H   UNL     1      -1.897   4.674  -4.293  0.00  0.00    -0.081 HD
ENDBRANCH  11  18
ENDBRANCH   7  11
ENDBRANCH   1   9
BRANCH   4  20
ATOM     20  S   UNL     1      -8.851   0.709  -0.754  0.00  0.00    +0.100 S 
ATOM     21  O   UNL     1      -8.975   0.587   0.656  0.00  0.00    -0.146 OA
ATOM     22  O   UNL     1      -9.626   1.629  -1.510  0.00  0.00    -0.146 OA
BRANCH  20  23
ATOM     23  N   UNL     1      -9.148  -0.792  -1.388  0.00  0.00    -0.118 NA
ATOM     24  C   UNL     1     -10.326  -1.315  -1.285  0.00  0.00    +0.117 C 
ATOM     25  C   UNL     1     -11.403  -0.611  -0.622  0.00  0.00    +0.073 C 
ATOM     26  C   UNL     1     -12.067  -1.448   0.482  0.00  0.00    +0.008 C 
ATOM     27  C   UNL     1     -12.986  -2.415  -0.210  0.00  0.00    +0.002 C 
ATOM     28  C   UNL     1     -12.337  -3.801  -0.449  0.00  0.00    +0.019 C 
ATOM     29  C   UNL     1     -10.869  -3.640  -0.878  0.00  0.00    +0.102 C 
ATOM     30  N   UNL     1     -10.605  -2.583  -1.818  0.00  0.00    -0.331 N 
ATOM     31  H   UNL     1     -10.620  -2.737  -2.776  0.00  0.00    +0.147 HD
ENDBRANCH  20  23
ENDBRANCH   4  20
TORSDOF 5
