REMARK  Name = ZINC20239510
REMARK  9 active torsions:
REMARK  status: ('A' for Active; 'I' for Inactive)
REMARK    1  A    between atoms: C_1  and  C_2
REMARK    2  A    between atoms: C_3  and  S_14
REMARK    3  A    between atoms: C_4  and  C_7
REMARK    4  A    between atoms: C_8  and  C_9
REMARK    5  A    between atoms: S_14  and  N_17
REMARK    6  A    between atoms: C_20  and  C_23
REMARK    7  A    between atoms: N_25  and  C_26
REMARK    8  A    between atoms: C_29  and  C_32
REMARK    9  A    between atoms: C_32  and  C_34
REMARK                            x       y       z     vdW  Elec       q    Type
REMARK                         _______ _______ _______ _____ _____    ______ ____
ROOT
ATOM      1  N   UNL     1      -5.586   1.414  -1.390  0.00  0.00    -0.176 NA
ATOM      2  C   UNL     1      -4.559   1.984  -2.273  0.00  0.00    +0.110 C 
ATOM      3  C   UNL     1      -5.083   3.291  -2.865  0.00  0.00    +0.030 C 
ATOM      4  C   UNL     1      -6.428   3.036  -3.548  0.00  0.00    +0.078 C 
ATOM      5  C   UNL     1      -7.439   2.533  -2.515  0.00  0.00    +0.030 C 
ATOM      6  C   UNL     1      -6.941   1.212  -1.920  0.00  0.00    +0.110 C 
ENDROOT
BRANCH   4   7
ATOM      7  C   UNL     1      -6.932   4.318  -4.161  0.00  0.00    +0.220 C 
ATOM      8  O   UNL     1      -7.994   4.783  -3.806  0.00  0.00    -0.275 OA
ATOM      9  N   UNL     1      -6.201   4.947  -5.102  0.00  0.00    -0.285 N 
ATOM     10  H   UNL     1      -5.200   4.574  -5.362  0.00  0.00    +0.155 HD
BRANCH   9  11
ATOM     11  C   UNL     1      -6.715   6.070  -5.747  0.00  0.00    +0.033 A 
ATOM     12  C   UNL     1      -5.861   7.099  -6.136  0.00  0.00    +0.024 A 
ATOM     13  C   UNL     1      -6.361   8.203  -6.775  0.00  0.00    +0.013 A 
ATOM     14  C   UNL     1      -7.735   8.302  -7.027  0.00  0.00    +0.017 A 
ATOM     15  C   UNL     1      -8.592   7.267  -6.629  0.00  0.00    +0.013 A 
ATOM     16  C   UNL     1      -8.082   6.164  -5.995  0.00  0.00    +0.024 A 
BRANCH  14  17
ATOM     17  C   UNL     1      -8.277   9.486  -7.706  0.00  0.00    +0.160 C 
ATOM     18  O   UNL     1      -9.467   9.569  -7.923  0.00  0.00    -0.292 OA
ATOM     19  C   UNL     1      -7.353  10.597  -8.133  0.00  0.00    +0.091 C 
ENDBRANCH  14  17
ENDBRANCH   9  11
ENDBRANCH   4   7
BRANCH   1  20
ATOM     20  S   UNL     1      -5.224   1.013   0.176  0.00  0.00    +0.066 S 
ATOM     21  O   UNL     1      -6.448   1.045   0.896  0.00  0.00    -0.153 OA
ATOM     22  O   UNL     1      -4.101   1.800   0.547  0.00  0.00    -0.153 OA
BRANCH  20  25
ATOM     23  C   UNL     1      -6.954  -1.892   0.530  0.00  0.00    +0.071 C 
ATOM     24  C   UNL     1      -5.462  -1.827   0.326  0.00  0.00    +0.107 A 
ATOM     25  C   UNL     1      -4.685  -0.664   0.172  0.00  0.00    +0.174 A 
ATOM     26  C   UNL     1      -3.396  -1.149   0.018  0.00  0.00    +0.187 A 
ATOM     27  O   UNL     1      -3.498  -2.491   0.082  0.00  0.00    -0.353 OA
ATOM     28  N   UNL     1      -4.642  -2.839   0.257  0.00  0.00    -0.081 NA
BRANCH  26  29
ATOM     29  C   UNL     1      -2.176  -0.365  -0.179  0.00  0.00    +0.054 C 
ATOM     30  C   UNL     1      -0.985  -0.991  -0.315  0.00  0.00    +0.050 C 
BRANCH  30  31
ATOM     31  C   UNL     1       0.234  -0.208  -0.512  0.00  0.00    +0.128 A 
ATOM     32  C   UNL     1       1.497  -0.710  -0.662  0.00  0.00    +0.049 A 
ATOM     33  C   UNL     1       2.353   0.392  -0.824  0.00  0.00    +0.042 A 
ATOM     34  C   UNL     1       1.588   1.503  -0.767  0.00  0.00    +0.195 A 
ATOM     35  O   UNL     1       0.310   1.137  -0.579  0.00  0.00    -0.464 OA
ENDBRANCH  30  31
ENDBRANCH  26  29
ENDBRANCH  20  25
ENDBRANCH   1  20
TORSDOF 7
