REMARK  Name = ZINC59392516
REMARK  7 active torsions:
REMARK  status: ('A' for Active; 'I' for Inactive)
REMARK    1  A    between atoms: C_4  and  N_7
REMARK    2  A    between atoms: C_17  and  S_18
REMARK    3  A    between atoms: S_18  and  C_19
REMARK    4  A    between atoms: C_22  and  C_24
REMARK    5  A    between atoms: N_25  and  N_26
REMARK    6  A    between atoms: N_26  and  C_27
REMARK    7  A    between atoms: C_27  and  N_29
REMARK                            x       y       z     vdW  Elec       q    Type
REMARK                         _______ _______ _______ _____ _____    ______ ____
ROOT
ATOM      1  N   UNL     1       3.618  -0.636   0.001  0.00  0.00    -0.255 N 
ATOM      2  C   UNL     1       3.635  -1.986   0.090  0.00  0.00    +0.267 A 
ATOM      3  O   UNL     1       2.605  -2.623   0.217  0.00  0.00    -0.267 OA
ATOM      4  C   UNL     1       4.942  -2.654   0.027  0.00  0.00    +0.065 A 
ATOM      5  C   UNL     1       5.065  -4.040   0.110  0.00  0.00    +0.015 A 
ATOM      6  C   UNL     1       6.306  -4.612   0.046  0.00  0.00    +0.001 A 
ATOM      7  C   UNL     1       7.442  -3.826  -0.100  0.00  0.00    +0.002 A 
ATOM      8  C   UNL     1       7.350  -2.466  -0.183  0.00  0.00    +0.028 A 
ATOM      9  C   UNL     1       6.096  -1.851  -0.122  0.00  0.00    +0.079 A 
ATOM     10  N   UNL     1       5.960  -0.513  -0.201  0.00  0.00    -0.222 NA
ATOM     11  C   UNL     1       4.785   0.063  -0.148  0.00  0.00    +0.184 A 
ENDROOT
BRANCH   1  15
ATOM     12  C   UNL     1      -0.012   1.405   0.161  0.00  0.00    +0.000 A 
ATOM     13  C   UNL     1       0.499   1.000  -1.059  0.00  0.00    +0.002 A 
ATOM     14  C   UNL     1       1.702   0.324  -1.115  0.00  0.00    +0.026 A 
ATOM     15  C   UNL     1       2.398   0.050   0.054  0.00  0.00    +0.052 A 
ATOM     16  C   UNL     1       1.882   0.457   1.278  0.00  0.00    +0.026 A 
ATOM     17  C   UNL     1       0.679   1.133   1.327  0.00  0.00    +0.002 A 
ENDBRANCH   1  15
BRANCH  11  18
ATOM     18  S   UNL     1       4.703   1.819  -0.266  0.00  0.00    -0.014 S 
BRANCH  18  19
ATOM     19  C   UNL     1       6.375   2.306  -0.538  0.00  0.00    +0.169 A 
ATOM     20  C   UNL     1       6.945   2.539  -1.750  0.00  0.00    +0.057 A 
ATOM     21  C   UNL     1       8.281   2.901  -1.513  0.00  0.00    +0.052 A 
ATOM     22  C   UNL     1       8.465   2.873  -0.159  0.00  0.00    +0.149 A 
ATOM     23  O   UNL     1       7.296   2.516   0.417  0.00  0.00    -0.447 OA
BRANCH  22  24
ATOM     24  C   UNL     1       9.710   3.182   0.545  0.00  0.00    +0.176 C 
ATOM     25  N   UNL     1       9.731   3.215   1.846  0.00  0.00    -0.185 NA
BRANCH  25  26
ATOM     26  N   UNL     1      10.894   3.614   2.518  0.00  0.00    -0.218 N 
ATOM     27  H   UNL     1      11.659   3.936   2.015  0.00  0.00    +0.176 HD
BRANCH  26  28
ATOM     28  C   UNL     1      10.950   3.551   3.863  0.00  0.00    +0.147 C 
ATOM     29  S   UNL     1      12.321   4.156   4.692  0.00  0.00    -0.017 S 
BRANCH  28  30
ATOM     30  N   UNL     1       9.928   3.012   4.556  0.00  0.00    -0.339 N 
ATOM     31  H   UNL     1       9.185   2.602   4.085  0.00  0.00    +0.144 HD
ATOM     32  H   UNL     1       9.934   3.033   5.526  0.00  0.00    +0.144 HD
ENDBRANCH  28  30
ENDBRANCH  26  28
ENDBRANCH  25  26
ENDBRANCH  22  24
ENDBRANCH  18  19
ENDBRANCH  11  18
TORSDOF 7
