REMARK  Name = ZINC21882732
REMARK  14 active torsions:
REMARK  status: ('A' for Active; 'I' for Inactive)
REMARK    1  A    between atoms: C_1  and  C_2
REMARK    2  A    between atoms: C_2  and  C_3
REMARK    3  A    between atoms: N_5  and  C_6
REMARK    4  A    between atoms: C_9  and  C_36
REMARK    5  A    between atoms: C_11  and  C_12
REMARK    6  A    between atoms: C_16  and  S_19
REMARK    7  A    between atoms: S_19  and  C_20
REMARK    8  A    between atoms: C_20  and  C_22
REMARK    9  A    between atoms: C_20  and  C_23
REMARK   10  A    between atoms: N_25  and  C_26
REMARK   11  A    between atoms: C_28  and  O_34
REMARK   12  A    between atoms: C_30  and  O_32
REMARK   13  A    between atoms: O_32  and  C_33
REMARK   14  A    between atoms: O_34  and  C_35
REMARK                            x       y       z     vdW  Elec       q    Type
REMARK                         _______ _______ _______ _____ _____    ______ ____
ROOT
ATOM      1  C   UNL     1      -2.557   0.512  -0.053  0.00  0.00    +0.161 A 
ATOM      2  C   UNL     1      -2.678  -0.947   0.027  0.00  0.00    +0.300 A 
ATOM      3  O   UNL     1      -1.692  -1.660   0.094  0.00  0.00    -0.263 OA
ATOM      4  N   UNL     1      -3.926  -1.473   0.025  0.00  0.00    -0.180 NA
ATOM      5  C   UNL     1      -4.990  -0.624  -0.052  0.00  0.00    +0.213 A 
ATOM      6  N   UNL     1      -4.821   0.683  -0.123  0.00  0.00    -0.122 NA
ATOM      7  N   UNL     1      -3.662   1.237  -0.119  0.00  0.00    -0.141 NA
ENDROOT
BRANCH   1  13
ATOM      8  C   UNL     1      -0.348   0.961  -1.128  0.00  0.00    +0.043 A 
ATOM      9  C   UNL     1       0.898   1.570  -1.118  0.00  0.00    +0.024 A 
ATOM     10  C   UNL     1       1.267   2.374  -0.057  0.00  0.00    +0.005 A 
ATOM     11  C   UNL     1       0.398   2.578   1.001  0.00  0.00    -0.050 A 
ATOM     12  C   UNL     1      -0.845   1.980   1.006  0.00  0.00    +0.015 A 
ATOM     13  C   UNL     1      -1.227   1.161  -0.056  0.00  0.00    +0.029 A 
ATOM     14  C   UNL     1       0.812   3.458   2.153  0.00  0.00    +0.044 C 
BRANCH   8  17
ATOM     15  C   UNL     1       0.220  -0.449  -2.956  0.00  0.00    +0.217 C 
ATOM     16  O   UNL     1       1.390  -0.356  -2.650  0.00  0.00    -0.275 OA
ATOM     17  N   UNL     1      -0.723   0.148  -2.201  0.00  0.00    -0.285 N 
ATOM     18  H   UNL     1      -1.789  -0.005  -2.429  0.00  0.00    +0.155 HD
BRANCH  15  20
ATOM     19  C   UNL     1       1.072  -1.801  -4.853  0.00  0.00    +0.013 C 
ATOM     20  C   UNL     1      -0.179  -1.231  -4.181  0.00  0.00    +0.093 C 
ENDBRANCH  15  20
ENDBRANCH   8  17
ENDBRANCH   1  13
BRANCH   5  21
ATOM     21  S   UNL     1      -6.624  -1.285  -0.057  0.00  0.00    -0.072 S 
BRANCH  21  22
ATOM     22  C   UNL     1      -7.582   0.246  -0.170  0.00  0.00    +0.137 C 
ATOM     23  C   UNL     1      -7.301   0.926  -1.512  0.00  0.00    +0.029 C 
BRANCH  22  24
ATOM     24  C   UNL     1      -9.052  -0.072  -0.066  0.00  0.00    +0.230 C 
ATOM     25  O   UNL     1      -9.446  -1.196  -0.292  0.00  0.00    -0.274 OA
ATOM     26  N   UNL     1      -9.927   0.893   0.277  0.00  0.00    -0.284 N 
ATOM     27  H   UNL     1      -9.582   1.930   0.401  0.00  0.00    +0.155 HD
BRANCH  26  28
ATOM     28  C   UNL     1     -11.275   0.576   0.477  0.00  0.00    +0.040 A 
ATOM     29  C   UNL     1     -12.252   1.543   0.285  0.00  0.00    +0.069 A 
ATOM     30  C   UNL     1     -13.588   1.226   0.477  0.00  0.00    +0.125 A 
ATOM     31  C   UNL     1     -13.948  -0.053   0.873  0.00  0.00    +0.091 A 
ATOM     32  C   UNL     1     -12.972  -1.018   1.071  0.00  0.00    +0.125 A 
ATOM     33  C   UNL     1     -11.636  -0.705   0.874  0.00  0.00    +0.069 A 
BRANCH  32  34
ATOM     34  O   UNL     1     -13.325  -2.272   1.459  0.00  0.00    -0.495 OA
ATOM     35  C   UNL     1     -14.719  -2.526   1.644  0.00  0.00    +0.277 C 
ENDBRANCH  32  34
BRANCH  30  36
ATOM     36  O   UNL     1     -14.545   2.171   0.283  0.00  0.00    -0.495 OA
ATOM     37  C   UNL     1     -15.901   1.777   0.505  0.00  0.00    +0.277 C 
ENDBRANCH  30  36
ENDBRANCH  26  28
ENDBRANCH  22  24
ENDBRANCH  21  22
ENDBRANCH   5  21
TORSDOF 9
