REMARK  Name = ZINC33934500
REMARK  7 active torsions:
REMARK  status: ('A' for Active; 'I' for Inactive)
REMARK    1  A    between atoms: C_1  and  C_2
REMARK    2  A    between atoms: N_8  and  C_9
REMARK    3  A    between atoms: C_9  and  C_10
REMARK    4  A    between atoms: C_11  and  C_21
REMARK    5  A    between atoms: N_23  and  N_24
REMARK    6  A    between atoms: C_25  and  C_26
REMARK    7  A    between atoms: C_31  and  N_32
REMARK                            x       y       z     vdW  Elec       q    Type
REMARK                         _______ _______ _______ _____ _____    ______ ____
ROOT
ATOM      1  C   UNL     1       0.209  -1.271   3.648  0.00  0.00    +0.063 A 
ATOM      2  C   UNL     1       0.618  -0.423   4.637  0.00  0.00    +0.170 A 
ATOM      3  N   UNL     1       0.999  -1.157   5.697  0.00  0.00    -0.124 NA
ATOM      4  N   UNL     1       0.854  -2.408   5.431  0.00  0.00    -0.058 NA
ATOM      5  N   UNL     1       0.344  -2.527   4.129  0.00  0.00    -0.194 N 
ATOM      6  C   UNL     1       0.038  -3.716   3.458  0.00  0.00    +0.240 A 
ATOM      7  C   UNL     1       0.186  -5.069   4.000  0.00  0.00    +0.206 A 
ATOM      8  N   UNL     1      -0.197  -5.921   3.089  0.00  0.00    -0.032 NA
ATOM      9  O   UNL     1      -0.599  -5.183   1.948  0.00  0.00    -0.239 OA
ATOM     10  N   UNL     1      -0.432  -3.808   2.247  0.00  0.00    -0.027 NA
ATOM     11  N   UNL     1       0.656  -5.392   5.269  0.00  0.00    -0.337 N 
ATOM     12  H   UNL     1       0.920  -4.687   5.881  0.00  0.00    +0.144 HD
ATOM     13  H   UNL     1       0.720  -6.320   5.541  0.00  0.00    +0.144 HD
ENDROOT
BRANCH   2  14
ATOM     14  C   UNL     1       0.638   1.050   4.557  0.00  0.00    +0.285 C 
ATOM     15  O   UNL     1       0.356   1.605   3.512  0.00  0.00    -0.267 OA
ATOM     16  N   UNL     1       0.969   1.780   5.640  0.00  0.00    -0.202 N 
ATOM     17  H   UNL     1       1.264   1.337   6.452  0.00  0.00    +0.178 HD
BRANCH  16  18
ATOM     18  N   UNL     1       0.887   3.177   5.595  0.00  0.00    -0.187 NA
ATOM     19  C   UNL     1       1.310   3.885   6.597  0.00  0.00    +0.140 C 
BRANCH  19  20
ATOM     20  C   UNL     1       2.062   3.240   7.690  0.00  0.00    +0.025 A 
ATOM     21  C   UNL     1       2.824   2.096   7.438  0.00  0.00    +0.012 A 
ATOM     22  C   UNL     1       3.524   1.499   8.465  0.00  0.00    +0.001 A 
ATOM     23  C   UNL     1       3.473   2.029   9.742  0.00  0.00    +0.002 A 
ATOM     24  C   UNL     1       2.721   3.161   9.999  0.00  0.00    +0.033 A 
ATOM     25  C   UNL     1       2.019   3.773   8.981  0.00  0.00    +0.135 A 
BRANCH  25  26
ATOM     26  N   UNL     1       1.219   4.988   9.256  0.00  0.00    +0.057 N 
ATOM     27  O   UNL     1       1.269   5.510  10.345  0.00  0.00    -0.126 OA
ATOM     28  O   UNL     1       0.517   5.457   8.391  0.00  0.00    -0.126 OA
ENDBRANCH  25  26
ENDBRANCH  19  20
ENDBRANCH  16  18
ENDBRANCH   2  14
BRANCH   1  29
ATOM     29  C   UNL     1      -0.300  -0.882   2.284  0.00  0.00    -0.019 C 
BRANCH  29  36
ATOM     30  C   UNL     1      -1.508   1.090   0.691  0.00  0.00    -0.013 C 
ATOM     31  C   UNL     1      -2.237  -0.209   1.042  0.00  0.00    -0.071 C 
ATOM     32  C   UNL     1      -3.742   0.055   1.118  0.00  0.00    -0.016 C 
ATOM     33  C   UNL     1      -4.467  -1.247   1.469  0.00  0.00    -0.003 C 
ATOM     34  C   UNL     1      -3.906  -1.793   2.785  0.00  0.00    -0.019 C 
ATOM     35  C   UNL     1      -2.394  -1.989   2.647  0.00  0.00    -0.078 C 
ATOM     36  N   UNL     1      -1.757  -0.704   2.338  0.00  0.00    +0.385 N 
ATOM     37  H   UNL     1      -1.986  -0.034   3.058  0.00  0.00    -0.081 HD
ENDBRANCH  29  36
ENDBRANCH   1  29
TORSDOF 6
