REMARK  Name = ZINC32096891
REMARK  3 active torsions:
REMARK  status: ('A' for Active; 'I' for Inactive)
REMARK    1  A    between atoms: C_9  and  S_14
REMARK    2  A    between atoms: S_14  and  C_15
REMARK    3  A    between atoms: C_19  and  N_21
REMARK                            x       y       z     vdW  Elec       q    Type
REMARK                         _______ _______ _______ _____ _____    ______ ____
ROOT
ATOM      1  C   UNL     1      -0.017   1.371   0.010  0.00  0.00    +0.000 A 
ATOM      2  C   UNL     1       1.179   2.068   0.002  0.00  0.00    +0.002 A 
ATOM      3  C   UNL     1       2.365   1.376  -0.017  0.00  0.00    +0.023 A 
ATOM      4  C   UNL     1       2.396  -0.029  -0.024  0.00  0.00    +0.037 A 
ATOM      5  C   UNL     1       1.202  -0.717  -0.011  0.00  0.00    -0.026 A 
ATOM      6  C   UNL     1       0.002  -0.004   0.002  0.00  0.00    +0.005 A 
ATOM      7  C   UNL     1       1.065  -2.205  -0.003  0.00  0.00    +0.038 C 
ATOM      8  C   UNL     1       2.104  -2.950   0.776  0.00  0.00    +0.028 C 
ATOM      9  C   UNL     1       3.426  -3.066   0.057  0.00  0.00    +0.141 C 
ATOM     10  C   UNL     1       4.164  -1.776   0.040  0.00  0.00    +0.231 C 
ATOM     11  O   UNL     1       5.372  -1.843   0.129  0.00  0.00    -0.274 OA
ATOM     12  N   UNL     1       3.656  -0.580  -0.060  0.00  0.00    -0.284 N 
ATOM     13  H   UNL     1       4.340   0.093  -0.196  0.00  0.00    +0.155 HD
ENDROOT
BRANCH   9  14
ATOM     14  S   UNL     1       4.444  -4.314   0.892  0.00  0.00    -0.073 S 
BRANCH  14  15
ATOM     15  C   UNL     1       5.875  -4.449  -0.128  0.00  0.00    +0.192 A 
ATOM     16  N   UNL     1       5.966  -3.695  -1.214  0.00  0.00    -0.207 NA
ATOM     17  C   UNL     1       7.032  -3.770  -2.007  0.00  0.00    +0.122 A 
ATOM     18  C   UNL     1       8.058  -4.653  -1.683  0.00  0.00    +0.086 A 
ATOM     19  C   UNL     1       7.926  -5.428  -0.534  0.00  0.00    +0.122 A 
ATOM     20  N   UNL     1       6.834  -5.297   0.214  0.00  0.00    -0.207 NA
ATOM     21  N   UNL     1       7.120  -2.978  -3.142  0.00  0.00    -0.343 N 
ATOM     22  H   UNL     1       6.402  -2.365  -3.362  0.00  0.00    +0.144 HD
ATOM     23  H   UNL     1       7.900  -3.038  -3.716  0.00  0.00    +0.144 HD
BRANCH  19  24
ATOM     24  N   UNL     1       8.922  -6.322  -0.172  0.00  0.00    -0.343 N 
ATOM     25  H   UNL     1       9.718  -6.410  -0.721  0.00  0.00    +0.144 HD
ATOM     26  H   UNL     1       8.824  -6.859   0.629  0.00  0.00    +0.144 HD
ENDBRANCH  19  24
ENDBRANCH  14  15
ENDBRANCH   9  14
TORSDOF 3
