REMARK  Name = ZINC01032764
REMARK  7 active torsions:
REMARK  status: ('A' for Active; 'I' for Inactive)
REMARK    1  A    between atoms: C_1  and  C_2
REMARK    2  A    between atoms: C_3  and  C_34
REMARK    3  A    between atoms: C_4  and  C_22
REMARK    4  A    between atoms: C_10  and  C_15
REMARK    5  A    between atoms: C_27  and  C_28
REMARK    6  A    between atoms: C_34  and  O_36
REMARK    7  A    between atoms: O_36  and  C_37
REMARK                            x       y       z     vdW  Elec       q    Type
REMARK                         _______ _______ _______ _____ _____    ______ ____
ROOT
ATOM      1  C   UNL     1       4.967   3.120   2.759  0.00  0.00    +0.061 C 
ATOM      2  C   UNL     1       4.506   2.589   1.426  0.00  0.00    +0.016 C 
ATOM      3  C   UNL     1       4.053   1.327   1.331  0.00  0.00    +0.065 C 
ATOM      4  C   UNL     1       3.578   0.767   0.022  0.00  0.00    +0.096 C 
ATOM      5  C   UNL     1       4.075   1.598  -1.134  0.00  0.00    +0.024 C 
ATOM      6  C   UNL     1       4.531   2.853  -0.936  0.00  0.00    +0.016 C 
ATOM      7  N   UNL     1       4.551   3.394   0.322  0.00  0.00    -0.321 N 
ATOM      8  C   UNL     1       5.032   3.690  -2.087  0.00  0.00    +0.059 C 
ATOM      9  C   UNL     1       4.287   3.303  -3.366  0.00  0.00    +0.032 C 
ATOM     10  C   UNL     1       4.507   1.809  -3.624  0.00  0.00    +0.088 C 
ATOM     11  C   UNL     1       4.047   1.032  -2.421  0.00  0.00    +0.162 C 
ATOM     12  O   UNL     1       3.644  -0.106  -2.563  0.00  0.00    -0.292 OA
ATOM     13  H   UNL     1       4.605   4.486   0.439  0.00  0.00    +0.152 HD
ENDROOT
BRANCH   9  14
ATOM     14  C   UNL     1       4.823   4.101  -4.526  0.00  0.00    -0.043 A 
ATOM     15  C   UNL     1       6.163   4.021  -4.859  0.00  0.00    +0.007 A 
ATOM     16  C   UNL     1       6.655   4.749  -5.926  0.00  0.00    +0.038 A 
ATOM     17  C   UNL     1       5.808   5.567  -6.654  0.00  0.00    +0.123 A 
ATOM     18  C   UNL     1       4.468   5.652  -6.316  0.00  0.00    +0.038 A 
ATOM     19  C   UNL     1       3.977   4.918  -5.252  0.00  0.00    +0.007 A 
ATOM     20  F   UNL     1       6.290   6.284  -7.693  0.00  0.00    -0.205 F 
ENDBRANCH   9  14
BRANCH   4  21
ATOM     21  C   UNL     1       2.071   0.750   0.008  0.00  0.00    +0.010 A 
ATOM     22  C   UNL     1       1.264   1.831  -0.064  0.00  0.00    +0.110 A 
ATOM     23  N   UNL     1      -0.015   1.398  -0.050  0.00  0.00    -0.284 N 
ATOM     24  H   UNL     1      -0.841   2.122  -0.101  0.00  0.00    +0.188 HD
ATOM     25  N   UNL     1      -0.001   0.000   0.033  0.00  0.00    -0.174 NA
ATOM     26  C   UNL     1       1.254  -0.395   0.068  0.00  0.00    +0.097 A 
BRANCH  26  27
ATOM     27  C   UNL     1       1.725  -1.800   0.156  0.00  0.00    +0.002 A 
ATOM     28  C   UNL     1       2.814  -2.221  -0.604  0.00  0.00    +0.010 A 
ATOM     29  C   UNL     1       3.252  -3.527  -0.514  0.00  0.00    +0.001 A 
ATOM     30  C   UNL     1       2.604  -4.420   0.320  0.00  0.00    +0.000 A 
ATOM     31  C   UNL     1       1.518  -4.009   1.072  0.00  0.00    +0.001 A 
ATOM     32  C   UNL     1       1.076  -2.704   0.994  0.00  0.00    +0.010 A 
ENDBRANCH  26  27
ENDBRANCH   4  21
BRANCH   3  33
ATOM     33  C   UNL     1       4.022   0.511   2.486  0.00  0.00    +0.337 C 
ATOM     34  O   UNL     1       4.404   0.954   3.553  0.00  0.00    -0.245 OA
BRANCH  33  35
ATOM     35  O   UNL     1       3.570  -0.757   2.405  0.00  0.00    -0.465 OA
ATOM     36  C   UNL     1       3.567  -1.524   3.611  0.00  0.00    +0.280 C 
ENDBRANCH  33  35
ENDBRANCH   3  33
TORSDOF 5
