REMARK  Name = ZINC14129405
REMARK  6 active torsions:
REMARK  status: ('A' for Active; 'I' for Inactive)
REMARK    1  A    between atoms: C_1  and  C_2
REMARK    2  A    between atoms: C_4  and  C_25
REMARK    3  A    between atoms: C_6  and  S_8
REMARK    4  A    between atoms: S_8  and  C_9
REMARK    5  A    between atoms: C_9  and  C_10
REMARK    6  A    between atoms: N_12  and  C_13
REMARK                            x       y       z     vdW  Elec       q    Type
REMARK                         _______ _______ _______ _____ _____    ______ ____
ROOT
ATOM      1  C   UNL     1       1.955   7.338   0.019  0.00  0.00    +0.227 C 
ATOM      2  O   UNL     1       1.012   8.101   0.023  0.00  0.00    -0.275 OA
ATOM      3  N   UNL     1       3.213   7.820   0.012  0.00  0.00    -0.285 N 
ATOM      4  H   UNL     1       3.966   7.212   0.076  0.00  0.00    +0.155 HD
ENDROOT
BRANCH   3   5
ATOM      5  C   UNL     1       3.433   9.200  -0.089  0.00  0.00    +0.035 A 
ATOM      6  C   UNL     1       4.535   9.677  -0.790  0.00  0.00    +0.025 A 
ATOM      7  C   UNL     1       4.755  11.035  -0.897  0.00  0.00    +0.029 A 
ATOM      8  C   UNL     1       3.881  11.928  -0.295  0.00  0.00    +0.067 A 
ATOM      9  C   UNL     1       2.776  11.451   0.414  0.00  0.00    +0.069 A 
ATOM     10  C   UNL     1       2.555  10.087   0.515  0.00  0.00    +0.051 A 
ATOM     11  N   UNL     1       2.096  12.567   0.896  0.00  0.00    -0.306 N 
ATOM     12  H   UNL     1       1.284  12.551   1.427  0.00  0.00    +0.170 HD
ATOM     13  C   UNL     1       2.755  13.672   0.499  0.00  0.00    +0.325 A 
ATOM     14  O   UNL     1       2.424  14.815   0.753  0.00  0.00    -0.247 OA
ATOM     15  N   UNL     1       3.837  13.320  -0.222  0.00  0.00    -0.306 N 
ATOM     16  H   UNL     1       4.476  13.930  -0.621  0.00  0.00    +0.170 HD
ENDBRANCH   3   5
BRANCH   1  17
ATOM     17  C   UNL     1       1.718   5.849   0.022  0.00  0.00    +0.173 C 
BRANCH  17  18
ATOM     18  S   UNL     1      -0.061   5.521   0.032  0.00  0.00    -0.077 S 
BRANCH  18  24
ATOM     19  C   UNL     1       2.497   1.090   0.026  0.00  0.00    +0.066 C 
ATOM     20  C   UNL     1       1.168   1.800   0.032  0.00  0.00    +0.043 A 
ATOM     21  C   UNL     1      -0.011   1.075   0.039  0.00  0.00    +0.051 A 
ATOM     22  C   UNL     1      -1.222   1.774   0.039  0.00  0.00    +0.076 A 
ATOM     23  N   UNL     1      -1.199   3.104   0.041  0.00  0.00    -0.222 NA
ATOM     24  C   UNL     1      -0.048   3.759   0.035  0.00  0.00    +0.189 A 
ATOM     25  N   UNL     1       1.115   3.122   0.030  0.00  0.00    -0.227 NA
BRANCH  22  26
ATOM     26  C   UNL     1      -2.512   1.043   0.041  0.00  0.00    +0.000 A 
ATOM     27  C   UNL     1      -2.527  -0.351   0.037  0.00  0.00    +0.010 A 
ATOM     28  C   UNL     1      -3.731  -1.025   0.044  0.00  0.00    +0.001 A 
ATOM     29  C   UNL     1      -4.922  -0.321   0.044  0.00  0.00    +0.000 A 
ATOM     30  C   UNL     1      -4.913   1.062   0.042  0.00  0.00    +0.001 A 
ATOM     31  C   UNL     1      -3.715   1.748   0.040  0.00  0.00    +0.010 A 
ENDBRANCH  22  26
ENDBRANCH  18  24
ENDBRANCH  17  18
ENDBRANCH   1  17
TORSDOF 5
