REMARK  Name = ZINC15989267
REMARK  10 active torsions:
REMARK  status: ('A' for Active; 'I' for Inactive)
REMARK    1  A    between atoms: C_1  and  C_2
REMARK    2  A    between atoms: C_2  and  C_3
REMARK    3  A    between atoms: C_3  and  C_4
REMARK    4  A    between atoms: C_4  and  C_5
REMARK    5  A    between atoms: C_5  and  O_6
REMARK    6  A    between atoms: O_6  and  C_7
REMARK    7  A    between atoms: C_7  and  C_9
REMARK    8  A    between atoms: N_20  and  C_22
REMARK    9  A    between atoms: C_25  and  C_28
REMARK   10  A    between atoms: C_28  and  C_29
REMARK                            x       y       z     vdW  Elec       q    Type
REMARK                         _______ _______ _______ _____ _____    ______ ____
ROOT
ATOM      1  C   UNL     1      -3.401   4.950  -7.615  0.00  0.00    +0.145 C 
ATOM      2  C   UNL     1      -3.890   3.781  -8.555  0.00  0.00    +0.157 C 
ATOM      3  C   UNL     1      -2.653   2.877  -8.616  0.00  0.00    +0.004 C 
ATOM      4  C   UNL     1      -2.567   2.327  -7.435  0.00  0.00    +0.008 C 
ATOM      5  C   UNL     1      -3.784   2.811  -6.669  0.00  0.00    +0.116 C 
ATOM      6  C   UNL     1      -3.551   4.319  -6.254  0.00  0.00    +0.129 C 
ATOM      7  C   UNL     1      -2.502   4.152  -5.232  0.00  0.00    +0.227 C 
ATOM      8  O   UNL     1      -1.589   4.917  -5.003  0.00  0.00    -0.275 OA
ATOM      9  N   UNL     1      -2.755   2.964  -4.589  0.00  0.00    -0.268 N 
ATOM     10  C   UNL     1      -3.861   2.239  -5.290  0.00  0.00    +0.153 C 
ATOM     11  O   UNL     1      -4.777   3.002  -7.649  0.00  0.00    -0.359 OA
ENDROOT
BRANCH   9  12
ATOM     12  C   UNL     1      -2.079   2.501  -3.455  0.00  0.00    +0.036 A 
ATOM     13  C   UNL     1      -1.062   3.261  -2.892  0.00  0.00    +0.024 A 
ATOM     14  C   UNL     1      -0.397   2.801  -1.773  0.00  0.00    +0.005 A 
ATOM     15  C   UNL     1      -0.742   1.585  -1.213  0.00  0.00    -0.048 A 
ATOM     16  C   UNL     1      -1.750   0.823  -1.774  0.00  0.00    +0.005 A 
ATOM     17  C   UNL     1      -2.423   1.280  -2.890  0.00  0.00    +0.024 A 
BRANCH  15  18
ATOM     18  C   UNL     1      -0.013   1.086   0.008  0.00  0.00    +0.032 C 
ATOM     19  C   UNL     1      -0.729   1.579   1.267  0.00  0.00    +0.009 C 
ENDBRANCH  15  18
ENDBRANCH   9  12
BRANCH   1  20
ATOM     20  C   UNL     1      -1.963   5.303  -7.892  0.00  0.00    +0.314 C 
ATOM     21  O   UNL     1      -1.113   5.070  -7.065  0.00  0.00    -0.250 OA
BRANCH  20  22
ATOM     22  O   UNL     1      -1.625   5.876  -9.058  0.00  0.00    -0.464 OA
BRANCH  22  23
ATOM     23  C   UNL     1      -0.221   6.189  -9.257  0.00  0.00    +0.232 C 
BRANCH  23  24
ATOM     24  C   UNL     1      -0.031   6.832 -10.632  0.00  0.00    +0.041 C 
BRANCH  24  25
ATOM     25  C   UNL     1       1.448   7.161 -10.841  0.00  0.00    +0.003 C 
BRANCH  25  27
ATOM     26  C   UNL     1       3.117   8.133 -12.426  0.00  0.00    +0.004 C 
ATOM     27  C   UNL     1       1.638   7.804 -12.217  0.00  0.00    -0.003 C 
ENDBRANCH  25  27
ENDBRANCH  24  25
ENDBRANCH  23  24
ENDBRANCH  22  23
ENDBRANCH  20  22
ENDBRANCH   1  20
TORSDOF 8
