REMARK  Name = ZINC01209071
REMARK  5 active torsions:
REMARK  status: ('A' for Active; 'I' for Inactive)
REMARK    1  A    between atoms: C_3  and  C_8
REMARK    2  A    between atoms: C_5  and  O_7
REMARK    3  A    between atoms: C_11  and  C_21
REMARK    4  A    between atoms: C_11  and  O_25
REMARK    5  A    between atoms: C_13  and  C_15
REMARK                            x       y       z     vdW  Elec       q    Type
REMARK                         _______ _______ _______ _____ _____    ______ ____
ROOT
ATOM      1  C   UNL     1      -2.502   1.004   0.019  0.00  0.00    +0.269 C 
ATOM      2  O   UNL     1      -3.559   1.596   0.130  0.00  0.00    -0.268 OA
ATOM      3  N   UNL     1      -2.490  -0.339  -0.090  0.00  0.00    -0.148 N 
ATOM      4  C   UNL     1      -3.678  -1.202  -0.200  0.00  0.00    +0.257 C 
ATOM      5  C   UNL     1      -3.077  -2.619  -0.299  0.00  0.00    +0.119 C 
ATOM      6  C   UNL     1      -1.586  -2.385  -0.222  0.00  0.00    +0.045 C 
ATOM      7  N   UNL     1      -1.351  -1.142  -0.111  0.00  0.00    -0.183 NA
ENDROOT
BRANCH   1  10
ATOM      8  C   UNL     1      -0.056   3.856  -0.004  0.00  0.00    +0.004 A 
ATOM      9  C   UNL     1      -1.245   3.154   0.003  0.00  0.00    +0.013 A 
ATOM     10  C   UNL     1      -1.231   1.759   0.005  0.00  0.00    +0.042 A 
ATOM     11  C   UNL     1      -0.013   1.078  -0.013  0.00  0.00    +0.058 A 
ATOM     12  C   UNL     1       1.173   1.791  -0.021  0.00  0.00    +0.118 A 
ATOM     13  C   UNL     1       1.150   3.180  -0.017  0.00  0.00    +0.045 A 
BRANCH  12  14
ATOM     14  O   UNL     1       2.362   1.132  -0.033  0.00  0.00    -0.507 OA
ATOM     15  H   UNL     1       2.713   0.939   0.847  0.00  0.00    +0.292 HD
ENDBRANCH  12  14
ENDBRANCH   1  10
BRANCH   6  16
ATOM     16  C   UNL     1      -0.535  -3.464  -0.269  0.00  0.00    +0.035 C 
ATOM     17  C   UNL     1      -0.667  -4.358   0.967  0.00  0.00    +0.009 C 
ATOM     18  C   UNL     1       0.400  -5.454   0.919  0.00  0.00    +0.001 C 
ATOM     19  C   UNL     1       1.789  -4.813   0.899  0.00  0.00    +0.000 C 
ATOM     20  C   UNL     1       1.921  -3.919  -0.336  0.00  0.00    +0.001 C 
ATOM     21  C   UNL     1       0.854  -2.823  -0.288  0.00  0.00    +0.009 C 
ENDBRANCH   6  16
BRANCH   4  22
ATOM     22  C   UNL     1      -4.474  -0.867  -1.463  0.00  0.00    +0.438 C 
ATOM     23  F   UNL     1      -3.657  -1.030  -2.586  0.00  0.00    -0.166 F 
ATOM     24  F   UNL     1      -5.577  -1.722  -1.560  0.00  0.00    -0.166 F 
ATOM     25  F   UNL     1      -4.916   0.459  -1.397  0.00  0.00    -0.166 F 
ENDBRANCH   4  22
BRANCH   4  26
ATOM     26  O   UNL     1      -4.499  -1.080   0.963  0.00  0.00    -0.363 OA
ATOM     27  H   UNL     1      -4.843  -0.188   1.110  0.00  0.00    +0.212 HD
ENDBRANCH   4  26
TORSDOF 5
