REMARK  Name = ZINC19849269
REMARK  10 active torsions:
REMARK  status: ('A' for Active; 'I' for Inactive)
REMARK    1  A    between atoms: C_1  and  C_2
REMARK    2  A    between atoms: C_5  and  N_8
REMARK    3  A    between atoms: C_9  and  C_30
REMARK    4  A    between atoms: C_12  and  S_13
REMARK    5  A    between atoms: S_13  and  C_14
REMARK    6  A    between atoms: C_14  and  C_15
REMARK    7  A    between atoms: N_17  and  N_18
REMARK    8  A    between atoms: C_19  and  C_20
REMARK    9  A    between atoms: C_19  and  C_21
REMARK   10  A    between atoms: C_25  and  N_27
REMARK                            x       y       z     vdW  Elec       q    Type
REMARK                         _______ _______ _______ _____ _____    ______ ____
ROOT
ATOM      1  N   UNL     1      -8.921   5.442  -0.595  0.00  0.00    -0.270 N 
ATOM      2  C   UNL     1      -9.596   4.246  -0.479  0.00  0.00    +0.169 A 
ATOM      3  N   UNL     1      -8.695   3.314  -0.271  0.00  0.00    -0.128 NA
ATOM      4  N   UNL     1      -7.520   3.835  -0.253  0.00  0.00    -0.122 NA
ATOM      5  C   UNL     1      -7.597   5.132  -0.449  0.00  0.00    +0.197 A 
ENDROOT
BRANCH   1  10
ATOM      6  C   UNL     1     -11.168  10.575  -1.498  0.00  0.00    +0.044 C 
ATOM      7  C   UNL     1     -10.571   9.212  -1.258  0.00  0.00    -0.050 A 
ATOM      8  C   UNL     1      -9.752   8.640  -2.214  0.00  0.00    +0.005 A 
ATOM      9  C   UNL     1      -9.204   7.391  -1.997  0.00  0.00    +0.026 A 
ATOM     10  C   UNL     1      -9.476   6.710  -0.818  0.00  0.00    +0.051 A 
ATOM     11  C   UNL     1     -10.303   7.285   0.137  0.00  0.00    +0.026 A 
ATOM     12  C   UNL     1     -10.844   8.537  -0.083  0.00  0.00    +0.005 A 
ENDBRANCH   1  10
BRANCH   2  13
ATOM     13  C   UNL     1     -11.058   4.050  -0.568  0.00  0.00    +0.020 A 
ATOM     14  C   UNL     1     -11.870   5.058  -1.091  0.00  0.00    +0.011 A 
ATOM     15  C   UNL     1     -13.234   4.866  -1.175  0.00  0.00    +0.001 A 
ATOM     16  C   UNL     1     -13.798   3.683  -0.732  0.00  0.00    +0.000 A 
ATOM     17  C   UNL     1     -12.999   2.682  -0.208  0.00  0.00    +0.001 A 
ATOM     18  C   UNL     1     -11.634   2.859  -0.122  0.00  0.00    +0.011 A 
ENDBRANCH   2  13
BRANCH   5  19
ATOM     19  S   UNL     1      -6.246   6.263  -0.505  0.00  0.00    -0.076 S 
BRANCH  19  20
ATOM     20  C   UNL     1      -4.869   5.122  -0.228  0.00  0.00    +0.174 C 
BRANCH  20  21
ATOM     21  C   UNL     1      -3.572   5.888  -0.235  0.00  0.00    +0.242 C 
ATOM     22  O   UNL     1      -3.578   7.089  -0.411  0.00  0.00    -0.273 OA
ATOM     23  N   UNL     1      -2.405   5.241  -0.047  0.00  0.00    -0.206 N 
ATOM     24  H   UNL     1      -2.400   4.152   0.113  0.00  0.00    +0.177 HD
BRANCH  23  25
ATOM     25  N   UNL     1      -1.199   5.954  -0.054  0.00  0.00    -0.185 NA
ATOM     26  C   UNL     1      -0.088   5.352   0.241  0.00  0.00    +0.063 C 
ATOM     27  C   UNL     1       1.226   6.069   0.069  0.00  0.00    +0.068 C 
BRANCH  26  28
ATOM     28  C   UNL     1      -0.111   3.966   0.746  0.00  0.00    -0.000 A 
ATOM     29  C   UNL     1       0.905   3.075   0.394  0.00  0.00    +0.010 A 
ATOM     30  C   UNL     1       0.877   1.780   0.870  0.00  0.00    +0.003 A 
ATOM     31  C   UNL     1      -0.154   1.364   1.694  0.00  0.00    +0.033 A 
ATOM     32  C   UNL     1      -1.167   2.241   2.042  0.00  0.00    +0.127 A 
ATOM     33  C   UNL     1      -1.149   3.540   1.577  0.00  0.00    +0.042 A 
BRANCH  32  34
ATOM     34  N   UNL     1      -2.269   1.785   2.918  0.00  0.00    +0.056 N 
ATOM     35  O   UNL     1      -2.284   0.639   3.332  0.00  0.00    -0.126 OA
ATOM     36  O   UNL     1      -3.161   2.555   3.225  0.00  0.00    -0.126 OA
ENDBRANCH  32  34
ENDBRANCH  26  28
ENDBRANCH  23  25
ENDBRANCH  20  21
ENDBRANCH  19  20
ENDBRANCH   5  19
TORSDOF 8
