REMARK  Name = ZINC40827380
REMARK  6 active torsions:
REMARK  status: ('A' for Active; 'I' for Inactive)
REMARK    1  A    between atoms: C_1  and  C_2
REMARK    2  A    between atoms: C_5  and  N_9
REMARK    3  A    between atoms: C_6  and  C_8
REMARK    4  A    between atoms: C_13  and  N_17
REMARK    5  A    between atoms: N_17  and  C_18
REMARK    6  A    between atoms: C_21  and  N_24
REMARK                            x       y       z     vdW  Elec       q    Type
REMARK                         _______ _______ _______ _____ _____    ______ ____
ROOT
ATOM      1  N   UNL     1       0.059  -4.172  -0.021  0.00  0.00    -0.209 N 
ATOM      2  C   UNL     1      -1.058  -4.912  -0.025  0.00  0.00    +0.228 C 
ATOM      3  O   UNL     1      -2.189  -4.476  -0.022  0.00  0.00    -0.275 OA
ATOM      4  C   UNL     1      -0.683  -6.378  -0.033  0.00  0.00    +0.128 C 
ATOM      5  C   UNL     1       0.859  -6.357  -0.033  0.00  0.00    +0.166 C 
ATOM      6  C   UNL     1       1.194  -4.882  -0.031  0.00  0.00    +0.247 C 
ATOM      7  O   UNL     1       2.313  -4.416  -0.035  0.00  0.00    -0.273 OA
ENDROOT
BRANCH   1  12
ATOM      8  C   UNL     1      -0.018   1.503   0.010  0.00  0.00    +0.044 C 
ATOM      9  C   UNL     1       0.002  -0.004   0.002  0.00  0.00    -0.050 A 
ATOM     10  C   UNL     1       0.006  -0.688  -1.200  0.00  0.00    +0.005 A 
ATOM     11  C   UNL     1       0.025  -2.068  -1.211  0.00  0.00    +0.024 A 
ATOM     12  C   UNL     1       0.040  -2.771  -0.013  0.00  0.00    +0.047 A 
ATOM     13  C   UNL     1       0.037  -2.082   1.192  0.00  0.00    -0.028 A 
ATOM     14  C   UNL     1       0.023  -0.700   1.196  0.00  0.00    +0.008 A 
ATOM     15  C   UNL     1       0.053  -2.840   2.494  0.00  0.00    +0.046 C 
ENDBRANCH   1  12
BRANCH   5  16
ATOM     16  N   UNL     1       1.383  -7.002  -1.240  0.00  0.00    -0.333 N 
ATOM     17  H   UNL     1       0.841  -7.040  -2.044  0.00  0.00    +0.147 HD
BRANCH  16  18
ATOM     18  C   UNL     1       2.662  -7.562  -1.233  0.00  0.00    +0.028 A 
ATOM     19  C   UNL     1       3.437  -7.514  -0.081  0.00  0.00    +0.025 A 
ATOM     20  C   UNL     1       4.701  -8.069  -0.077  0.00  0.00    +0.034 A 
ATOM     21  C   UNL     1       5.196  -8.673  -1.219  0.00  0.00    +0.126 A 
ATOM     22  C   UNL     1       4.428  -8.722  -2.368  0.00  0.00    +0.034 A 
ATOM     23  C   UNL     1       3.160  -8.174  -2.377  0.00  0.00    +0.025 A 
BRANCH  21  24
ATOM     24  N   UNL     1       6.552  -9.266  -1.212  0.00  0.00    +0.056 N 
ATOM     25  O   UNL     1       7.225  -9.223  -0.209  0.00  0.00    -0.126 OA
ATOM     26  O   UNL     1       6.986  -9.794  -2.209  0.00  0.00    -0.126 OA
ENDBRANCH  21  24
ENDBRANCH  16  18
ENDBRANCH   5  16
TORSDOF 4
