REMARK  Name = ZINC12318649
REMARK  6 active torsions:
REMARK  status: ('A' for Active; 'I' for Inactive)
REMARK    1  A    between atoms: C_4  and  O_25
REMARK    2  A    between atoms: C_5  and  C_7
REMARK    3  A    between atoms: N_8  and  N_9
REMARK    4  A    between atoms: C_19  and  C_20
REMARK    5  A    between atoms: O_25  and  C_26
REMARK    6  A    between atoms: C_26  and  C_28
REMARK                            x       y       z     vdW  Elec       q    Type
REMARK                         _______ _______ _______ _____ _____    ______ ____
ROOT
ATOM      1  C   UNL     1       9.132  -2.188   4.609  0.00  0.00    +0.001 A 
ATOM      2  C   UNL     1       8.699  -0.983   4.081  0.00  0.00    +0.004 A 
ATOM      3  C   UNL     1       7.457  -0.886   3.485  0.00  0.00    +0.047 A 
ATOM      4  C   UNL     1       6.629  -1.996   3.420  0.00  0.00    +0.141 A 
ATOM      5  C   UNL     1       7.062  -3.218   3.952  0.00  0.00    +0.037 A 
ATOM      6  C   UNL     1       8.323  -3.303   4.548  0.00  0.00    +0.013 A 
ENDROOT
BRANCH   5   7
ATOM      7  C   UNL     1       6.194  -4.405   3.884  0.00  0.00    +0.145 C 
ATOM      8  N   UNL     1       5.000  -4.309   3.381  0.00  0.00    -0.169 NA
BRANCH   8   9
ATOM      9  N   UNL     1       4.130  -5.406   3.426  0.00  0.00    -0.174 N 
ATOM     10  C   UNL     1       3.679  -5.857   4.620  0.00  0.00    +0.282 A 
ATOM     11  O   UNL     1       4.016  -5.328   5.663  0.00  0.00    -0.265 OA
ATOM     12  C   UNL     1       2.764  -7.007   4.610  0.00  0.00    +0.067 A 
ATOM     13  C   UNL     1       2.244  -7.542   5.787  0.00  0.00    +0.015 A 
ATOM     14  C   UNL     1       1.394  -8.624   5.721  0.00  0.00    +0.001 A 
ATOM     15  C   UNL     1       1.055  -9.184   4.495  0.00  0.00    +0.002 A 
ATOM     16  C   UNL     1       1.554  -8.676   3.329  0.00  0.00    +0.028 A 
ATOM     17  C   UNL     1       2.419  -7.577   3.362  0.00  0.00    +0.079 A 
ATOM     18  N   UNL     1       2.931  -7.051   2.234  0.00  0.00    -0.224 NA
ATOM     19  C   UNL     1       3.743  -6.019   2.262  0.00  0.00    +0.201 A 
BRANCH  19  20
ATOM     20  C   UNL     1       4.260  -5.500   0.991  0.00  0.00    +0.172 A 
ATOM     21  C   UNL     1       3.897  -5.922  -0.256  0.00  0.00    +0.053 A 
ATOM     22  C   UNL     1       4.634  -5.154  -1.173  0.00  0.00    +0.042 A 
ATOM     23  C   UNL     1       5.410  -4.314  -0.455  0.00  0.00    +0.196 A 
ATOM     24  O   UNL     1       5.182  -4.525   0.849  0.00  0.00    -0.460 OA
ENDBRANCH  19  20
ENDBRANCH   8   9
ENDBRANCH   5   7
BRANCH   4  25
ATOM     25  O   UNL     1       5.406  -1.901   2.838  0.00  0.00    -0.422 OA
BRANCH  25  26
ATOM     26  C   UNL     1       4.364  -1.617   3.645  0.00  0.00    +0.345 C 
ATOM     27  O   UNL     1       4.556  -1.372   4.820  0.00  0.00    -0.245 OA
BRANCH  26  28
ATOM     28  C   UNL     1       2.993  -1.605   3.103  0.00  0.00    +0.063 A 
ATOM     29  C   UNL     1       2.780  -1.773   1.732  0.00  0.00    +0.019 A 
ATOM     30  C   UNL     1       1.498  -1.762   1.228  0.00  0.00    +0.050 A 
ATOM     31  C   UNL     1       0.414  -1.585   2.078  0.00  0.00    +0.166 A 
ATOM     32  C   UNL     1       0.620  -1.417   3.448  0.00  0.00    +0.167 A 
ATOM     33  C   UNL     1       1.903  -1.427   3.960  0.00  0.00    +0.064 A 
ATOM     34  O   UNL     1      -0.594  -1.264   4.055  0.00  0.00    -0.453 OA
ATOM     35  C   UNL     1      -1.561  -1.748   3.105  0.00  0.00    +0.466 C 
ATOM     36  O   UNL     1      -0.926  -1.536   1.830  0.00  0.00    -0.453 OA
ENDBRANCH  26  28
ENDBRANCH  25  26
ENDBRANCH   4  25
TORSDOF 6
