REMARK  Name = ZINC00824843
REMARK  7 active torsions:
REMARK  status: ('A' for Active; 'I' for Inactive)
REMARK    1  A    between atoms: C_1  and  C_2
REMARK    2  A    between atoms: C_7  and  N_8
REMARK    3  A    between atoms: N_8  and  N_9
REMARK    4  A    between atoms: C_10  and  C_12
REMARK    5  A    between atoms: C_12  and  C_13
REMARK    6  A    between atoms: C_12  and  C_20
REMARK    7  A    between atoms: C_12  and  O_27
REMARK                            x       y       z     vdW  Elec       q    Type
REMARK                         _______ _______ _______ _____ _____    ______ ____
ROOT
ATOM      1  C   UNL     1      -1.330   1.944   0.019  0.00  0.00    +0.194 C 
ENDROOT
BRANCH   1   2
ATOM      2  C   UNL     1      -2.515   1.968  -0.912  0.00  0.00    -0.003 A 
ATOM      3  C   UNL     1      -2.525   1.166  -2.038  0.00  0.00    +0.009 A 
ATOM      4  C   UNL     1      -3.614   1.183  -2.889  0.00  0.00    +0.020 A 
ATOM      5  C   UNL     1      -4.689   2.011  -2.619  0.00  0.00    +0.041 A 
ATOM      6  C   UNL     1      -4.675   2.818  -1.496  0.00  0.00    +0.020 A 
ATOM      7  C   UNL     1      -3.588   2.796  -0.642  0.00  0.00    +0.009 A 
ATOM      8 CL   UNL     1      -6.054   2.038  -3.691  0.00  0.00    -0.084 Cl
ENDBRANCH   1   2
BRANCH   1   9
ATOM      9  C   UNL     1      -0.800   3.344   0.194  0.00  0.00    -0.003 A 
ATOM     10  C   UNL     1      -1.427   4.216   1.066  0.00  0.00    +0.009 A 
ATOM     11  C   UNL     1      -0.939   5.498   1.231  0.00  0.00    +0.020 A 
ATOM     12  C   UNL     1       0.170   5.913   0.516  0.00  0.00    +0.041 A 
ATOM     13  C   UNL     1       0.793   5.043  -0.361  0.00  0.00    +0.020 A 
ATOM     14  C   UNL     1       0.308   3.759  -0.521  0.00  0.00    +0.009 A 
ATOM     15 CL   UNL     1       0.780   7.526   0.718  0.00  0.00    -0.084 Cl
ENDBRANCH   1   9
BRANCH   1  17
ATOM     16  N   UNL     1      -0.846   0.808   2.162  0.00  0.00    -0.234 N 
ATOM     17  C   UNL     1      -1.753   1.396   1.357  0.00  0.00    +0.270 C 
ATOM     18  O   UNL     1      -2.911   1.479   1.708  0.00  0.00    -0.270 OA
ATOM     19  H   UNL     1       0.081   0.742   1.882  0.00  0.00    +0.173 HD
BRANCH  16  20
ATOM     20  N   UNL     1      -1.240   0.293   3.404  0.00  0.00    -0.264 N 
ATOM     21  H   UNL     1      -2.166   0.360   3.684  0.00  0.00    +0.170 HD
BRANCH  20  28
ATOM     22  C   UNL     1      -2.128  -0.725   5.907  0.00  0.00    +0.046 C 
ATOM     23  C   UNL     1      -0.690  -0.827   5.470  0.00  0.00    -0.028 A 
ATOM     24  C   UNL     1       0.243  -1.429   6.292  0.00  0.00    +0.005 A 
ATOM     25  C   UNL     1       1.563  -1.522   5.891  0.00  0.00    +0.000 A 
ATOM     26  C   UNL     1       1.954  -1.015   4.665  0.00  0.00    +0.002 A 
ATOM     27  C   UNL     1       1.026  -0.417   3.836  0.00  0.00    +0.025 A 
ATOM     28  C   UNL     1      -0.300  -0.316   4.238  0.00  0.00    +0.047 A 
ENDBRANCH  20  28
ENDBRANCH  16  20
ENDBRANCH   1  17
BRANCH   1  29
ATOM     29  O   UNL     1      -0.306   1.114  -0.534  0.00  0.00    -0.371 OA
ATOM     30  H   UNL     1      -0.577   0.197  -0.674  0.00  0.00    +0.212 HD
ENDBRANCH   1  29
TORSDOF 6
