REMARK  Name = ZINC35839395
REMARK  13 active torsions:
REMARK  status: ('A' for Active; 'I' for Inactive)
REMARK    1  A    between atoms: C_1  and  C_2
REMARK    2  A    between atoms: C_2  and  C_3
REMARK    3  A    between atoms: C_2  and  O_4
REMARK    4  A    between atoms: O_4  and  C_5
REMARK    5  A    between atoms: C_5  and  C_6
REMARK    6  A    between atoms: C_6  and  C_8
REMARK    7  A    between atoms: C_6  and  O_36
REMARK    8  A    between atoms: C_8  and  N_9
REMARK    9  A    between atoms: N_12  and  C_15
REMARK   10  A    between atoms: C_15  and  C_16
REMARK   11  A    between atoms: C_18  and  C_21
REMARK   12  A    between atoms: N_26  and  C_29
REMARK   13  A    between atoms: C_29  and  C_30
REMARK                            x       y       z     vdW  Elec       q    Type
REMARK                         _______ _______ _______ _____ _____    ______ ____
ROOT
ATOM      1  C   UNL     1      -8.113  -7.233  -2.771  0.00  0.00    +0.179 A 
ATOM      2  N   UNL     1      -8.003  -8.266  -1.990  0.00  0.00    -0.210 NA
ATOM      3  C   UNL     1      -8.142  -9.392  -2.742  0.00  0.00    +0.164 A 
ATOM      4  C   UNL     1      -8.344  -8.992  -4.027  0.00  0.00    +0.230 A 
ATOM      5  O   UNL     1      -8.328  -7.650  -4.027  0.00  0.00    -0.449 OA
ENDROOT
BRANCH   3   6
ATOM      6  C   UNL     1      -8.084 -10.782  -2.255  0.00  0.00    +0.268 C 
ATOM      7  O   UNL     1      -8.112 -11.705  -3.047  0.00  0.00    -0.268 OA
ATOM      8  N   UNL     1      -8.000 -11.030  -0.933  0.00  0.00    -0.294 N 
ATOM      9  C   UNL     1      -7.892  -9.930   0.036  0.00  0.00    +0.123 C 
ATOM     10  C   UNL     1      -8.959 -10.128   1.118  0.00  0.00    +0.103 C 
ATOM     11  N   UNL     1      -8.828 -11.475   1.690  0.00  0.00    -0.295 NA
ATOM     12  C   UNL     1      -9.077 -12.510   0.678  0.00  0.00    +0.103 C 
ATOM     13  C   UNL     1      -8.021 -12.409  -0.422  0.00  0.00    +0.123 C 
BRANCH  11  14
ATOM     14  C   UNL     1      -9.718 -11.644   2.847  0.00  0.00    +0.119 C 
BRANCH  14  15
ATOM     15  C   UNL     1      -9.385 -12.933   3.552  0.00  0.00    -0.033 A 
ATOM     16  C   UNL     1     -10.014 -14.107   3.181  0.00  0.00    +0.005 A 
ATOM     17  C   UNL     1      -9.709 -15.290   3.829  0.00  0.00    +0.000 A 
ATOM     18  C   UNL     1      -8.773 -15.299   4.846  0.00  0.00    +0.000 A 
ATOM     19  C   UNL     1      -8.143 -14.125   5.216  0.00  0.00    +0.000 A 
ATOM     20  C   UNL     1      -8.445 -12.944   4.566  0.00  0.00    +0.005 A 
ENDBRANCH  14  15
ENDBRANCH  11  14
ENDBRANCH   3   6
BRANCH   1  21
ATOM     21  C   UNL     1      -8.021  -5.794  -2.333  0.00  0.00    +0.019 C 
BRANCH  21  25
ATOM     22  N   UNL     1      -4.269  -4.205  -1.273  0.00  0.00    -0.303 NA
ATOM     23  C   UNL     1      -5.101  -3.439  -2.212  0.00  0.00    +0.066 C 
ATOM     24  C   UNL     1      -6.552  -3.912  -2.106  0.00  0.00    -0.063 C 
ATOM     25  N   UNL     1      -6.625  -5.345  -2.417  0.00  0.00    +0.387 N 
ATOM     26  C   UNL     1      -5.809  -6.099  -1.456  0.00  0.00    -0.063 C 
ATOM     27  C   UNL     1      -4.351  -5.645  -1.557  0.00  0.00    +0.066 C 
ATOM     28  H   UNL     1      -6.277  -5.504  -3.351  0.00  0.00    -0.081 HD
BRANCH  22  29
ATOM     29  C   UNL     1      -2.876  -3.741  -1.304  0.00  0.00    +0.117 C 
BRANCH  29  30
ATOM     30  C   UNL     1      -2.164  -4.177  -0.022  0.00  0.00    +0.154 C 
BRANCH  30  31
ATOM     31  O   UNL     1      -2.792  -3.561   1.104  0.00  0.00    -0.388 OA
ATOM     32  H   UNL     1      -2.776  -2.594   1.083  0.00  0.00    +0.210 HD
ENDBRANCH  30  31
BRANCH  30  33
ATOM     33  C   UNL     1      -0.696  -3.751  -0.084  0.00  0.00    +0.192 C 
BRANCH  33  34
ATOM     34  O   UNL     1      -0.004  -4.258   1.059  0.00  0.00    -0.375 OA
BRANCH  34  36
ATOM     35  C   UNL     1       1.840  -3.810   2.555  0.00  0.00    +0.037 C 
ATOM     36  C   UNL     1       1.383  -3.915   1.099  0.00  0.00    +0.112 C 
ATOM     37  C   UNL     1       2.196  -4.997   0.386  0.00  0.00    +0.037 C 
ENDBRANCH  34  36
ENDBRANCH  33  34
ENDBRANCH  30  33
ENDBRANCH  29  30
ENDBRANCH  22  29
ENDBRANCH  21  25
ENDBRANCH   1  21
TORSDOF 11
