REMARK  Name = ZINC49317005
REMARK  6 active torsions:
REMARK  status: ('A' for Active; 'I' for Inactive)
REMARK    1  A    between atoms: C_1  and  C_2
REMARK    2  A    between atoms: C_2  and  C_3
REMARK    3  A    between atoms: C_3  and  N_4
REMARK    4  A    between atoms: C_6  and  N_11
REMARK    5  A    between atoms: C_12  and  C_14
REMARK    6  A    between atoms: N_18  and  C_19
REMARK                            x       y       z     vdW  Elec       q    Type
REMARK                         _______ _______ _______ _____ _____    ______ ____
ROOT
ATOM      1  N   UNL     1      -1.611  -4.739   1.890  0.00  0.00    -0.279 N 
ATOM      2  C   UNL     1      -1.522  -6.073   2.059  0.00  0.00    +0.265 C 
ATOM      3  O   UNL     1      -0.564  -6.680   1.619  0.00  0.00    -0.268 OA
ATOM      4  H   UNL     1      -2.339  -4.246   2.301  0.00  0.00    +0.155 HD
ENDROOT
BRANCH   1   7
ATOM      5  N   UNL     1       0.092  -2.091   0.059  0.00  0.00    -0.313 N 
ATOM      6  C   UNL     1      -0.831  -2.755   0.803  0.00  0.00    +0.112 A 
ATOM      7  C   UNL     1      -0.652  -4.064   1.121  0.00  0.00    +0.050 A 
ATOM      8  C   UNL     1       0.499  -4.740   0.677  0.00  0.00    +0.030 A 
ATOM      9  C   UNL     1       1.420  -4.067  -0.070  0.00  0.00    +0.072 A 
ATOM     10  C   UNL     1       1.200  -2.716  -0.383  0.00  0.00    +0.251 A 
ATOM     11  O   UNL     1       2.017  -2.105  -1.055  0.00  0.00    -0.268 OA
BRANCH   5  12
ATOM     12  C   UNL     1      -0.123  -0.680  -0.271  0.00  0.00    +0.124 C 
BRANCH  12  14
ATOM     13  C   UNL     1      -1.121   0.898  -1.932  0.00  0.00    +0.005 C 
ATOM     14  C   UNL     1      -0.896  -0.576  -1.588  0.00  0.00    +0.018 C 
ENDBRANCH  12  14
ENDBRANCH   5  12
ENDBRANCH   1   7
BRANCH   2  15
ATOM     15  C   UNL     1      -2.581  -6.794   2.774  0.00  0.00    +0.106 A 
ATOM     16  C   UNL     1      -2.692  -8.163   2.902  0.00  0.00    +0.052 A 
ATOM     17  C   UNL     1      -3.842  -8.413   3.658  0.00  0.00    +0.059 A 
ATOM     18  C   UNL     1      -4.402  -7.219   3.971  0.00  0.00    +0.106 A 
ATOM     19  N   UNL     1      -3.641  -6.227   3.445  0.00  0.00    -0.345 N 
ATOM     20  C   UNL     1      -3.906  -4.791   3.566  0.00  0.00    +0.149 C 
ATOM     21 CL   UNL     1      -4.446  -9.976   4.113  0.00  0.00    -0.082 Cl
ENDBRANCH   2  15
TORSDOF 4
