REMARK  Name = ZINC36704158
REMARK  7 active torsions:
REMARK  status: ('A' for Active; 'I' for Inactive)
REMARK    1  A    between atoms: C_1  and  C_2
REMARK    2  A    between atoms: C_2  and  N_3
REMARK    3  A    between atoms: N_3  and  C_4
REMARK    4  A    between atoms: C_14  and  C_16
REMARK    5  A    between atoms: C_16  and  O_17
REMARK    6  A    between atoms: O_17  and  N_18
REMARK    7  A    between atoms: C_19  and  C_20
REMARK                            x       y       z     vdW  Elec       q    Type
REMARK                         _______ _______ _______ _____ _____    ______ ____
ROOT
ATOM      1  N   UNL     1       0.688  -0.476  -1.203  0.00  0.00    -0.268 N 
ATOM      2  C   UNL     1      -0.013  -0.705  -2.332  0.00  0.00    +0.260 C 
ATOM      3  O   UNL     1       0.555  -1.096  -3.330  0.00  0.00    -0.271 OA
ENDROOT
BRANCH   1   4
ATOM      4  C   UNL     1       2.067  -0.691  -1.183  0.00  0.00    +0.044 A 
ATOM      5  C   UNL     1       2.574  -1.925  -0.839  0.00  0.00    +0.024 A 
ATOM      6  C   UNL     1       3.947  -2.149  -0.817  0.00  0.00    +0.002 A 
ATOM      7  C   UNL     1       4.827  -1.159  -1.132  0.00  0.00    +0.008 A 
ATOM      8  C   UNL     1       4.351   0.115  -1.488  0.00  0.00    -0.016 A 
ATOM      9  C   UNL     1       2.955   0.353  -1.520  0.00  0.00    +0.004 A 
ATOM     10  C   UNL     1       2.481   1.624  -1.881  0.00  0.00    +0.010 A 
ATOM     11  C   UNL     1       3.366   2.608  -2.199  0.00  0.00    +0.001 A 
ATOM     12  C   UNL     1       4.739   2.373  -2.174  0.00  0.00    +0.001 A 
ATOM     13  C   UNL     1       5.235   1.157  -1.817  0.00  0.00    +0.008 A 
ENDBRANCH   1   4
BRANCH   1  15
ATOM     14  C   UNL     1      -0.019   1.526   0.010  0.00  0.00    +0.025 C 
ATOM     15  C   UNL     1       0.002  -0.004   0.002  0.00  0.00    +0.110 C 
ENDBRANCH   1  15
BRANCH   2  16
ATOM     16  C   UNL     1      -1.502  -0.473  -2.354  0.00  0.00    +0.358 C 
BRANCH  16  17
ATOM     17  O   UNL     1      -2.013  -0.783  -3.652  0.00  0.00    -0.384 OA
BRANCH  17  18
ATOM     18  N   UNL     1      -3.411  -0.598  -3.779  0.00  0.00    -0.092 NA
ATOM     19  C   UNL     1      -3.998  -0.845  -4.910  0.00  0.00    +0.168 C 
BRANCH  19  20
ATOM     20  C   UNL     1      -5.446  -0.653  -5.042  0.00  0.00    +0.033 A 
ATOM     21  C   UNL     1      -6.257  -0.862  -6.144  0.00  0.00    +0.017 A 
ATOM     22  C   UNL     1      -7.602  -0.610  -6.023  0.00  0.00    +0.008 A 
ATOM     23  C   UNL     1      -8.092  -0.167  -4.835  0.00  0.00    +0.046 A 
ATOM     24  S   UNL     1      -6.624  -0.098  -3.821  0.00  0.00    -0.096 S 
ENDBRANCH  19  20
ENDBRANCH  17  18
ENDBRANCH  16  17
ENDBRANCH   2  16
TORSDOF 6
