REMARK  Name = ZINC35545192
REMARK  7 active torsions:
REMARK  status: ('A' for Active; 'I' for Inactive)
REMARK    1  A    between atoms: C_1  and  C_2
REMARK    2  A    between atoms: C_2  and  C_4
REMARK    3  A    between atoms: C_2  and  N_10
REMARK    4  A    between atoms: C_11  and  C_13
REMARK    5  A    between atoms: C_18  and  C_37
REMARK    6  A    between atoms: N_26  and  C_29
REMARK    7  A    between atoms: C_29  and  C_30
REMARK                            x       y       z     vdW  Elec       q    Type
REMARK                         _______ _______ _______ _____ _____    ______ ____
ROOT
ATOM      1  C   UNL     1       0.780  -1.133   3.576  0.00  0.00    +0.098 C 
ATOM      2  C   UNL     1       1.346  -2.525   3.298  0.00  0.00    +0.051 C 
ATOM      3  C   UNL     1       0.212  -3.496   3.100  0.00  0.00    -0.025 A 
ATOM      4  C   UNL     1       0.421  -4.634   2.341  0.00  0.00    +0.017 A 
ATOM      5  C   UNL     1      -0.607  -5.536   2.143  0.00  0.00    +0.055 A 
ATOM      6  C   UNL     1      -1.850  -5.304   2.704  0.00  0.00    +0.014 A 
ATOM      7  C   UNL     1      -2.064  -4.172   3.465  0.00  0.00    +0.024 A 
ATOM      8  C   UNL     1      -1.029  -3.264   3.667  0.00  0.00    +0.033 A 
ATOM      9  N   UNL     1      -1.274  -2.129   4.455  0.00  0.00    -0.329 N 
ATOM     10  C   UNL     1      -0.193  -1.204   4.759  0.00  0.00    +0.069 C 
ATOM     11  C   UNL     1      -0.672   0.201   5.088  0.00  0.00    -0.055 C 
ATOM     12  N   UNL     1      -1.900   0.187   5.881  0.00  0.00    +0.385 N 
ATOM     13  C   UNL     1      -2.964  -0.462   5.100  0.00  0.00    -0.059 C 
ATOM     14  C   UNL     1      -2.633  -1.947   4.972  0.00  0.00    +0.087 C 
ATOM     15  H   UNL     1      -1.746  -0.329   6.735  0.00  0.00    -0.081 HD
ENDROOT
BRANCH   1  17
ATOM     16  N   UNL     1       0.711  -0.489   1.189  0.00  0.00    -0.308 N 
ATOM     17  C   UNL     1       0.051  -0.633   2.355  0.00  0.00    +0.219 C 
ATOM     18  O   UNL     1      -1.129  -0.361   2.423  0.00  0.00    -0.275 OA
ATOM     19  H   UNL     1       1.654  -0.707   1.135  0.00  0.00    +0.149 HD
BRANCH  16  21
ATOM     20  C   UNL     1      -0.019   1.526   0.010  0.00  0.00    +0.033 C 
ATOM     21  C   UNL     1       0.002  -0.004   0.002  0.00  0.00    +0.100 C 
BRANCH  21  22
ATOM     22  C   UNL     1       0.707  -0.490  -1.238  0.00  0.00    -0.027 A 
ATOM     23  C   UNL     1       2.089  -0.511  -1.284  0.00  0.00    +0.005 A 
ATOM     24  C   UNL     1       2.736  -0.957  -2.421  0.00  0.00    +0.000 A 
ATOM     25  C   UNL     1       2.002  -1.382  -3.512  0.00  0.00    +0.000 A 
ATOM     26  C   UNL     1       0.620  -1.362  -3.466  0.00  0.00    +0.000 A 
ATOM     27  C   UNL     1      -0.027  -0.920  -2.327  0.00  0.00    +0.005 A 
ENDBRANCH  21  22
ENDBRANCH  16  21
ENDBRANCH   1  17
BRANCH   5  28
ATOM     28  C   UNL     1      -0.375  -6.773   1.314  0.00  0.00    +0.417 C 
ATOM     29  F   UNL     1       0.064  -7.812   2.141  0.00  0.00    -0.166 F 
ATOM     30  F   UNL     1      -1.569  -7.146   0.689  0.00  0.00    -0.166 F 
ATOM     31  F   UNL     1       0.596  -6.507   0.343  0.00  0.00    -0.166 F 
ENDBRANCH   5  28
BRANCH  12  32
ATOM     32  C   UNL     1      -2.295   1.565   6.201  0.00  0.00    -0.043 C 
BRANCH  32  33
ATOM     33  C   UNL     1      -3.490   1.546   7.119  0.00  0.00    -0.064 A 
ATOM     34  C   UNL     1      -4.767   1.542   6.591  0.00  0.00    +0.004 A 
ATOM     35  C   UNL     1      -5.864   1.523   7.432  0.00  0.00    +0.038 A 
ATOM     36  C   UNL     1      -5.682   1.508   8.805  0.00  0.00    +0.123 A 
ATOM     37  C   UNL     1      -4.402   1.512   9.333  0.00  0.00    +0.038 A 
ATOM     38  C   UNL     1      -3.307   1.526   8.489  0.00  0.00    +0.004 A 
ATOM     39  F   UNL     1      -6.753   1.490   9.628  0.00  0.00    -0.205 F 
ENDBRANCH  32  33
ENDBRANCH  12  32
TORSDOF 6
