REMARK  Name = ZINC45949733
REMARK  5 active torsions:
REMARK  status: ('A' for Active; 'I' for Inactive)
REMARK    1  A    between atoms: C_1  and  C_2
REMARK    2  A    between atoms: C_5  and  N_9
REMARK    3  A    between atoms: C_6  and  C_8
REMARK    4  A    between atoms: C_10  and  N_17
REMARK    5  A    between atoms: C_11  and  C_14
REMARK                            x       y       z     vdW  Elec       q    Type
REMARK                         _______ _______ _______ _____ _____    ______ ____
ROOT
ATOM      1  N   UNL     1       0.283  -4.160  -0.156  0.00  0.00    -0.219 N 
ATOM      2  C   UNL     1       0.229  -4.884  -1.287  0.00  0.00    +0.123 A 
ATOM      3  C   UNL     1       0.259  -6.218  -0.924  0.00  0.00    +0.121 A 
ATOM      4  C   UNL     1       0.334  -6.264   0.488  0.00  0.00    +0.151 A 
ATOM      5  N   UNL     1       0.353  -5.038   0.931  0.00  0.00    -0.172 NA
ENDROOT
BRANCH   1  10
ATOM      6  C   UNL     1       0.251   1.507   0.156  0.00  0.00    +0.044 C 
ATOM      7  C   UNL     1       0.259   0.002   0.073  0.00  0.00    -0.050 A 
ATOM      8  C   UNL     1       1.133  -0.637  -0.788  0.00  0.00    +0.005 A 
ATOM      9  C   UNL     1       1.143  -2.015  -0.866  0.00  0.00    +0.028 A 
ATOM     10  C   UNL     1       0.275  -2.760  -0.079  0.00  0.00    +0.070 A 
ATOM     11  C   UNL     1      -0.601  -2.116   0.785  0.00  0.00    -0.025 A 
ATOM     12  C   UNL     1      -0.603  -0.737   0.862  0.00  0.00    +0.008 A 
ATOM     13  C   UNL     1      -1.545  -2.921   1.641  0.00  0.00    +0.046 C 
ENDBRANCH   1  10
BRANCH   2  14
ATOM     14  N   UNL     1       0.155  -4.381  -2.589  0.00  0.00    -0.377 NA
ATOM     15  C   UNL     1       1.289  -4.888  -3.374  0.00  0.00    +0.101 C 
ATOM     16  C   UNL     1       1.219  -4.323  -4.795  0.00  0.00    +0.098 C 
ATOM     17  N   UNL     1      -0.050  -4.726  -5.417  0.00  0.00    -0.313 NA
ATOM     18  C   UNL     1      -1.194  -4.247  -4.629  0.00  0.00    +0.098 C 
ATOM     19  C   UNL     1      -1.104  -4.813  -3.210  0.00  0.00    +0.101 C 
ATOM     20  H   UNL     1      -0.105  -4.399  -6.370  0.00  0.00    +0.122 HD
ATOM     21  H   UNL     1       0.189  -3.373  -2.563  0.00  0.00    +0.128 HD
ENDBRANCH   2  14
BRANCH   3  22
ATOM     22  C   UNL     1       0.221  -7.372  -1.835  0.00  0.00    +0.391 C 
ATOM     23  O   UNL     1       0.375  -8.503  -1.395  0.00  0.00    -0.240 OA
ATOM     24  O   UNL     1       0.033  -7.200  -3.032  0.00  0.00    -0.240 OA
ENDBRANCH   3  22
TORSDOF 3
