REMARK  Name = ZINC33324444
REMARK  8 active torsions:
REMARK  status: ('A' for Active; 'I' for Inactive)
REMARK    1  A    between atoms: C_6  and  O_7
REMARK    2  A    between atoms: O_7  and  C_8
REMARK    3  A    between atoms: C_8  and  C_9
REMARK    4  A    between atoms: C_12  and  C_14
REMARK    5  A    between atoms: C_16  and  C_27
REMARK    6  A    between atoms: C_17  and  N_19
REMARK    7  A    between atoms: N_19  and  C_20
REMARK    8  A    between atoms: C_20  and  C_21
REMARK                            x       y       z     vdW  Elec       q    Type
REMARK                         _______ _______ _______ _____ _____    ______ ____
ROOT
ATOM      1  C   UNL     1       1.979  -7.390   1.556  0.00  0.00    +0.266 A 
ATOM      2  N   UNL     1       1.829  -8.633   1.169  0.00  0.00    -0.194 NA
ATOM      3  C   UNL     1       1.747  -9.424   2.272  0.00  0.00    +0.201 A 
ATOM      4  C   UNL     1       1.855  -8.591   3.375  0.00  0.00    +0.225 A 
ATOM      5  O   UNL     1       2.004  -7.339   2.903  0.00  0.00    -0.418 OA
ENDROOT
BRANCH   1   9
ATOM      6  C   UNL     1       2.342  -4.165  -0.044  0.00  0.00    +0.143 A 
ATOM      7  C   UNL     1       2.235  -4.939  -1.143  0.00  0.00    +0.049 A 
ATOM      8  C   UNL     1       2.089  -6.267  -0.702  0.00  0.00    +0.055 A 
ATOM      9  C   UNL     1       2.107  -6.232   0.661  0.00  0.00    +0.190 A 
ATOM     10  O   UNL     1       2.261  -4.949   1.044  0.00  0.00    -0.451 OA
BRANCH   6  11
ATOM     11  C   UNL     1       2.517  -2.669  -0.037  0.00  0.00    +0.303 C 
BRANCH  11  12
ATOM     12  O   UNL     1       1.234  -2.039  -0.021  0.00  0.00    -0.484 OA
BRANCH  12  18
ATOM     13  C   UNL     1       0.002  -0.004   0.002  0.00  0.00    +0.047 A 
ATOM     14  C   UNL     1      -0.017   1.377   0.010  0.00  0.00    +0.019 A 
ATOM     15  C   UNL     1       1.171   2.086   0.002  0.00  0.00    +0.018 A 
ATOM     16  C   UNL     1       2.380   1.414  -0.013  0.00  0.00    +0.019 A 
ATOM     17  C   UNL     1       2.403   0.033  -0.021  0.00  0.00    +0.047 A 
ATOM     18  C   UNL     1       1.213  -0.680  -0.013  0.00  0.00    +0.121 A 
ATOM     19 BR   UNL     1       1.143   3.977   0.012  0.00  0.00    -0.050 Br
ENDBRANCH  12  18
ENDBRANCH  11  12
ENDBRANCH   6  11
ENDBRANCH   1   9
BRANCH   4  20
ATOM     20  N   UNL     1       1.823  -8.972   4.699  0.00  0.00    -0.310 N 
ATOM     21  H   UNL     1       1.702 -10.033   4.963  0.00  0.00    +0.149 HD
BRANCH  20  22
ATOM     22  C   UNL     1       1.952  -7.964   5.754  0.00  0.00    +0.136 C 
BRANCH  22  23
ATOM     23  C   UNL     1       1.885  -8.647   7.122  0.00  0.00    +0.135 C 
ATOM     24  C   UNL     1       2.019  -7.594   8.240  0.00  0.00    +0.035 C 
ATOM     25  C   UNL     1       0.719  -7.751   9.066  0.00  0.00    +0.031 C 
ATOM     26  C   UNL     1       0.263  -9.183   8.686  0.00  0.00    +0.160 C 
ATOM     27  O   UNL     1       0.608  -9.286   7.287  0.00  0.00    -0.375 OA
ENDBRANCH  22  23
ENDBRANCH  20  22
ENDBRANCH   4  20
BRANCH   3  28
ATOM     28  C   UNL     1       1.581 -10.846   2.291  0.00  0.00    +0.124 C 
ATOM     29  N   UNL     1       1.449 -11.975   2.305  0.00  0.00    -0.189 NA
ENDBRANCH   3  28
TORSDOF 8
