REMARK  Name = ZINC66444098
REMARK  11 active torsions:
REMARK  status: ('A' for Active; 'I' for Inactive)
REMARK    1  A    between atoms: C_1  and  C_2
REMARK    2  A    between atoms: C_5  and  C_9
REMARK    3  A    between atoms: C_6  and  C_8
REMARK    4  A    between atoms: C_9  and  C_10
REMARK    5  A    between atoms: C_10  and  C_12
REMARK    6  A    between atoms: C_10  and  N_13
REMARK    7  A    between atoms: C_14  and  C_16
REMARK    8  A    between atoms: C_19  and  C_27
REMARK    9  A    between atoms: C_20  and  N_22
REMARK   10  A    between atoms: N_22  and  S_23
REMARK   11  A    between atoms: S_23  and  C_26
REMARK                            x       y       z     vdW  Elec       q    Type
REMARK                         _______ _______ _______ _____ _____    ______ ____
ROOT
ATOM      1  N   UNL     1      -2.143  -4.420  -1.074  0.00  0.00    -0.308 N 
ATOM      2  C   UNL     1      -3.484  -4.311  -0.997  0.00  0.00    +0.244 C 
ATOM      3  O   UNL     1      -4.052  -4.532   0.055  0.00  0.00    -0.270 OA
ATOM      4  H   UNL     1      -1.690  -4.245  -1.914  0.00  0.00    +0.149 HD
ENDROOT
BRANCH   2   5
ATOM      5  C   UNL     1      -4.265  -3.924  -2.192  0.00  0.00    +0.039 A 
ATOM      6  C   UNL     1      -3.615  -3.675  -3.402  0.00  0.00    +0.013 A 
ATOM      7  C   UNL     1      -4.345  -3.314  -4.516  0.00  0.00    +0.006 A 
ATOM      8  C   UNL     1      -5.721  -3.195  -4.438  0.00  0.00    -0.026 A 
ATOM      9  C   UNL     1      -6.377  -3.440  -3.237  0.00  0.00    +0.078 A 
ATOM     10  C   UNL     1      -5.652  -3.810  -2.114  0.00  0.00    +0.040 A 
ATOM     11  C   UNL     1      -6.511  -2.799  -5.658  0.00  0.00    +0.046 C 
BRANCH   9  12
ATOM     12  N   UNL     1      -7.767  -3.318  -3.163  0.00  0.00    -0.103 NA
BRANCH  12  13
ATOM     13  S   UNL     1      -8.549  -3.610  -1.733  0.00  0.00    +0.059 S 
ATOM     14  O   UNL     1      -8.312  -4.985  -1.464  0.00  0.00    -0.154 OA
ATOM     15  O   UNL     1      -8.071  -2.606  -0.848  0.00  0.00    -0.154 OA
ATOM     16  C   UNL     1     -10.304  -3.337  -2.098  0.00  0.00    +0.220 C 
ENDBRANCH  12  13
ENDBRANCH   9  12
ENDBRANCH   2   5
BRANCH   1  17
ATOM     17  C   UNL     1      -1.370  -4.804   0.109  0.00  0.00    +0.074 C 
ATOM     18  C   UNL     1      -1.341  -6.330   0.226  0.00  0.00    +0.028 C 
BRANCH  17  19
ATOM     19  C   UNL     1       0.059  -4.275  -0.021  0.00  0.00    +0.057 C 
BRANCH  19  24
ATOM     20  C   UNL     1      -0.018   1.503   0.010  0.00  0.00    +0.044 C 
ATOM     21  C   UNL     1       0.002  -0.004   0.002  0.00  0.00    -0.050 A 
ATOM     22  C   UNL     1       0.006  -0.689  -1.199  0.00  0.00    +0.003 A 
ATOM     23  C   UNL     1       0.025  -2.071  -1.207  0.00  0.00    +0.004 A 
ATOM     24  C   UNL     1       0.040  -2.768  -0.013  0.00  0.00    -0.043 A 
ATOM     25  C   UNL     1       0.037  -2.084   1.188  0.00  0.00    -0.047 A 
ATOM     26  C   UNL     1       0.023  -0.702   1.195  0.00  0.00    +0.007 A 
ATOM     27  C   UNL     1       0.054  -2.845   2.489  0.00  0.00    +0.044 C 
ENDBRANCH  19  24
ENDBRANCH  17  19
ENDBRANCH   1  17
TORSDOF 6
