REMARK  Name = ZINC09848621
REMARK  11 active torsions:
REMARK  status: ('A' for Active; 'I' for Inactive)
REMARK    1  A    between atoms: C_1  and  C_2
REMARK    2  A    between atoms: C_2  and  C_3
REMARK    3  A    between atoms: N_5  and  C_17
REMARK    4  A    between atoms: C_12  and  C_16
REMARK    5  A    between atoms: C_17  and  C_18
REMARK    6  A    between atoms: N_20  and  C_21
REMARK    7  A    between atoms: C_21  and  C_22
REMARK    8  A    between atoms: C_22  and  C_23
REMARK    9  A    between atoms: C_23  and  N_64
REMARK   10  A    between atoms: C_28  and  C_30
REMARK   11  A    between atoms: C_30  and  C_31
REMARK                            x       y       z     vdW  Elec       q    Type
REMARK                         _______ _______ _______ _____ _____    ______ ____
ROOT
ATOM      1  C   UNL     1       4.713   2.602  -0.140  0.00  0.00    +0.243 C 
ENDROOT
BRANCH   1   4
ATOM      2  C   UNL     1       1.472   4.336  -0.171  0.00  0.00    +0.135 A 
ATOM      3  N   UNL     1       2.740   4.103  -0.161  0.00  0.00    -0.154 NA
ATOM      4  N   UNL     1       3.262   2.807  -0.151  0.00  0.00    -0.217 N 
ATOM      5  C   UNL     1       2.430   1.741  -0.151  0.00  0.00    +0.292 A 
ATOM      6  O   UNL     1       2.866   0.603  -0.142  0.00  0.00    -0.264 OA
ATOM      7  C   UNL     1       0.987   1.996  -0.162  0.00  0.00    +0.116 A 
ATOM      8  N   UNL     1       0.548   3.310  -0.172  0.00  0.00    -0.291 N 
ATOM      9  C   UNL     1      -0.842   3.324  -0.181  0.00  0.00    +0.063 A 
ATOM     10  C   UNL     1      -1.883   4.265  -0.192  0.00  0.00    +0.037 A 
ATOM     11  C   UNL     1      -3.167   3.853  -0.215  0.00  0.00    -0.011 A 
ATOM     12  S   UNL     1      -3.009   2.075  -0.203  0.00  0.00    -0.092 S 
ATOM     13  C   UNL     1      -1.237   1.980  -0.182  0.00  0.00    +0.038 A 
ATOM     14  C   UNL     1      -0.111   1.170  -0.164  0.00  0.00    +0.048 A 
ATOM     15  C   UNL     1      -4.423   4.686  -0.234  0.00  0.00    +0.051 C 
BRANCH   2  17
ATOM     16  C   UNL     1       2.187   6.710  -0.179  0.00  0.00    +0.012 C 
ATOM     17  C   UNL     1       0.986   5.763  -0.182  0.00  0.00    +0.073 C 
ENDBRANCH   2  17
ENDBRANCH   1   4
BRANCH   1  18
ATOM     18  C   UNL     1       5.219   2.524  -1.558  0.00  0.00    +0.235 C 
ATOM     19  O   UNL     1       4.445   2.629  -2.485  0.00  0.00    -0.274 OA
ATOM     20  N   UNL     1       6.533   2.338  -1.794  0.00  0.00    -0.314 N 
ATOM     21  H   UNL     1       7.152   2.254  -1.052  0.00  0.00    +0.149 HD
BRANCH  20  22
ATOM     22  C   UNL     1       7.026   2.262  -3.172  0.00  0.00    +0.102 C 
BRANCH  22  23
ATOM     23  C   UNL     1       8.540   2.048  -3.161  0.00  0.00    +0.000 C 
BRANCH  23  24
ATOM     24  C   UNL     1       9.055   1.969  -4.600  0.00  0.00    -0.077 C 
BRANCH  24  30
ATOM     25  C   UNL     1      11.208   2.974  -4.137  0.00  0.00    -0.078 C 
ATOM     26  C   UNL     1      12.704   2.679  -4.000  0.00  0.00    -0.019 C 
ATOM     27  C   UNL     1      13.256   2.224  -5.353  0.00  0.00    -0.003 C 
ATOM     28  C   UNL     1      12.479   0.991  -5.824  0.00  0.00    -0.015 C 
ATOM     29  C   UNL     1      10.990   1.335  -5.909  0.00  0.00    -0.069 C 
ATOM     30  N   UNL     1      10.514   1.742  -4.570  0.00  0.00    +0.382 N 
ATOM     31  H   UNL     1      10.721   0.991  -3.900  0.00  0.00    -0.081 HD
BRANCH  29  32
ATOM     32  C   UNL     1      10.207   0.100  -6.359  0.00  0.00    -0.019 C 
ATOM     33  C   UNL     1      10.331  -0.997  -5.300  0.00  0.00    +0.002 C 
ENDBRANCH  29  32
ENDBRANCH  24  30
ENDBRANCH  23  24
ENDBRANCH  22  23
ENDBRANCH  20  22
ENDBRANCH   1  18
TORSDOF 8
