REMARK  Name = ZINC00084839
REMARK  8 active torsions:
REMARK  status: ('A' for Active; 'I' for Inactive)
REMARK    1  A    between atoms: C_1  and  C_2
REMARK    2  A    between atoms: C_11  and  S_15
REMARK    3  A    between atoms: S_15  and  C_16
REMARK    4  A    between atoms: C_16  and  C_17
REMARK    5  A    between atoms: C_17  and  O_19
REMARK    6  A    between atoms: O_19  and  C_20
REMARK    7  A    between atoms: C_20  and  C_21
REMARK    8  A    between atoms: C_20  and  C_22
REMARK                            x       y       z     vdW  Elec       q    Type
REMARK                         _______ _______ _______ _____ _____    ______ ____
ROOT
ATOM      1  C   UNL     1       7.781   3.360   0.020  0.00  0.00    +0.008 C 
ATOM      2  C   UNL     1       6.354   2.903   0.326  0.00  0.00    -0.009 C 
ATOM      3  C   UNL     1       5.362   3.731  -0.496  0.00  0.00    +0.008 C 
ATOM      4  C   UNL     1       3.935   3.456  -0.019  0.00  0.00    +0.037 C 
ATOM      5  C   UNL     1       3.696   1.949  -0.024  0.00  0.00    -0.025 A 
ATOM      6  C   UNL     1       4.734   1.087  -0.040  0.00  0.00    -0.004 A 
ATOM      7  S   UNL     1       3.995  -0.525  -0.040  0.00  0.00    -0.073 S 
ATOM      8  C   UNL     1       2.290  -0.038  -0.020  0.00  0.00    +0.113 A 
ATOM      9  C   UNL     1       2.352   1.370  -0.013  0.00  0.00    +0.043 A 
ATOM     10  C   UNL     1       1.095   2.037   0.003  0.00  0.00    +0.109 A 
ATOM     11  N   UNL     1      -0.016   1.316   0.009  0.00  0.00    -0.229 NA
ATOM     12  C   UNL     1       0.002  -0.004   0.002  0.00  0.00    +0.223 A 
ATOM     13  N   UNL     1       1.137  -0.677  -0.012  0.00  0.00    -0.228 NA
ATOM     14  C   UNL     1       6.194   1.424  -0.054  0.00  0.00    +0.046 C 
ENDROOT
BRANCH  10  15
ATOM     15  S   UNL     1       1.018   3.797   0.013  0.00  0.00    -0.094 S 
BRANCH  15  16
ATOM     16  C   UNL     1      -0.776   4.033   0.031  0.00  0.00    +0.196 C 
BRANCH  16  17
ATOM     17  C   UNL     1      -1.088   5.507   0.042  0.00  0.00    +0.318 C 
ATOM     18  O   UNL     1      -0.190   6.316   0.037  0.00  0.00    -0.250 OA
BRANCH  17  19
ATOM     19  O   UNL     1      -2.365   5.923   0.056  0.00  0.00    -0.461 OA
BRANCH  19  20
ATOM     20  C   UNL     1      -2.591   7.357   0.066  0.00  0.00    +0.170 C 
ATOM     21  C   UNL     1      -2.684   7.868  -1.373  0.00  0.00    +0.052 C 
ATOM     22  C   UNL     1      -3.898   7.662   0.801  0.00  0.00    +0.052 C 
ENDBRANCH  19  20
ENDBRANCH  17  19
ENDBRANCH  16  17
ENDBRANCH  15  16
ENDBRANCH  10  15
TORSDOF 5
