REMARK  Name = ZINC08050936
REMARK  7 active torsions:
REMARK  status: ('A' for Active; 'I' for Inactive)
REMARK    1  A    between atoms: C_1  and  N_2
REMARK    2  A    between atoms: N_2  and  C_3
REMARK    3  A    between atoms: N_2  and  C_12
REMARK    4  A    between atoms: C_3  and  C_4
REMARK    5  A    between atoms: C_15  and  S_21
REMARK    6  A    between atoms: C_17  and  N_18
REMARK    7  A    between atoms: S_21  and  N_24
REMARK                            x       y       z     vdW  Elec       q    Type
REMARK                         _______ _______ _______ _____ _____    ______ ____
ROOT
ATOM      1  C   UNL     1       0.000  -0.696  -1.211  0.00  0.00    +0.060 A 
ATOM      2  C   UNL     1       1.201  -1.029  -1.825  0.00  0.00    +0.027 A 
ATOM      3  C   UNL     1       1.196  -1.714  -3.024  0.00  0.00    +0.030 A 
ATOM      4  C   UNL     1      -0.004  -2.067  -3.615  0.00  0.00    +0.107 A 
ATOM      5  C   UNL     1      -1.201  -1.736  -3.007  0.00  0.00    +0.063 A 
ATOM      6  C   UNL     1      -1.203  -1.057  -1.805  0.00  0.00    +0.149 A 
ENDROOT
BRANCH   6   7
ATOM      7  N   UNL     1      -2.485  -0.709  -1.152  0.00  0.00    +0.058 N 
ATOM      8  O   UNL     1      -3.531  -1.023  -1.669  0.00  0.00    -0.126 OA
ATOM      9  O   UNL     1      -2.485  -0.110  -0.102  0.00  0.00    -0.126 OA
ENDBRANCH   6   7
BRANCH   4  10
ATOM     10  S   UNL     1      -0.007  -2.940  -5.145  0.00  0.00    +0.056 S 
ATOM     11  O   UNL     1      -1.259  -2.675  -5.762  0.00  0.00    -0.153 OA
ATOM     12  O   UNL     1       1.231  -2.651  -5.780  0.00  0.00    -0.153 OA
BRANCH  10  13
ATOM     13  N   UNL     1       0.011  -4.557  -4.786  0.00  0.00    -0.204 NA
ATOM     14  H   UNL     1       0.021  -4.848  -3.861  0.00  0.00    +0.144 HD
ATOM     15  H   UNL     1       0.013  -5.213  -5.501  0.00  0.00    +0.144 HD
ENDBRANCH  10  13
ENDBRANCH   4  10
BRANCH   1  17
ATOM     16  C   UNL     1      -0.018   1.461   0.010  0.00  0.00    +0.129 C 
ATOM     17  N   UNL     1       0.002  -0.004   0.002  0.00  0.00    -0.327 N 
BRANCH  17  18
ATOM     18  C   UNL     1       0.024  -0.743   1.267  0.00  0.00    +0.141 C 
BRANCH  18  19
ATOM     19  C   UNL     1      -1.389  -1.016   1.714  0.00  0.00    -0.010 A 
ATOM     20  C   UNL     1      -1.975  -0.218   2.678  0.00  0.00    +0.007 A 
ATOM     21  C   UNL     1      -3.271  -0.467   3.089  0.00  0.00    +0.002 A 
ATOM     22  C   UNL     1      -3.982  -1.516   2.536  0.00  0.00    +0.021 A 
ATOM     23  C   UNL     1      -3.398  -2.315   1.571  0.00  0.00    +0.060 A 
ATOM     24  C   UNL     1      -2.101  -2.062   1.155  0.00  0.00    +0.064 A 
ATOM     25 CL   UNL     1      -1.369  -3.059  -0.062  0.00  0.00    -0.082 Cl
ATOM     26 CL   UNL     1      -4.291  -3.632   0.876  0.00  0.00    -0.082 Cl
ENDBRANCH  18  19
ENDBRANCH  17  18
ENDBRANCH   1  17
TORSDOF 6
