REMARK  Name = ZINC66265265
REMARK  3 active torsions:
REMARK  status: ('A' for Active; 'I' for Inactive)
REMARK    1  A    between atoms: C_4  and  C_7
REMARK    2  A    between atoms: C_10  and  C_12
REMARK    3  A    between atoms: C_17  and  C_19
REMARK                            x       y       z     vdW  Elec       q    Type
REMARK                         _______ _______ _______ _____ _____    ______ ____
ROOT
ATOM      1  C   UNL     1       6.749  -3.384  -0.090  0.00  0.00    +0.051 C 
ATOM      2  C   UNL     1       6.417  -4.625  -0.608  0.00  0.00    +0.153 C 
ATOM      3  C   UNL     1       5.161  -5.005  -1.271  0.00  0.00    +0.364 C 
ATOM      4  O   UNL     1       4.194  -4.296  -1.482  0.00  0.00    -0.243 OA
ATOM      5  O   UNL     1       5.309  -6.307  -1.597  0.00  0.00    -0.402 OA
ATOM      6  C   UNL     1       6.525  -6.719  -1.189  0.00  0.00    +0.233 C 
ATOM      7  N   UNL     1       7.188  -5.751  -0.614  0.00  0.00    -0.205 NA
ENDROOT
BRANCH   1  11
ATOM      8  C   UNL     1       3.652  -0.744   0.165  0.00  0.00    +0.109 A 
ATOM      9  N   UNL     1       4.869  -0.227   0.022  0.00  0.00    -0.247 NA
ATOM     10  C   UNL     1       5.927  -0.980  -0.069  0.00  0.00    +0.127 A 
ATOM     11  C   UNL     1       5.776  -2.369  -0.015  0.00  0.00    +0.034 A 
ATOM     12  S   UNL     1       4.003  -2.497   0.184  0.00  0.00    -0.068 S 
BRANCH   8  16
ATOM     13  C   UNL     1      -0.084   1.246   0.503  0.00  0.00    +0.000 A 
ATOM     14  C   UNL     1       1.078   1.983   0.354  0.00  0.00    +0.001 A 
ATOM     15  C   UNL     1       2.295   1.343   0.244  0.00  0.00    +0.010 A 
ATOM     16  C   UNL     1       2.353  -0.052   0.283  0.00  0.00    +0.007 A 
ATOM     17  C   UNL     1       1.176  -0.789   0.434  0.00  0.00    +0.010 A 
ATOM     18  C   UNL     1      -0.034  -0.136   0.543  0.00  0.00    +0.001 A 
ENDBRANCH   8  16
ENDBRANCH   1  11
BRANCH   6  19
ATOM     19  C   UNL     1       7.044  -8.086  -1.372  0.00  0.00    +0.044 A 
ATOM     20  C   UNL     1       6.261  -9.105  -2.027  0.00  0.00    +0.021 A 
ATOM     21  C   UNL     1       6.850 -10.315  -2.132  0.00  0.00    +0.046 A 
ATOM     22  S   UNL     1       8.430 -10.058  -1.354  0.00  0.00    -0.104 S 
ATOM     23  C   UNL     1       8.288  -8.440  -0.934  0.00  0.00    +0.058 A 
ENDBRANCH   6  19
TORSDOF 3
