REMARK  Name = ZINC16384174
REMARK  3 active torsions:
REMARK  status: ('A' for Active; 'I' for Inactive)
REMARK    1  A    between atoms: C_3  and  N_10
REMARK    2  A    between atoms: C_6  and  N_7
REMARK    3  A    between atoms: N_11  and  C_12
REMARK                            x       y       z     vdW  Elec       q    Type
REMARK                         _______ _______ _______ _____ _____    ______ ____
ROOT
ATOM      1  C   UNL     1       2.053   8.904   0.032  0.00  0.00    +0.026 A 
ATOM      2  C   UNL     1       1.651   7.587   0.034  0.00  0.00    +0.033 A 
ATOM      3  C   UNL     1       0.287   7.273   0.039  0.00  0.00    +0.106 A 
ATOM      4  C   UNL     1      -0.665   8.302   0.054  0.00  0.00    +0.088 A 
ATOM      5  C   UNL     1      -0.253   9.617   0.057  0.00  0.00    +0.082 A 
ATOM      6  C   UNL     1       1.106   9.923   0.047  0.00  0.00    +0.045 A 
ATOM      7 CL   UNL     1      -1.429  10.894   0.075  0.00  0.00    -0.080 Cl
ATOM      8 CL   UNL     1      -2.358   7.921   0.067  0.00  0.00    -0.080 Cl
ENDROOT
BRANCH   6   9
ATOM      9  N   UNL     1       1.518  11.254   0.051  0.00  0.00    -0.357 N 
ATOM     10  H   UNL     1       0.859  11.966   0.061  0.00  0.00    +0.142 HD
ATOM     11  H   UNL     1       2.464  11.469   0.043  0.00  0.00    +0.142 HD
ENDBRANCH   6   9
BRANCH   3  12
ATOM     12  N   UNL     1      -0.115   5.971   0.036  0.00  0.00    -0.146 NA
ATOM     13  N   UNL     1       0.762   5.026   0.022  0.00  0.00    -0.122 NA
BRANCH  13  14
ATOM     14  C   UNL     1       0.362   3.728   0.019  0.00  0.00    +0.213 A 
ATOM     15  N   UNL     1      -0.868   3.225   0.028  0.00  0.00    -0.228 NA
ATOM     16  C   UNL     1      -1.074   1.932   0.017  0.00  0.00    +0.121 A 
ATOM     17  C   UNL     1      -0.013   1.076   0.008  0.00  0.00    +0.068 A 
ATOM     18  S   UNL     1       1.348   2.236   0.001  0.00  0.00    -0.055 S 
ENDBRANCH  13  14
ENDBRANCH   3  12
TORSDOF 3
