REMARK  Name = ZINC62814913
REMARK  5 active torsions:
REMARK  status: ('A' for Active; 'I' for Inactive)
REMARK    1  A    between atoms: C_1  and  C_2
REMARK    2  A    between atoms: C_2  and  C_3
REMARK    3  A    between atoms: C_9  and  N_11
REMARK    4  A    between atoms: C_12  and  C_14
REMARK    5  A    between atoms: C_18  and  C_22
REMARK                            x       y       z     vdW  Elec       q    Type
REMARK                         _______ _______ _______ _____ _____    ______ ____
ROOT
ATOM      1  N   UNL     1       1.337  -2.651  -0.205  0.00  0.00    -0.311 N 
ATOM      2  C   UNL     1       0.902  -3.830   0.284  0.00  0.00    +0.228 C 
ATOM      3  O   UNL     1      -0.017  -4.408  -0.257  0.00  0.00    -0.274 OA
ATOM      4  H   UNL     1       2.072  -2.189   0.228  0.00  0.00    +0.149 HD
ENDROOT
BRANCH   2   5
ATOM      5  C   UNL     1       1.557  -4.429   1.502  0.00  0.00    +0.123 C 
ATOM      6  C   UNL     1       3.040  -4.673   1.215  0.00  0.00    -0.054 C 
ATOM      7  N   UNL     1       3.174  -5.614   0.095  0.00  0.00    +0.383 N 
ATOM      8  C   UNL     1       2.541  -6.892   0.447  0.00  0.00    -0.061 C 
ATOM      9  C   UNL     1       1.054  -6.665   0.727  0.00  0.00    +0.065 C 
ATOM     10  N   UNL     1       0.906  -5.705   1.831  0.00  0.00    -0.309 NA
ATOM     11  C   UNL     1       2.698  -7.875  -0.714  0.00  0.00    -0.012 C 
ATOM     12  H   UNL     1       2.722  -5.229  -0.722  0.00  0.00    -0.085 HD
ATOM     13  H   UNL     1       1.270  -6.085   2.692  0.00  0.00    +0.123 HD
ATOM     14  H   UNL     1       4.152  -5.765  -0.102  0.00  0.00    -0.085 HD
ENDBRANCH   2   5
BRANCH   1  20
ATOM     15  C   UNL     1       0.898  -0.552  -1.380  0.00  0.00    +0.009 C 
ATOM     16  C   UNL     1       2.394  -0.233  -1.397  0.00  0.00    +0.005 C 
ATOM     17  C   UNL     1       3.027  -0.823  -2.659  0.00  0.00    +0.000 C 
ATOM     18  C   UNL     1       2.829  -2.340  -2.667  0.00  0.00    +0.002 C 
ATOM     19  C   UNL     1       1.333  -2.659  -2.650  0.00  0.00    +0.022 C 
ATOM     20  C   UNL     1       0.700  -2.069  -1.389  0.00  0.00    +0.076 C 
BRANCH  15  22
ATOM     21  C   UNL     1       0.352   1.564  -0.170  0.00  0.00    +0.004 C 
ATOM     22  C   UNL     1       0.265   0.038  -0.119  0.00  0.00    +0.002 C 
ENDBRANCH  15  22
ENDBRANCH   1  20
TORSDOF 3
