REMARK  Name = ZINC20046844
REMARK  9 active torsions:
REMARK  status: ('A' for Active; 'I' for Inactive)
REMARK    1  A    between atoms: C_1  and  C_2
REMARK    2  A    between atoms: C_4  and  C_7
REMARK    3  A    between atoms: C_7  and  N_8
REMARK    4  A    between atoms: C_11  and  C_15
REMARK    5  A    between atoms: C_11  and  C_16
REMARK    6  A    between atoms: C_19  and  C_22
REMARK    7  A    between atoms: C_22  and  C_23
REMARK    8  A    between atoms: C_22  and  C_24
REMARK    9  A    between atoms: C_22  and  C_25
REMARK                            x       y       z     vdW  Elec       q    Type
REMARK                         _______ _______ _______ _____ _____    ______ ____
ROOT
ATOM      1  N   UNL     1      -1.691  -3.832  -1.387  0.00  0.00    -0.218 N 
ATOM      2  C   UNL     1      -2.693  -3.422  -2.190  0.00  0.00    +0.251 C 
ATOM      3  O   UNL     1      -3.573  -2.633  -1.918  0.00  0.00    -0.272 OA
ATOM      4  C   UNL     1      -2.491  -4.152  -3.503  0.00  0.00    +0.135 C 
ATOM      5  N   UNL     1      -1.286  -4.965  -3.265  0.00  0.00    -0.281 N 
ATOM      6  C   UNL     1      -0.890  -4.706  -2.006  0.00  0.00    +0.310 C 
ATOM      7  O   UNL     1       0.085  -5.213  -1.487  0.00  0.00    -0.252 OA
ATOM      8  C   UNL     1      -3.693  -5.048  -3.811  0.00  0.00    +0.047 C 
ATOM      9  H   UNL     1      -0.859  -5.566  -3.895  0.00  0.00    +0.152 HD
ENDROOT
BRANCH   4  10
ATOM     10  C   UNL     1      -2.258  -3.172  -4.624  0.00  0.00    -0.015 A 
ATOM     11  C   UNL     1      -2.822  -1.911  -4.569  0.00  0.00    +0.006 A 
ATOM     12  C   UNL     1      -2.608  -1.013  -5.597  0.00  0.00    +0.004 A 
ATOM     13  C   UNL     1      -1.829  -1.375  -6.680  0.00  0.00    -0.042 A 
ATOM     14  C   UNL     1      -1.264  -2.635  -6.735  0.00  0.00    +0.004 A 
ATOM     15  C   UNL     1      -1.474  -3.532  -5.704  0.00  0.00    +0.006 A 
BRANCH  13  16
ATOM     16  C   UNL     1      -1.596  -0.395  -7.802  0.00  0.00    -0.013 C 
ATOM     17  C   UNL     1      -0.907   0.856  -7.252  0.00  0.00    +0.015 C 
ATOM     18  C   UNL     1      -0.707  -1.041  -8.866  0.00  0.00    +0.015 C 
ATOM     19  C   UNL     1      -2.938  -0.006  -8.425  0.00  0.00    +0.015 C 
ENDBRANCH  13  16
ENDBRANCH   4  10
BRANCH   1  20
ATOM     20  C   UNL     1      -1.500  -3.372  -0.010  0.00  0.00    +0.176 C 
BRANCH  20  24
ATOM     21  C   UNL     1      -0.018   1.503   0.010  0.00  0.00    +0.089 C 
ATOM     22  C   UNL     1       0.002  -0.004   0.002  0.00  0.00    +0.135 A 
ATOM     23  C   UNL     1      -1.077  -0.810   0.003  0.00  0.00    +0.072 A 
ATOM     24  C   UNL     1      -0.627  -2.143  -0.007  0.00  0.00    +0.102 A 
ATOM     25  N   UNL     1       0.676  -2.130  -0.013  0.00  0.00    -0.081 NA
ATOM     26  O   UNL     1       1.098  -0.778  -0.013  0.00  0.00    -0.360 OA
ENDBRANCH  20  24
ENDBRANCH   1  20
TORSDOF 4
