REMARK  Name = ZINC64760757
REMARK  7 active torsions:
REMARK  status: ('A' for Active; 'I' for Inactive)
REMARK    1  A    between atoms: C_1  and  C_2
REMARK    2  A    between atoms: C_5  and  N_9
REMARK    3  A    between atoms: C_6  and  C_8
REMARK    4  A    between atoms: C_10  and  C_12
REMARK    5  A    between atoms: C_14  and  C_21
REMARK    6  A    between atoms: C_21  and  C_22
REMARK    7  A    between atoms: C_21  and  C_23
REMARK                            x       y       z     vdW  Elec       q    Type
REMARK                         _______ _______ _______ _____ _____    ______ ____
ROOT
ATOM      1  N   UNL     1       0.057  -4.169  -0.021  0.00  0.00    -0.280 N 
ATOM      2  C   UNL     1      -0.042  -4.838  -1.187  0.00  0.00    +0.267 C 
ATOM      3  O   UNL     1      -0.055  -4.228  -2.238  0.00  0.00    -0.268 OA
ATOM      4  H   UNL     1       0.134  -4.657   0.814  0.00  0.00    +0.155 HD
ENDROOT
BRANCH   2   5
ATOM      5  C   UNL     1      -0.134  -6.316  -1.187  0.00  0.00    +0.130 A 
ATOM      6  C   UNL     1      -0.232  -7.016  -2.410  0.00  0.00    +0.056 A 
ATOM      7  C   UNL     1      -0.316  -8.367  -2.395  0.00  0.00    +0.050 A 
ATOM      8  N   UNL     1      -0.303  -9.022  -1.196  0.00  0.00    -0.218 N 
ATOM      9  C   UNL     1      -0.207  -8.309  -0.025  0.00  0.00    +0.157 A 
ATOM     10  N   UNL     1      -0.120  -6.977  -0.045  0.00  0.00    -0.223 NA
ATOM     11  C   UNL     1      -0.219  -9.236   1.013  0.00  0.00    +0.069 A 
ATOM     12  C   UNL     1      -0.323 -10.496   0.450  0.00  0.00    +0.137 A 
ATOM     13  N   UNL     1      -0.373 -10.379  -0.860  0.00  0.00    -0.173 NA
BRANCH   7  14
ATOM     14  C   UNL     1      -0.421  -9.139  -3.685  0.00  0.00    +0.032 C 
ATOM     15  C   UNL     1       0.766 -10.096  -3.806  0.00  0.00    +0.014 C 
ATOM     16  C   UNL     1      -1.725  -9.941  -3.694  0.00  0.00    +0.014 C 
ENDBRANCH   7  14
ENDBRANCH   2   5
BRANCH   1  21
ATOM     17  C   UNL     1       0.024   1.503   0.005  0.00  0.00    +0.044 C 
ATOM     18  C   UNL     1       0.033  -0.004  -0.002  0.00  0.00    -0.050 A 
ATOM     19  C   UNL     1       0.631  -0.685  -1.046  0.00  0.00    +0.005 A 
ATOM     20  C   UNL     1       0.641  -2.066  -1.055  0.00  0.00    +0.024 A 
ATOM     21  C   UNL     1       0.050  -2.771  -0.014  0.00  0.00    +0.037 A 
ATOM     22  C   UNL     1      -0.550  -2.083   1.033  0.00  0.00    -0.029 A 
ATOM     23  C   UNL     1      -0.551  -0.702   1.039  0.00  0.00    +0.008 A 
ATOM     24  C   UNL     1      -1.192  -2.843   2.165  0.00  0.00    +0.045 C 
ENDBRANCH   1  21
TORSDOF 3
