REMARK  Name = ZINC60371419
REMARK  11 active torsions:
REMARK  status: ('A' for Active; 'I' for Inactive)
REMARK    1  A    between atoms: C_1  and  C_2
REMARK    2  A    between atoms: C_3  and  N_11
REMARK    3  A    between atoms: C_7  and  N_8
REMARK    4  A    between atoms: C_12  and  C_14
REMARK    5  A    between atoms: C_14  and  C_15
REMARK    6  A    between atoms: C_15  and  N_16
REMARK    7  A    between atoms: N_16  and  C_17
REMARK    8  A    between atoms: N_16  and  C_25
REMARK    9  A    between atoms: C_17  and  C_18
REMARK   10  A    between atoms: C_18  and  C_19
REMARK   11  A    between atoms: C_25  and  C_26
REMARK                            x       y       z     vdW  Elec       q    Type
REMARK                         _______ _______ _______ _____ _____    ______ ____
ROOT
ATOM      1  N   UNL     1      -1.089  -0.752  -6.494  0.00  0.00    +0.383 N 
ATOM      2  H   UNL     1      -1.884  -0.149  -6.343  0.00  0.00    -0.081 HD
ENDROOT
BRANCH   1   3
ATOM      3  C   UNL     1      -0.893  -1.608  -5.317  0.00  0.00    -0.069 C 
BRANCH   3   4
ATOM      4  C   UNL     1      -0.769  -0.736  -4.066  0.00  0.00    +0.077 C 
BRANCH   4   6
ATOM      5  N   UNL     1      -0.432  -1.061  -1.637  0.00  0.00    -0.285 N 
ATOM      6  C   UNL     1      -0.568  -1.614  -2.858  0.00  0.00    +0.215 C 
ATOM      7  O   UNL     1      -0.528  -2.820  -2.985  0.00  0.00    -0.276 OA
ATOM      8  H   UNL     1      -0.384  -0.096  -1.544  0.00  0.00    +0.155 HD
BRANCH   5  11
ATOM      9  C   UNL     1      -1.569  -0.097   0.787  0.00  0.00    +0.048 C 
ATOM     10  C   UNL     1      -0.902  -1.446   0.701  0.00  0.00    +0.001 A 
ATOM     11  C   UNL     1      -0.360  -1.877  -0.503  0.00  0.00    +0.038 A 
ATOM     12  C   UNL     1       0.254  -3.120  -0.578  0.00  0.00    +0.024 A 
ATOM     13  C   UNL     1       0.323  -3.924   0.543  0.00  0.00    +0.004 A 
ATOM     14  C   UNL     1      -0.218  -3.492   1.740  0.00  0.00    +0.033 A 
ATOM     15  C   UNL     1      -0.825  -2.251   1.819  0.00  0.00    +0.131 A 
BRANCH  15  16
ATOM     16  N   UNL     1      -1.397  -1.790   3.104  0.00  0.00    +0.057 N 
ATOM     17  O   UNL     1      -1.458  -0.607   3.349  0.00  0.00    -0.126 OA
ATOM     18  O   UNL     1      -1.805  -2.595   3.908  0.00  0.00    -0.126 OA
ENDBRANCH  15  16
ENDBRANCH   5  11
ENDBRANCH   4   6
ENDBRANCH   3   4
ENDBRANCH   1   3
BRANCH   1  19
ATOM     19  C   UNL     1      -1.329  -1.591  -7.676  0.00  0.00    -0.072 C 
BRANCH  19  20
ATOM     20  C   UNL     1      -1.690  -0.702  -8.867  0.00  0.00    +0.037 C 
BRANCH  20  21
ATOM     21  C   UNL     1      -2.053  -1.567 -10.047  0.00  0.00    +0.040 A 
ATOM     22  C   UNL     1      -3.270  -1.389 -10.677  0.00  0.00    +0.023 A 
ATOM     23  C   UNL     1      -3.594  -2.189 -11.761  0.00  0.00    +0.003 A 
ATOM     24  C   UNL     1      -2.676  -3.144 -12.174  0.00  0.00    +0.020 A 
ATOM     25  C   UNL     1      -1.478  -3.264 -11.495  0.00  0.00    +0.111 A 
ATOM     26  N   UNL     1      -1.202  -2.481 -10.470  0.00  0.00    -0.260 NA
ENDBRANCH  20  21
ENDBRANCH  19  20
ENDBRANCH   1  19
BRANCH   1  27
ATOM     27  C   UNL     1       0.112   0.067  -6.709  0.00  0.00    -0.043 C 
BRANCH  27  28
ATOM     28  C   UNL     1       1.286  -0.832  -7.000  0.00  0.00    -0.064 A 
ATOM     29  C   UNL     1       2.018  -1.371  -5.958  0.00  0.00    +0.004 A 
ATOM     30  C   UNL     1       3.095  -2.195  -6.223  0.00  0.00    +0.038 A 
ATOM     31  C   UNL     1       3.441  -2.481  -7.532  0.00  0.00    +0.123 A 
ATOM     32  C   UNL     1       2.708  -1.941  -8.575  0.00  0.00    +0.038 A 
ATOM     33  C   UNL     1       1.628  -1.121  -8.307  0.00  0.00    +0.004 A 
ATOM     34  F   UNL     1       4.494  -3.286  -7.793  0.00  0.00    -0.205 F 
ENDBRANCH  27  28
ENDBRANCH   1  27
TORSDOF 10
