REMARK  Name = ZINC00817706
REMARK  4 active torsions:
REMARK  status: ('A' for Active; 'I' for Inactive)
REMARK    1  A    between atoms: C_1  and  C_2
REMARK    2  A    between atoms: C_7  and  C_16
REMARK    3  A    between atoms: C_20  and  O_23
REMARK    4  A    between atoms: C_21  and  O_22
REMARK                            x       y       z     vdW  Elec       q    Type
REMARK                         _______ _______ _______ _____ _____    ______ ____
ROOT
ATOM      1  C   UNL     1      -0.018   1.503   0.010  0.00  0.00    +0.067 C 
ATOM      2  C   UNL     1       0.002  -0.004   0.002  0.00  0.00    +0.061 A 
ATOM      3  C   UNL     1       0.008  -0.814  -1.140  0.00  0.00    +0.052 A 
ATOM      4  C   UNL     1       0.029  -2.100  -0.730  0.00  0.00    +0.073 A 
ATOM      5  N   UNL     1       0.028  -2.100   0.647  0.00  0.00    -0.238 N 
ATOM      6  N   UNL     1       0.023  -0.775   1.065  0.00  0.00    -0.174 NA
ATOM      7  C   UNL     1       0.029  -3.338   1.429  0.00  0.00    +0.226 C 
ATOM      8  N   UNL     1       0.626  -4.414   0.626  0.00  0.00    -0.318 N 
ATOM      9  C   UNL     1       0.357  -4.530  -0.737  0.00  0.00    +0.038 A 
ATOM     10  C   UNL     1       0.055  -3.370  -1.479  0.00  0.00    +0.021 A 
ATOM     11  C   UNL     1      -0.201  -3.454  -2.837  0.00  0.00    +0.012 A 
ATOM     12  C   UNL     1      -0.167  -4.688  -3.462  0.00  0.00    +0.001 A 
ATOM     13  C   UNL     1       0.121  -5.829  -2.735  0.00  0.00    +0.002 A 
ATOM     14  C   UNL     1       0.382  -5.756  -1.378  0.00  0.00    +0.023 A 
ATOM     15  H   UNL     1       1.218  -5.054   1.051  0.00  0.00    +0.148 HD
ENDROOT
BRANCH   7  16
ATOM     16  C   UNL     1      -1.387  -3.705   1.793  0.00  0.00    +0.040 A 
ATOM     17  C   UNL     1      -2.058  -4.675   1.069  0.00  0.00    +0.011 A 
ATOM     18  C   UNL     1      -3.356  -5.013   1.400  0.00  0.00    +0.004 A 
ATOM     19  C   UNL     1      -3.990  -4.385   2.456  0.00  0.00    +0.049 A 
ATOM     20  C   UNL     1      -3.324  -3.413   3.185  0.00  0.00    +0.159 A 
ATOM     21  C   UNL     1      -2.015  -3.076   2.855  0.00  0.00    +0.165 A 
BRANCH  21  22
ATOM     22  O   UNL     1      -1.355  -2.127   3.571  0.00  0.00    -0.503 OA
ATOM     23  H   UNL     1      -1.466  -1.228   3.231  0.00  0.00    +0.292 HD
ENDBRANCH  21  22
BRANCH  20  24
ATOM     24  O   UNL     1      -3.947  -2.793   4.223  0.00  0.00    -0.503 OA
ATOM     25  H   UNL     1      -3.825  -3.235   5.075  0.00  0.00    +0.292 HD
ENDBRANCH  20  24
ENDBRANCH   7  16
TORSDOF 3
