REMARK  Name = ZINC28805027
REMARK  10 active torsions:
REMARK  status: ('A' for Active; 'I' for Inactive)
REMARK    1  A    between atoms: C_1  and  C_2
REMARK    2  A    between atoms: C_3  and  C_16
REMARK    3  A    between atoms: C_4  and  C_15
REMARK    4  A    between atoms: N_5  and  C_7
REMARK    5  A    between atoms: C_7  and  C_8
REMARK    6  A    between atoms: C_16  and  O_18
REMARK    7  A    between atoms: O_18  and  C_19
REMARK    8  A    between atoms: C_19  and  C_20
REMARK    9  A    between atoms: N_22  and  C_23
REMARK   10  A    between atoms: C_24  and  C_31
REMARK                            x       y       z     vdW  Elec       q    Type
REMARK                         _______ _______ _______ _____ _____    ______ ____
ROOT
ATOM      1  O   UNL     1       2.483   4.082   0.000  0.00  0.00    -0.452 OA
ENDROOT
BRANCH   1   2
ATOM      2  C   UNL     1       2.641   5.420   0.006  0.00  0.00    +0.343 C 
ATOM      3  O   UNL     1       1.668   6.147   0.019  0.00  0.00    -0.245 OA
BRANCH   2   6
ATOM      4  C   UNL     1       4.372   6.138   2.567  0.00  0.00    +0.068 C 
ATOM      5  C   UNL     1       4.777   6.326   1.128  0.00  0.00    +0.074 A 
ATOM      6  C   UNL     1       3.995   6.001  -0.004  0.00  0.00    +0.102 A 
ATOM      7  C   UNL     1       4.740   6.326  -1.121  0.00  0.00    +0.051 A 
ATOM      8  N   UNL     1       5.907   6.830  -0.692  0.00  0.00    -0.263 N 
ATOM      9  N   UNL     1       5.910   6.817   0.708  0.00  0.00    -0.175 NA
ATOM     10  C   UNL     1       4.318   6.150  -2.557  0.00  0.00    +0.066 C 
BRANCH   8  11
ATOM     11  C   UNL     1       6.999   7.307  -1.545  0.00  0.00    +0.180 C 
BRANCH  11  12
ATOM     12  C   UNL     1       7.933   6.165  -1.851  0.00  0.00    -0.008 A 
ATOM     13  C   UNL     1       7.846   5.506  -3.063  0.00  0.00    +0.007 A 
ATOM     14  C   UNL     1       8.703   4.459  -3.344  0.00  0.00    +0.000 A 
ATOM     15  C   UNL     1       9.648   4.070  -2.413  0.00  0.00    +0.001 A 
ATOM     16  C   UNL     1       9.736   4.728  -1.201  0.00  0.00    +0.020 A 
ATOM     17  C   UNL     1       8.882   5.780  -0.921  0.00  0.00    +0.046 A 
ATOM     18 CL   UNL     1       8.997   6.612   0.598  0.00  0.00    -0.083 Cl
ENDBRANCH  11  12
ENDBRANCH   8  11
ENDBRANCH   2   6
ENDBRANCH   1   2
BRANCH   1  19
ATOM     19  C   UNL     1       1.121   3.579   0.011  0.00  0.00    +0.328 C 
BRANCH  19  20
ATOM     20  C   UNL     1       1.141   2.072   0.002  0.00  0.00    +0.255 C 
ATOM     21  O   UNL     1       2.200   1.480  -0.011  0.00  0.00    -0.272 OA
ATOM     22  N   UNL     1      -0.017   1.382   0.010  0.00  0.00    -0.277 N 
ATOM     23  H   UNL     1      -0.977   1.919   0.022  0.00  0.00    +0.155 HD
BRANCH  22  24
ATOM     24  C   UNL     1       0.002  -0.004   0.002  0.00  0.00    +0.084 A 
ATOM     25  C   UNL     1      -1.071  -0.879   0.013  0.00  0.00    +0.068 A 
ATOM     26  C   UNL     1      -0.776  -2.312  -0.003  0.00  0.00    -0.023 A 
ATOM     27  C   UNL     1       0.532  -2.626  -0.017  0.00  0.00    -0.004 A 
ATOM     28  S   UNL     1       1.372  -1.061  -0.016  0.00  0.00    -0.077 S 
ATOM     29  C   UNL     1       0.754  -4.114  -0.030  0.00  0.00    +0.043 C 
ATOM     30  C   UNL     1      -0.606  -4.707  -0.459  0.00  0.00    +0.010 C 
ATOM     31  C   UNL     1      -1.586  -3.609  -0.000  0.00  0.00    +0.037 C 
BRANCH  25  32
ATOM     32  C   UNL     1      -2.452  -0.388   0.036  0.00  0.00    +0.244 C 
ATOM     33  O   UNL     1      -3.041  -0.178  -1.008  0.00  0.00    -0.270 OA
ATOM     34  N   UNL     1      -3.069  -0.167   1.214  0.00  0.00    -0.325 N 
ATOM     35  H   UNL     1      -4.105   0.202   1.231  0.00  0.00    +0.145 HD
ATOM     36  H   UNL     1      -2.537  -0.356   2.158  0.00  0.00    +0.145 HD
ENDBRANCH  25  32
ENDBRANCH  22  24
ENDBRANCH  19  20
ENDBRANCH   1  19
TORSDOF 8
