REMARK  Name = ZINC05276925
REMARK  9 active torsions:
REMARK  status: ('A' for Active; 'I' for Inactive)
REMARK    1  A    between atoms: C_1  and  C_2
REMARK    2  A    between atoms: C_3  and  O_29
REMARK    3  A    between atoms: C_5  and  C_10
REMARK    4  A    between atoms: C_7  and  O_8
REMARK    5  A    between atoms: O_8  and  C_9
REMARK    6  A    between atoms: C_11  and  C_28
REMARK    7  A    between atoms: C_16  and  C_18
REMARK    8  A    between atoms: C_23  and  C_24
REMARK    9  A    between atoms: O_29  and  C_30
REMARK                            x       y       z     vdW  Elec       q    Type
REMARK                         _______ _______ _______ _____ _____    ______ ____
ROOT
ATOM      1  C   UNL     1      -1.102   3.945   0.257  0.00  0.00    +0.038 C 
ATOM      2  C   UNL     1      -0.520   5.123  -0.011  0.00  0.00    +0.018 C 
ATOM      3  N   UNL     1      -0.043   5.926   0.998  0.00  0.00    -0.273 N 
ATOM      4  C   UNL     1      -0.118   5.606   2.296  0.00  0.00    +0.304 C 
ATOM      5  O   UNL     1       0.332   6.378   3.120  0.00  0.00    -0.252 OA
ATOM      6  N   UNL     1      -0.677   4.455   2.717  0.00  0.00    -0.288 N 
ATOM      7  C   UNL     1      -1.217   3.527   1.709  0.00  0.00    +0.141 C 
ATOM      8  C   UNL     1      -0.387   5.574  -1.443  0.00  0.00    +0.061 C 
ATOM      9  H   UNL     1       0.371   6.770   0.756  0.00  0.00    +0.156 HD
ATOM     10  H   UNL     1      -0.723   4.242   3.662  0.00  0.00    +0.151 HD
ENDROOT
BRANCH   1  15
ATOM     11  C   UNL     1      -3.065   0.639  -3.903  0.00  0.00    +0.055 C 
ATOM     12  C   UNL     1      -2.543   1.518  -2.796  0.00  0.00    +0.072 A 
ATOM     13  C   UNL     1      -3.418   2.171  -1.934  0.00  0.00    +0.225 A 
ATOM     14  N   UNL     1      -2.925   2.938  -0.969  0.00  0.00    -0.193 NA
ATOM     15  C   UNL     1      -1.612   3.086  -0.823  0.00  0.00    +0.167 A 
ATOM     16  N   UNL     1      -0.749   2.480  -1.633  0.00  0.00    -0.193 NA
ATOM     17  C   UNL     1      -1.175   1.695  -2.614  0.00  0.00    +0.225 A 
BRANCH  17  18
ATOM     18  O   UNL     1      -0.289   1.077  -3.433  0.00  0.00    -0.479 OA
ATOM     19  C   UNL     1       1.096   1.361  -3.222  0.00  0.00    +0.279 C 
ENDBRANCH  17  18
BRANCH  13  20
ATOM     20  O   UNL     1      -4.758   2.025  -2.077  0.00  0.00    -0.479 OA
ATOM     21  C   UNL     1      -5.590   2.728  -1.152  0.00  0.00    +0.279 C 
ENDBRANCH  13  20
ENDBRANCH   1  15
BRANCH   7  22
ATOM     22  C   UNL     1      -2.676   3.308   2.015  0.00  0.00    -0.011 A 
ATOM     23  C   UNL     1      -3.506   4.391   2.238  0.00  0.00    +0.006 A 
ATOM     24  C   UNL     1      -4.843   4.190   2.524  0.00  0.00    +0.000 A 
ATOM     25  C   UNL     1      -5.352   2.906   2.581  0.00  0.00    +0.001 A 
ATOM     26  C   UNL     1      -4.524   1.823   2.353  0.00  0.00    +0.013 A 
ATOM     27  C   UNL     1      -3.186   2.025   2.067  0.00  0.00    +0.060 A 
BRANCH  27  28
ATOM     28  C   UNL     1      -2.283   0.844   1.819  0.00  0.00    +0.418 C 
ATOM     29  F   UNL     1      -3.027  -0.338   1.903  0.00  0.00    -0.166 F 
ATOM     30  F   UNL     1      -1.266   0.825   2.779  0.00  0.00    -0.166 F 
ATOM     31  F   UNL     1      -1.718   0.950   0.543  0.00  0.00    -0.166 F 
ENDBRANCH  27  28
ENDBRANCH   7  22
TORSDOF 5
