REMARK  Name = ZINC16886278
REMARK  7 active torsions:
REMARK  status: ('A' for Active; 'I' for Inactive)
REMARK    1  A    between atoms: C_1  and  C_2
REMARK    2  A    between atoms: C_4  and  C_24
REMARK    3  A    between atoms: C_5  and  C_9
REMARK    4  A    between atoms: C_6  and  C_8
REMARK    5  A    between atoms: C_9  and  C_10
REMARK    6  A    between atoms: C_11  and  C_23
REMARK    7  A    between atoms: C_15  and  O_16
REMARK                            x       y       z     vdW  Elec       q    Type
REMARK                         _______ _______ _______ _____ _____    ______ ____
ROOT
ATOM      1  C   UNL     1       0.373   1.071   1.481  0.00  0.00    +0.039 A 
ATOM      2  C   UNL     1      -0.661   1.645   2.198  0.00  0.00    +0.050 A 
ATOM      3  N   UNL     1      -0.397   2.236   3.353  0.00  0.00    -0.219 NA
ATOM      4  C   UNL     1       0.841   2.292   3.821  0.00  0.00    +0.224 A 
ATOM      5  N   UNL     1       1.858   1.759   3.162  0.00  0.00    -0.179 NA
ATOM      6  C   UNL     1       1.664   1.147   2.000  0.00  0.00    +0.221 A 
ATOM      7  N   UNL     1       1.077   2.924   5.032  0.00  0.00    -0.263 N 
ATOM      8  C   UNL     1       2.368   2.993   5.538  0.00  0.00    +0.164 A 
ATOM      9  N   UNL     1       2.790   3.546   6.659  0.00  0.00    -0.233 NA
ATOM     10  C   UNL     1       4.066   3.522   6.995  0.00  0.00    +0.120 A 
ATOM     11  C   UNL     1       4.942   2.914   6.159  0.00  0.00    +0.068 A 
ATOM     12  S   UNL     1       3.840   2.368   4.862  0.00  0.00    -0.061 S 
ATOM     13  C   UNL     1      -2.073   1.593   1.673  0.00  0.00    +0.066 C 
ATOM     14  H   UNL     1       0.341   3.319   5.525  0.00  0.00    +0.157 HD
ENDROOT
BRANCH   6  15
ATOM     15  O   UNL     1       2.708   0.602   1.328  0.00  0.00    -0.492 OA
ATOM     16  H   UNL     1       3.136   1.209   0.709  0.00  0.00    +0.294 HD
ENDBRANCH   6  15
BRANCH   1  17
ATOM     17  C   UNL     1       0.110   0.385   0.165  0.00  0.00    +0.078 C 
BRANCH  17  22
ATOM     18  C   UNL     1      -2.783  -4.529   1.099  0.00  0.00    +0.044 C 
ATOM     19  C   UNL     1      -2.028  -3.248   0.855  0.00  0.00    -0.050 A 
ATOM     20  C   UNL     1      -2.619  -2.224   0.139  0.00  0.00    +0.007 A 
ATOM     21  C   UNL     1      -1.927  -1.048  -0.085  0.00  0.00    -0.046 A 
ATOM     22  C   UNL     1      -0.644  -0.896   0.408  0.00  0.00    -0.037 A 
ATOM     23  C   UNL     1      -0.052  -1.923   1.120  0.00  0.00    -0.046 A 
ATOM     24  C   UNL     1      -0.745  -3.097   1.347  0.00  0.00    +0.007 A 
ATOM     25  C   UNL     1       1.349  -1.760   1.652  0.00  0.00    +0.044 C 
ATOM     26  C   UNL     1      -2.571   0.069  -0.865  0.00  0.00    +0.044 C 
ENDBRANCH  17  22
ENDBRANCH   1  17
TORSDOF 3
