REMARK  Name = ZINC33033209
REMARK  15 active torsions:
REMARK  status: ('A' for Active; 'I' for Inactive)
REMARK    1  A    between atoms: C_1  and  C_2
REMARK    2  A    between atoms: C_5  and  C_35
REMARK    3  A    between atoms: C_6  and  S_8
REMARK    4  A    between atoms: S_8  and  N_11
REMARK    5  A    between atoms: N_11  and  C_12
REMARK    6  A    between atoms: C_14  and  C_24
REMARK    7  A    between atoms: C_17  and  N_18
REMARK    8  A    between atoms: N_26  and  C_27
REMARK    9  A    between atoms: N_26  and  C_31
REMARK   10  A    between atoms: C_27  and  C_28
REMARK   11  A    between atoms: C_28  and  C_29
REMARK   12  A    between atoms: C_28  and  C_30
REMARK   13  A    between atoms: C_31  and  C_32
REMARK   14  A    between atoms: C_32  and  C_33
REMARK   15  A    between atoms: C_32  and  C_34
REMARK                            x       y       z     vdW  Elec       q    Type
REMARK                         _______ _______ _______ _____ _____    ______ ____
ROOT
ATOM      1  C   UNL     1      -3.740   0.912   2.525  0.00  0.00    +0.070 A 
ATOM      2  C   UNL     1      -3.795   1.593   1.324  0.00  0.00    +0.039 A 
ATOM      3  C   UNL     1      -4.073   2.963   1.314  0.00  0.00    +0.039 A 
ATOM      4  C   UNL     1      -4.294   3.639   2.517  0.00  0.00    +0.015 A 
ATOM      5  C   UNL     1      -4.238   2.955   3.712  0.00  0.00    +0.026 A 
ATOM      6  C   UNL     1      -3.967   1.592   3.725  0.00  0.00    +0.052 A 
ENDROOT
BRANCH   6   7
ATOM      7  N   UNL     1      -3.918   0.903   4.935  0.00  0.00    -0.332 N 
ATOM      8  C   UNL     1      -4.099   1.820   6.070  0.00  0.00    +0.086 C 
ATOM      9  C   UNL     1      -3.959   1.040   7.379  0.00  0.00    -0.063 C 
ATOM     10  N   UNL     1      -4.956  -0.040   7.412  0.00  0.00    +0.381 N 
ATOM     11  C   UNL     1      -4.774  -0.956   6.278  0.00  0.00    -0.063 C 
ATOM     12  C   UNL     1      -4.914  -0.176   4.968  0.00  0.00    +0.086 C 
ATOM     13  H   UNL     1      -4.848  -0.609   8.348  0.00  0.00    -0.086 HD
ATOM     14  H   UNL     1      -5.966   0.392   7.360  0.00  0.00    -0.086 HD
ENDBRANCH   6   7
BRANCH   3  15
ATOM     15  C   UNL     1      -4.134   3.695   0.035  0.00  0.00    +0.247 C 
ATOM     16  O   UNL     1      -3.596   3.237  -0.955  0.00  0.00    -0.270 OA
ATOM     17  N   UNL     1      -4.786   4.872  -0.038  0.00  0.00    -0.297 N 
BRANCH  17  18
ATOM     18  C   UNL     1      -4.995   5.515  -1.338  0.00  0.00    +0.111 C 
BRANCH  18  19
ATOM     19  C   UNL     1      -6.382   5.151  -1.871  0.00  0.00    +0.000 C 
ATOM     20  C   UNL     1      -6.619   5.862  -3.204  0.00  0.00    +0.009 C 
ATOM     21  C   UNL     1      -6.467   3.637  -2.078  0.00  0.00    +0.009 C 
ENDBRANCH  18  19
ENDBRANCH  17  18
BRANCH  17  22
ATOM     22  C   UNL     1      -5.287   5.509   1.183  0.00  0.00    +0.111 C 
BRANCH  22  23
ATOM     23  C   UNL     1      -4.153   6.284   1.856  0.00  0.00    +0.000 C 
ATOM     24  C   UNL     1      -4.431   6.395   3.356  0.00  0.00    +0.009 C 
ATOM     25  C   UNL     1      -2.830   5.547   1.635  0.00  0.00    +0.009 C 
ENDBRANCH  22  23
ENDBRANCH  17  22
ENDBRANCH   3  15
BRANCH   1  26
ATOM     26  N   UNL     1      -3.461  -0.461   2.540  0.00  0.00    -0.214 N 
ATOM     27  H   UNL     1      -2.876  -0.894   3.364  0.00  0.00    +0.174 HD
BRANCH  26  28
ATOM     28  S   UNL     1      -4.013  -1.430   1.316  0.00  0.00    +0.073 S 
ATOM     29  O   UNL     1      -5.374  -1.082   1.104  0.00  0.00    -0.150 OA
ATOM     30  O   UNL     1      -3.606  -2.755   1.633  0.00  0.00    -0.150 OA
BRANCH  28  36
ATOM     31  C   UNL     1      -3.891   0.513  -3.535  0.00  0.00    +0.044 C 
ATOM     32  C   UNL     1      -3.144  -0.074  -2.365  0.00  0.00    -0.049 A 
ATOM     33  C   UNL     1      -1.774  -0.251  -2.438  0.00  0.00    +0.004 A 
ATOM     34  C   UNL     1      -1.089  -0.790  -1.365  0.00  0.00    +0.005 A 
ATOM     35  C   UNL     1      -1.773  -1.150  -0.218  0.00  0.00    -0.024 A 
ATOM     36  C   UNL     1      -3.142  -0.972  -0.145  0.00  0.00    +0.112 A 
ATOM     37  C   UNL     1      -3.827  -0.434  -1.219  0.00  0.00    +0.032 A 
ATOM     38  C   UNL     1      -1.025  -1.730   0.954  0.00  0.00    +0.046 C 
ENDBRANCH  28  36
ENDBRANCH  26  28
ENDBRANCH   1  26
TORSDOF 9
