REMARK  Name = ZINC13495354
REMARK  10 active torsions:
REMARK  status: ('A' for Active; 'I' for Inactive)
REMARK    1  A    between atoms: C_1  and  C_2
REMARK    2  A    between atoms: C_2  and  C_3
REMARK    3  A    between atoms: C_3  and  C_5
REMARK    4  A    between atoms: C_3  and  N_17
REMARK    5  A    between atoms: N_9  and  C_10
REMARK    6  A    between atoms: C_10  and  C_11
REMARK    7  A    between atoms: N_17  and  C_18
REMARK    8  A    between atoms: N_17  and  C_25
REMARK    9  A    between atoms: C_18  and  C_19
REMARK   10  A    between atoms: C_25  and  C_26
REMARK                            x       y       z     vdW  Elec       q    Type
REMARK                         _______ _______ _______ _____ _____    ______ ____
ROOT
ATOM      1  N   UNL     1      -1.910  -0.126  -1.004  0.00  0.00    -0.284 NA
ENDROOT
BRANCH   1   2
ATOM      2  C   UNL     1      -1.394  -0.519   0.314  0.00  0.00    +0.127 C 
BRANCH   2   3
ATOM      3  C   UNL     1      -0.074   0.164   0.561  0.00  0.00    +0.168 A 
ATOM      4  N   UNL     1       0.174   1.447   0.460  0.00  0.00    -0.112 NA
ATOM      5  N   UNL     1       1.415   1.637   0.751  0.00  0.00    -0.023 NA
ATOM      6  N   UNL     1       1.965   0.508   1.034  0.00  0.00    -0.044 NA
ATOM      7  N   UNL     1       1.078  -0.424   0.933  0.00  0.00    -0.225 N 
BRANCH   7   8
ATOM      8  C   UNL     1       1.287  -1.853   1.176  0.00  0.00    +0.179 C 
BRANCH   8   9
ATOM      9  C   UNL     1       1.714  -2.534  -0.126  0.00  0.00    +0.140 C 
ATOM     10  C   UNL     1       1.819  -4.059   0.090  0.00  0.00    +0.035 C 
ATOM     11  C   UNL     1       3.082  -4.423  -0.738  0.00  0.00    +0.031 C 
ATOM     12  C   UNL     1       3.944  -3.152  -0.534  0.00  0.00    +0.160 C 
ATOM     13  O   UNL     1       3.007  -2.061  -0.520  0.00  0.00    -0.375 OA
ENDBRANCH   8   9
ENDBRANCH   7   8
ENDBRANCH   2   3
BRANCH   2  15
ATOM     14  C   UNL     1      -3.719  -0.837   1.173  0.00  0.00    +0.006 C 
ATOM     15  C   UNL     1      -2.393  -0.106   1.396  0.00  0.00    +0.023 C 
ENDBRANCH   2  15
ENDBRANCH   1   2
BRANCH   1  16
ATOM     16  C   UNL     1      -1.198  -0.830  -2.080  0.00  0.00    +0.122 C 
BRANCH  16  17
ATOM     17  C   UNL     1      -1.733  -2.234  -2.200  0.00  0.00    -0.015 A 
ATOM     18  C   UNL     1      -1.260  -3.239  -1.369  0.00  0.00    +0.008 A 
ATOM     19  C   UNL     1      -1.781  -4.515  -1.515  0.00  0.00    +0.020 A 
ATOM     20  C   UNL     1      -2.746  -4.743  -2.478  0.00  0.00    +0.111 A 
ATOM     21  N   UNL     1      -3.171  -3.763  -3.252  0.00  0.00    -0.263 NA
ATOM     22  C   UNL     1      -2.703  -2.536  -3.136  0.00  0.00    +0.115 A 
ENDBRANCH  16  17
ENDBRANCH   1  16
BRANCH   1  23
ATOM     23  C   UNL     1      -1.833   1.329  -1.187  0.00  0.00    +0.126 C 
BRANCH  23  24
ATOM     24  C   UNL     1      -2.723   1.740  -2.332  0.00  0.00    +0.031 A 
ATOM     25  C   UNL     1      -4.001   2.126  -2.090  0.00  0.00    +0.020 A 
ATOM     26  C   UNL     1      -4.840   2.518  -3.221  0.00  0.00    +0.003 A 
ATOM     27  C   UNL     1      -6.167   2.924  -3.030  0.00  0.00    +0.059 A 
ATOM     28  C   UNL     1      -6.933   3.287  -4.116  0.00  0.00    +0.167 A 
ATOM     29  C   UNL     1      -6.389   3.252  -5.407  0.00  0.00    +0.168 A 
ATOM     30  C   UNL     1      -5.080   2.853  -5.604  0.00  0.00    +0.075 A 
ATOM     31  C   UNL     1      -4.295   2.483  -4.519  0.00  0.00    +0.053 A 
ATOM     32  N   UNL     1      -2.986   2.081  -4.698  0.00  0.00    -0.322 N 
ATOM     33  H   UNL     1      -2.611   2.058  -5.592  0.00  0.00    +0.169 HD
ATOM     34  C   UNL     1      -2.223   1.727  -3.650  0.00  0.00    +0.254 A 
ATOM     35  O   UNL     1      -1.070   1.381  -3.845  0.00  0.00    -0.268 OA
ATOM     36  O   UNL     1      -7.348   3.655  -6.290  0.00  0.00    -0.453 OA
ATOM     37  C   UNL     1      -8.597   3.541  -5.584  0.00  0.00    +0.466 C 
ATOM     38  O   UNL     1      -8.228   3.711  -4.202  0.00  0.00    -0.453 OA
ENDBRANCH  23  24
ENDBRANCH   1  23
TORSDOF 9
