REMARK  Name = ZINC39684242
REMARK  8 active torsions:
REMARK  status: ('A' for Active; 'I' for Inactive)
REMARK    1  A    between atoms: C_1  and  C_2
REMARK    2  A    between atoms: C_7  and  C_11
REMARK    3  A    between atoms: C_11  and  C_12
REMARK    4  A    between atoms: C_12  and  N_13
REMARK    5  A    between atoms: C_14  and  C_16
REMARK    6  A    between atoms: C_27  and  C_29
REMARK    7  A    between atoms: C_30  and  C_41
REMARK    8  A    between atoms: C_33  and  C_35
REMARK                            x       y       z     vdW  Elec       q    Type
REMARK                         _______ _______ _______ _____ _____    ______ ____
ROOT
ATOM      1  C   UNL     1      -8.490   2.228  -5.528  0.00  0.00    +0.100 C 
ATOM      2  C   UNL     1      -8.063   3.221  -6.631  0.00  0.00    +0.121 C 
ATOM      3  N   UNL     1      -7.872   2.382  -7.838  0.00  0.00    -0.296 N 
ATOM      4  C   UNL     1      -8.976   1.394  -7.778  0.00  0.00    +0.115 C 
ATOM      5  C   UNL     1      -9.091   1.031  -6.284  0.00  0.00    -0.004 C 
ATOM      6  C   UNL     1      -8.296  -0.236  -5.987  0.00  0.00    -0.010 C 
ATOM      7  C   UNL     1      -8.947  -1.422  -6.705  0.00  0.00    -0.082 C 
ATOM      8  N   UNL     1     -10.334  -1.571  -6.248  0.00  0.00    +0.379 N 
ATOM      9  C   UNL     1     -11.115  -0.386  -6.620  0.00  0.00    -0.082 C 
ATOM     10  C   UNL     1     -10.556   0.844  -5.898  0.00  0.00    -0.010 C 
ATOM     11  C   UNL     1      -6.911   2.491  -8.776  0.00  0.00    +0.248 C 
ATOM     12  O   UNL     1      -6.940   1.779  -9.763  0.00  0.00    -0.270 OA
ATOM     13  H   UNL     1     -10.741  -2.389  -6.676  0.00  0.00    -0.086 HD
ATOM     14  H   UNL     1     -10.346  -1.679  -5.244  0.00  0.00    -0.086 HD
ENDROOT
BRANCH  11  15
ATOM     15  C   UNL     1      -5.866   3.436  -8.614  0.00  0.00    +0.078 C 
ATOM     16  C   UNL     1      -4.704   3.233  -7.970  0.00  0.00    +0.132 C 
ATOM     17  O   UNL     1      -3.924   4.330  -7.985  0.00  0.00    -0.410 OA
ATOM     18  N   UNL     1      -4.418   5.228  -9.044  0.00  0.00    -0.144 NA
ATOM     19  C   UNL     1      -5.852   4.858  -9.142  0.00  0.00    +0.161 C 
ATOM     20  C   UNL     1      -4.320   1.933  -7.311  0.00  0.00    +0.089 C 
ATOM     21  H   UNL     1      -4.308   6.195  -8.778  0.00  0.00    +0.168 HD
BRANCH  19  22
ATOM     22  C   UNL     1      -6.320   4.902 -10.574  0.00  0.00    -0.023 A 
ATOM     23  C   UNL     1      -5.496   4.444 -11.585  0.00  0.00    +0.005 A 
ATOM     24  C   UNL     1      -5.926   4.485 -12.898  0.00  0.00    +0.000 A 
ATOM     25  C   UNL     1      -7.179   4.982 -13.200  0.00  0.00    +0.000 A 
ATOM     26  C   UNL     1      -8.004   5.439 -12.189  0.00  0.00    +0.000 A 
ATOM     27  C   UNL     1      -7.576   5.395 -10.875  0.00  0.00    +0.005 A 
ENDBRANCH  19  22
ENDBRANCH  11  15
BRANCH   1  29
ATOM     28  N   UNL     1      -7.459   1.305  -3.477  0.00  0.00    -0.315 N 
ATOM     29  C   UNL     1      -7.293   1.791  -4.723  0.00  0.00    +0.218 C 
ATOM     30  O   UNL     1      -6.180   1.877  -5.197  0.00  0.00    -0.275 OA
ATOM     31  H   UNL     1      -8.349   1.237  -3.098  0.00  0.00    +0.149 HD
BRANCH  28  32
ATOM     32  C   UNL     1      -6.295   0.881  -2.695  0.00  0.00    +0.109 C 
BRANCH  32  33
ATOM     33  C   UNL     1      -6.757   0.374  -1.327  0.00  0.00    +0.056 C 
BRANCH  33  40
ATOM     34  C   UNL     1      -1.701  -0.401   2.300  0.00  0.00    +0.046 C 
ATOM     35  C   UNL     1      -2.757   0.488   1.696  0.00  0.00    -0.027 A 
ATOM     36  C   UNL     1      -2.766   1.838   1.975  0.00  0.00    +0.005 A 
ATOM     37  C   UNL     1      -3.734   2.667   1.425  0.00  0.00    +0.001 A 
ATOM     38  C   UNL     1      -4.695   2.159   0.597  0.00  0.00    +0.010 A 
ATOM     39  C   UNL     1      -4.704   0.795   0.301  0.00  0.00    +0.003 A 
ATOM     40  C   UNL     1      -5.560  -0.062  -0.522  0.00  0.00    -0.021 A 
ATOM     41  C   UNL     1      -5.076  -1.310  -0.424  0.00  0.00    +0.087 A 
ATOM     42  N   UNL     1      -3.980  -1.323   0.395  0.00  0.00    -0.360 N 
ATOM     43  C   UNL     1      -3.722  -0.049   0.851  0.00  0.00    +0.050 A 
ATOM     44  H   UNL     1      -3.460  -2.110   0.618  0.00  0.00    +0.165 HD
ENDBRANCH  33  40
ENDBRANCH  32  33
ENDBRANCH  28  32
ENDBRANCH   1  29
TORSDOF 6
