REMARK  Name = ZINC44451719
REMARK  5 active torsions:
REMARK  status: ('A' for Active; 'I' for Inactive)
REMARK    1  A    between atoms: C_4  and  C_7
REMARK    2  A    between atoms: C_7  and  C_8
REMARK    3  A    between atoms: C_7  and  N_14
REMARK    4  A    between atoms: N_17  and  C_18
REMARK    5  A    between atoms: C_24  and  N_26
REMARK                            x       y       z     vdW  Elec       q    Type
REMARK                         _______ _______ _______ _____ _____    ______ ____
ROOT
ATOM      1  N   UNL     1       3.886  -2.024  -0.666  0.00  0.00    -0.289 N 
ATOM      2  C   UNL     1       4.946  -2.515  -1.338  0.00  0.00    +0.301 C 
ATOM      3  O   UNL     1       6.051  -2.042  -1.159  0.00  0.00    -0.253 OA
ATOM      4  N   UNL     1       4.780  -3.531  -2.208  0.00  0.00    -0.295 N 
ATOM      5  H   UNL     1       3.003  -2.401  -0.809  0.00  0.00    +0.151 HD
ATOM      6  H   UNL     1       3.898  -3.908  -2.351  0.00  0.00    +0.151 HD
ENDROOT
BRANCH   4   7
ATOM      7  C   UNL     1       5.932  -4.065  -2.939  0.00  0.00    +0.095 C 
ATOM      8  C   UNL     1       6.641  -5.113  -2.078  0.00  0.00    +0.024 C 
ATOM      9  C   UNL     1       7.844  -5.670  -2.840  0.00  0.00    +0.002 C 
ATOM     10  C   UNL     1       7.367  -6.318  -4.142  0.00  0.00    +0.002 C 
ATOM     11  C   UNL     1       6.659  -5.270  -5.003  0.00  0.00    +0.025 C 
ATOM     12  C   UNL     1       5.455  -4.713  -4.240  0.00  0.00    +0.105 C 
BRANCH  12  13
ATOM     13  N   UNL     1       4.525  -5.801  -3.932  0.00  0.00    -0.228 N 
ATOM     14  C   UNL     1       3.296  -5.730  -4.413  0.00  0.00    +0.233 C 
ATOM     15  O   UNL     1       2.919  -4.800  -5.094  0.00  0.00    -0.274 OA
ATOM     16  C   UNL     1       2.385  -6.896  -4.053  0.00  0.00    +0.175 C 
ATOM     17  S   UNL     1       3.550  -7.903  -3.045  0.00  0.00    -0.058 S 
ATOM     18  C   UNL     1       4.969  -6.825  -3.178  0.00  0.00    +0.281 C 
ATOM     19  O   UNL     1       6.075  -6.978  -2.699  0.00  0.00    -0.262 OA
ENDBRANCH  12  13
ENDBRANCH   4   7
BRANCH   1  20
ATOM     20  C   UNL     1       4.066  -0.920   0.280  0.00  0.00    +0.135 C 
BRANCH  20  24
ATOM     21  C   UNL     1       0.391   1.221   0.685  0.00  0.00    +0.000 A 
ATOM     22  C   UNL     1       1.590   1.908   0.638  0.00  0.00    +0.000 A 
ATOM     23  C   UNL     1       2.779   1.215   0.508  0.00  0.00    +0.006 A 
ATOM     24  C   UNL     1       2.770  -0.165   0.424  0.00  0.00    -0.023 A 
ATOM     25  C   UNL     1       1.571  -0.852   0.471  0.00  0.00    +0.006 A 
ATOM     26  C   UNL     1       0.382  -0.159   0.600  0.00  0.00    +0.000 A 
ENDBRANCH  20  24
BRANCH  20  27
ATOM     27  C   UNL     1       4.478  -1.470   1.621  0.00  0.00    -0.023 A 
ATOM     28  C   UNL     1       3.900  -2.632   2.099  0.00  0.00    +0.006 A 
ATOM     29  C   UNL     1       4.278  -3.136   3.329  0.00  0.00    +0.000 A 
ATOM     30  C   UNL     1       5.234  -2.480   4.082  0.00  0.00    +0.000 A 
ATOM     31  C   UNL     1       5.812  -1.319   3.603  0.00  0.00    +0.000 A 
ATOM     32  C   UNL     1       5.437  -0.817   2.371  0.00  0.00    +0.006 A 
ENDBRANCH  20  27
ENDBRANCH   1  20
TORSDOF 5
