REMARK  Name = ZINC12384976
REMARK  5 active torsions:
REMARK  status: ('A' for Active; 'I' for Inactive)
REMARK    1  A    between atoms: C_1  and  C_2
REMARK    2  A    between atoms: C_5  and  C_28
REMARK    3  A    between atoms: C_8  and  C_10
REMARK    4  A    between atoms: C_22  and  S_25
REMARK    5  A    between atoms: S_25  and  C_26
REMARK                            x       y       z     vdW  Elec       q    Type
REMARK                         _______ _______ _______ _____ _____    ______ ____
ROOT
ATOM      1  C   UNL     1       1.279   1.657   6.993  0.00  0.00    +0.266 C 
ATOM      2  N   UNL     1       2.704   1.522   6.706  0.00  0.00    -0.309 N 
ATOM      3  C   UNL     1       3.261   0.241   6.660  0.00  0.00    +0.039 A 
ATOM      4  C   UNL     1       4.147  -0.193   7.629  0.00  0.00    +0.023 A 
ATOM      5  C   UNL     1       4.664  -1.474   7.565  0.00  0.00    +0.002 A 
ATOM      6  C   UNL     1       4.300  -2.326   6.537  0.00  0.00    +0.001 A 
ATOM      7  C   UNL     1       3.423  -1.904   5.557  0.00  0.00    +0.012 A 
ATOM      8  C   UNL     1       2.902  -0.618   5.605  0.00  0.00    +0.028 A 
ATOM      9  C   UNL     1       1.976  -0.117   4.568  0.00  0.00    +0.156 A 
ATOM     10  C   UNL     1       0.789   0.548   4.953  0.00  0.00    +0.248 A 
ATOM     11  N   UNL     1      -0.019   1.002   4.010  0.00  0.00    -0.184 NA
ATOM     12  C   UNL     1       0.298   0.809   2.733  0.00  0.00    +0.212 A 
ATOM     13  N   UNL     1       1.415   0.178   2.392  0.00  0.00    -0.122 NA
ATOM     14  N   UNL     1       2.233  -0.274   3.278  0.00  0.00    -0.141 NA
ATOM     15  O   UNL     1       0.502   0.712   6.266  0.00  0.00    -0.453 OA
ATOM     16  H   UNL     1       3.253   2.306   6.550  0.00  0.00    +0.150 HD
ENDROOT
BRANCH   1  23
ATOM     17  C   UNL     1      -0.786   3.139   8.322  0.00  0.00    +0.008 C 
ATOM     18  C   UNL     1      -0.414   1.747   8.836  0.00  0.00    -0.002 C 
ATOM     19  C   UNL     1      -0.574   1.696  10.356  0.00  0.00    +0.034 C 
ATOM     20  C   UNL     1       0.039   0.439  10.902  0.00  0.00    -0.076 C 
ATOM     21  C   UNL     1       0.878  -0.301  10.251  0.00  0.00    -0.027 C 
ATOM     22  C   UNL     1       1.347  -0.011   8.855  0.00  0.00    +0.036 C 
ATOM     23  C   UNL     1       1.050   1.445   8.491  0.00  0.00    +0.055 C 
ATOM     24  C   UNL     1      -0.346   0.012  12.295  0.00  0.00    +0.039 C 
ENDBRANCH   1  23
BRANCH  12  25
ATOM     25  S   UNL     1      -0.779   1.406   1.472  0.00  0.00    -0.088 S 
ATOM     26  C   UNL     1       0.137   0.881   0.002  0.00  0.00    +0.093 C 
ENDBRANCH  12  25
TORSDOF 2
