REMARK  Name = ZINC01177717
REMARK  4 active torsions:
REMARK  status: ('A' for Active; 'I' for Inactive)
REMARK    1  A    between atoms: C_10  and  C_11
REMARK    2  A    between atoms: C_18  and  N_30
REMARK    3  A    between atoms: C_19  and  C_28
REMARK    4  A    between atoms: C_20  and  C_22
REMARK                            x       y       z     vdW  Elec       q    Type
REMARK                         _______ _______ _______ _____ _____    ______ ____
ROOT
ATOM      1  C   UNL     1       4.646  -0.200  -0.238  0.00  0.00    +0.101 A 
ATOM      2  C   UNL     1       5.998  -0.510  -0.056  0.00  0.00    +0.050 A 
ATOM      3  C   UNL     1       6.707   0.655  -0.087  0.00  0.00    +0.223 A 
ATOM      4  N   UNL     1       5.832   1.664  -0.280  0.00  0.00    -0.246 N 
ATOM      5  H   UNL     1       6.052   2.606  -0.344  0.00  0.00    +0.192 HD
ATOM      6  N   UNL     1       4.546   1.110  -0.378  0.00  0.00    -0.171 NA
ATOM      7  O   UNL     1       8.055   0.696   0.058  0.00  0.00    -0.423 OA
ATOM      8  C   UNL     1       8.730  -0.467  -0.038  0.00  0.00    +0.200 C 
ATOM      9  C   UNL     1       8.140  -1.683  -0.007  0.00  0.00    +0.094 C 
ATOM     10  C   UNL     1       6.649  -1.854   0.146  0.00  0.00    +0.075 C 
ENDROOT
BRANCH   1  20
ATOM     11  C   UNL     1      -0.054  -0.411   1.762  0.00  0.00    +0.001 A 
ATOM     12  C   UNL     1       0.986   0.515   1.810  0.00  0.00    +0.001 A 
ATOM     13  C   UNL     1       2.158   0.286   1.154  0.00  0.00    +0.009 A 
ATOM     14  C   UNL     1       2.323  -0.897   0.419  0.00  0.00    -0.009 A 
ATOM     15  C   UNL     1       1.266  -1.839   0.370  0.00  0.00    -0.017 A 
ATOM     16  C   UNL     1       0.071  -1.570   1.059  0.00  0.00    +0.008 A 
ATOM     17  C   UNL     1       1.431  -3.026  -0.365  0.00  0.00    +0.008 A 
ATOM     18  C   UNL     1       2.599  -3.264  -1.024  0.00  0.00    +0.001 A 
ATOM     19  C   UNL     1       3.646  -2.350  -0.985  0.00  0.00    +0.011 A 
ATOM     20  C   UNL     1       3.526  -1.169  -0.274  0.00  0.00    +0.010 A 
ENDBRANCH   1  20
BRANCH  10  21
ATOM     21  C   UNL     1       6.330  -2.377   1.548  0.00  0.00    +0.002 C 
ATOM     22  C   UNL     1       6.865  -3.802   1.695  0.00  0.00    +0.004 C 
ATOM     23  C   UNL     1       6.546  -4.325   3.097  0.00  0.00    +0.000 C 
ATOM     24  C   UNL     1       5.031  -4.325   3.308  0.00  0.00    +0.000 C 
ATOM     25  C   UNL     1       4.495  -2.900   3.161  0.00  0.00    +0.000 C 
ATOM     26  C   UNL     1       4.814  -2.377   1.759  0.00  0.00    +0.004 C 
ENDBRANCH  10  21
BRANCH   8  27
ATOM     27  N   UNL     1      10.094  -0.414  -0.177  0.00  0.00    -0.328 N 
ATOM     28  H   UNL     1      10.546   0.444  -0.203  0.00  0.00    +0.145 HD
ATOM     29  H   UNL     1      10.607  -1.235  -0.248  0.00  0.00    +0.145 HD
ENDBRANCH   8  27
BRANCH   9  30
ATOM     30  C   UNL     1       8.960  -2.851  -0.122  0.00  0.00    +0.100 C 
ATOM     31  N   UNL     1       9.611  -3.778  -0.214  0.00  0.00    -0.191 NA
ENDBRANCH   9  30
TORSDOF 4
