REMARK  Name = ZINC05798633
REMARK  4 active torsions:
REMARK  status: ('A' for Active; 'I' for Inactive)
REMARK    1  A    between atoms: C_1  and  C_2
REMARK    2  A    between atoms: C_5  and  N_23
REMARK    3  A    between atoms: N_16  and  C_17
REMARK    4  A    between atoms: N_23  and  C_24
REMARK                            x       y       z     vdW  Elec       q    Type
REMARK                         _______ _______ _______ _____ _____    ______ ____
ROOT
ATOM      1  C   UNL     1      -1.084   0.770   0.742  0.00  0.00    +0.028 C 
ATOM      2  C   UNL     1      -0.652  -0.693   0.633  0.00  0.00    +0.082 C 
ATOM      3  C   UNL     1      -0.198  -0.995  -0.802  0.00  0.00    +0.049 C 
ATOM      4  C   UNL     1       0.162  -2.477  -0.904  0.00  0.00    +0.104 C 
ATOM      5  C   UNL     1       1.123  -2.863   0.189  0.00  0.00    -0.006 A 
ATOM      6  C   UNL     1       1.895  -4.002   0.031  0.00  0.00    +0.007 A 
ATOM      7  C   UNL     1       2.784  -4.384   1.017  0.00  0.00    +0.000 A 
ATOM      8  C   UNL     1       2.909  -3.630   2.170  0.00  0.00    +0.002 A 
ATOM      9  C   UNL     1       2.143  -2.493   2.335  0.00  0.00    +0.024 A 
ATOM     10  C   UNL     1       1.249  -2.106   1.343  0.00  0.00    +0.043 A 
ATOM     11  N   UNL     1       0.487  -0.943   1.527  0.00  0.00    -0.252 N 
ATOM     12  C   UNL     1       0.795  -0.070   2.506  0.00  0.00    +0.311 C 
ATOM     13  O   UNL     1      -0.023   0.756   2.862  0.00  0.00    -0.252 OA
ATOM     14  N   UNL     1       2.009  -0.112   3.089  0.00  0.00    -0.269 N 
ATOM     15  H   UNL     1       2.694  -0.703   2.741  0.00  0.00    +0.156 HD
ENDROOT
BRANCH  14  16
ATOM     16  C   UNL     1       2.280   0.696   4.194  0.00  0.00    +0.038 A 
ATOM     17  C   UNL     1       1.770   1.991   4.276  0.00  0.00    +0.043 A 
ATOM     18  C   UNL     1       2.061   2.757   5.386  0.00  0.00    +0.112 A 
ATOM     19  N   UNL     1       2.811   2.278   6.361  0.00  0.00    -0.263 NA
ATOM     20  C   UNL     1       3.312   1.058   6.320  0.00  0.00    +0.112 A 
ATOM     21  C   UNL     1       3.063   0.227   5.248  0.00  0.00    +0.043 A 
ENDBRANCH  14  16
BRANCH   4  22
ATOM     22  N   UNL     1       0.782  -2.735  -2.206  0.00  0.00    -0.337 N 
ATOM     23  H   UNL     1       1.230  -2.017  -2.681  0.00  0.00    +0.147 HD
BRANCH  22  24
ATOM     24  C   UNL     1       0.729  -4.014  -2.764  0.00  0.00    +0.028 A 
ATOM     25  C   UNL     1       0.084  -5.042  -2.088  0.00  0.00    +0.023 A 
ATOM     26  C   UNL     1       0.033  -6.306  -2.642  0.00  0.00    +0.002 A 
ATOM     27  C   UNL     1       0.624  -6.549  -3.869  0.00  0.00    +0.000 A 
ATOM     28  C   UNL     1       1.267  -5.528  -4.544  0.00  0.00    +0.002 A 
ATOM     29  C   UNL     1       1.317  -4.261  -3.998  0.00  0.00    +0.023 A 
ENDBRANCH  22  24
ENDBRANCH   4  22
TORSDOF 3
