REMARK  Name = ZINC19294713
REMARK  10 active torsions:
REMARK  status: ('A' for Active; 'I' for Inactive)
REMARK    1  A    between atoms: C_1  and  C_2
REMARK    2  A    between atoms: C_2  and  C_3
REMARK    3  A    between atoms: C_3  and  C_4
REMARK    4  A    between atoms: C_3  and  C_6
REMARK    5  A    between atoms: C_3  and  N_8
REMARK    6  A    between atoms: C_4  and  C_5
REMARK    7  A    between atoms: C_9  and  C_11
REMARK    8  A    between atoms: C_11  and  S_12
REMARK    9  A    between atoms: S_12  and  C_13
REMARK   10  A    between atoms: N_17  and  C_18
REMARK                            x       y       z     vdW  Elec       q    Type
REMARK                         _______ _______ _______ _____ _____    ______ ____
ROOT
ATOM      1  C   UNL     1       0.002  -0.004   0.002  0.00  0.00    +0.198 A 
ATOM      2  N   UNL     1      -0.016   1.307   0.009  0.00  0.00    -0.120 NA
ATOM      3  N   UNL     1       1.310   1.759  -0.001  0.00  0.00    -0.112 NA
ATOM      4  C   UNL     1       2.097   0.711  -0.014  0.00  0.00    +0.225 A 
ATOM      5  N   UNL     1       1.310  -0.408  -0.013  0.00  0.00    -0.258 N 
ATOM      6  N   UNL     1       3.486   0.733  -0.027  0.00  0.00    -0.299 N 
ATOM      7  C   UNL     1       4.017   0.110  -1.266  0.00  0.00    +0.108 C 
ATOM      8  C   UNL     1       5.455   0.678  -1.360  0.00  0.00    +0.020 C 
ATOM      9  C   UNL     1       5.286   2.132  -0.862  0.00  0.00    +0.020 C 
ATOM     10  C   UNL     1       3.994   2.122  -0.024  0.00  0.00    +0.108 C 
ENDROOT
BRANCH   5  11
ATOM     11  C   UNL     1       1.763  -1.736  -0.024  0.00  0.00    +0.053 A 
ATOM     12  C   UNL     1       1.498  -2.552  -1.115  0.00  0.00    +0.026 A 
ATOM     13  C   UNL     1       1.945  -3.858  -1.125  0.00  0.00    +0.003 A 
ATOM     14  C   UNL     1       2.657  -4.355  -0.048  0.00  0.00    +0.020 A 
ATOM     15  C   UNL     1       2.924  -3.544   1.041  0.00  0.00    +0.043 A 
ATOM     16  C   UNL     1       2.483  -2.233   1.053  0.00  0.00    +0.046 A 
ATOM     17 CL   UNL     1       3.818  -4.171   2.391  0.00  0.00    -0.083 Cl
ENDBRANCH   5  11
BRANCH   1  18
ATOM     18  S   UNL     1      -1.409  -1.060   0.011  0.00  0.00    -0.076 S 
BRANCH  18  19
ATOM     19  C   UNL     1      -2.814   0.087   0.030  0.00  0.00    +0.173 C 
BRANCH  19  21
ATOM     20  N   UNL     1      -5.284  -0.050   0.054  0.00  0.00    -0.298 N 
ATOM     21  C   UNL     1      -4.102  -0.697   0.039  0.00  0.00    +0.224 C 
ATOM     22  O   UNL     1      -4.074  -1.909   0.033  0.00  0.00    -0.275 OA
ATOM     23  H   UNL     1      -5.310   1.050   0.060  0.00  0.00    +0.150 HD
BRANCH  20  24
ATOM     24  C   UNL     1      -6.535  -0.812   0.063  0.00  0.00    +0.095 C 
BRANCH  24  26
ATOM     25  C   UNL     1      -6.435  -0.812  -2.434  0.00  0.00    +0.007 C 
ATOM     26  C   UNL     1      -6.609  -1.687  -1.190  0.00  0.00    +0.035 C 
ENDBRANCH  24  26
BRANCH  24  27
ATOM     27  C   UNL     1      -6.584  -1.700   1.308  0.00  0.00    +0.035 C 
ATOM     28  C   UNL     1      -6.511  -0.825   2.561  0.00  0.00    +0.007 C 
ENDBRANCH  24  27
BRANCH  24  29
ATOM     29  C   UNL     1      -7.676   0.118   0.079  0.00  0.00    -0.080 C 
ATOM     30  C   UNL     1      -8.586   0.860   0.091  0.00  0.00    +0.006 C 
ENDBRANCH  24  29
ENDBRANCH  20  24
ENDBRANCH  19  21
ENDBRANCH  18  19
ENDBRANCH   1  18
TORSDOF 8
