REMARK  Name = ZINC35578357
REMARK  7 active torsions:
REMARK  status: ('A' for Active; 'I' for Inactive)
REMARK    1  A    between atoms: C_1  and  C_2
REMARK    2  A    between atoms: C_2  and  C_3
REMARK    3  A    between atoms: C_2  and  C_4
REMARK    4  A    between atoms: C_4  and  N_5
REMARK    5  A    between atoms: C_8  and  C_23
REMARK    6  A    between atoms: C_10  and  N_22
REMARK    7  A    between atoms: N_11  and  C_15
REMARK                            x       y       z     vdW  Elec       q    Type
REMARK                         _______ _______ _______ _____ _____    ______ ____
ROOT
ATOM      1  N   UNL     1      -0.685  -1.141   2.700  0.00  0.00    -0.313 N 
ATOM      2  C   UNL     1      -0.063  -1.373   3.913  0.00  0.00    +0.218 A 
ATOM      3  N   UNL     1      -0.760  -1.170   5.026  0.00  0.00    -0.214 NA
ATOM      4  C   UNL     1      -0.240  -1.369   6.231  0.00  0.00    +0.091 A 
ATOM      5  C   UNL     1       1.099  -1.810   6.318  0.00  0.00    +0.086 A 
ATOM      6  C   UNL     1       1.980  -2.123   7.346  0.00  0.00    +0.131 A 
ATOM      7  N   UNL     1       3.147  -2.493   6.782  0.00  0.00    -0.215 N 
ATOM      8  N   UNL     1       3.044  -2.426   5.388  0.00  0.00    -0.144 NA
ATOM      9  C   UNL     1       1.836  -2.023   5.059  0.00  0.00    +0.189 A 
ATOM     10  N   UNL     1       1.188  -1.788   3.902  0.00  0.00    -0.193 NA
ATOM     11  H   UNL     1      -1.606  -0.835   2.678  0.00  0.00    +0.149 HD
ENDROOT
BRANCH   4  12
ATOM     12  C   UNL     1      -1.042  -1.134   7.452  0.00  0.00    +0.039 A 
ATOM     13  C   UNL     1      -0.548  -0.314   8.468  0.00  0.00    +0.013 A 
ATOM     14  C   UNL     1      -1.300  -0.099   9.604  0.00  0.00    +0.004 A 
ATOM     15  C   UNL     1      -2.542  -0.693   9.742  0.00  0.00    +0.041 A 
ATOM     16  C   UNL     1      -3.041  -1.507   8.740  0.00  0.00    +0.159 A 
ATOM     17  C   UNL     1      -2.299  -1.727   7.591  0.00  0.00    +0.168 A 
ATOM     18  F   UNL     1      -2.788  -2.517   6.610  0.00  0.00    -0.202 F 
ATOM     19  F   UNL     1      -4.255  -2.084   8.880  0.00  0.00    -0.202 F 
ENDBRANCH   4  12
BRANCH   7  20
ATOM     20  C   UNL     1       4.292  -2.885   7.487  0.00  0.00    +0.086 A 
ATOM     21  C   UNL     1       4.227  -3.096   8.858  0.00  0.00    +0.029 A 
ATOM     22  C   UNL     1       5.358  -3.483   9.549  0.00  0.00    +0.002 A 
ATOM     23  C   UNL     1       6.554  -3.660   8.879  0.00  0.00    +0.002 A 
ATOM     24  C   UNL     1       6.623  -3.450   7.514  0.00  0.00    +0.022 A 
ATOM     25  C   UNL     1       5.494  -3.069   6.814  0.00  0.00    +0.066 A 
ATOM     26 CL   UNL     1       5.579  -2.814   5.099  0.00  0.00    -0.081 Cl
ENDBRANCH   7  20
BRANCH   6  27
ATOM     27  N   UNL     1       1.708  -2.066   8.700  0.00  0.00    -0.342 N 
ATOM     28  H   UNL     1       0.848  -2.361   9.035  0.00  0.00    +0.144 HD
ATOM     29  H   UNL     1       2.379  -1.729   9.315  0.00  0.00    +0.144 HD
ENDBRANCH   6  27
BRANCH   1  30
ATOM     30  C   UNL     1       0.045  -1.357   1.448  0.00  0.00    +0.107 C 
BRANCH  30  32
ATOM     31  C   UNL     1      -1.208   0.461   0.280  0.00  0.00    +0.009 C 
ATOM     32  C   UNL     1      -0.866  -1.030   0.263  0.00  0.00    -0.000 C 
ATOM     33  C   UNL     1      -0.147  -1.374  -1.043  0.00  0.00    +0.009 C 
ENDBRANCH  30  32
ENDBRANCH   1  30
TORSDOF 5
