REMARK  Name = ZINC00648548
REMARK  8 active torsions:
REMARK  status: ('A' for Active; 'I' for Inactive)
REMARK    1  A    between atoms: C_1  and  O_2
REMARK    2  A    between atoms: O_2  and  C_3
REMARK    3  A    between atoms: C_3  and  C_5
REMARK    4  A    between atoms: C_6  and  N_31
REMARK    5  A    between atoms: C_10  and  C_12
REMARK    6  A    between atoms: C_15  and  C_17
REMARK    7  A    between atoms: C_17  and  O_18
REMARK    8  A    between atoms: O_18  and  C_19
REMARK                            x       y       z     vdW  Elec       q    Type
REMARK                         _______ _______ _______ _____ _____    ______ ____
ROOT
ATOM      1  C   UNL     1       1.763   6.876  -2.466  0.00  0.00    +0.108 C 
ATOM      2  C   UNL     1       1.680   6.631  -3.797  0.00  0.00    +0.195 C 
ATOM      3  O   UNL     1       0.578   6.092  -4.339  0.00  0.00    -0.446 OA
ATOM      4  C   UNL     1      -0.599   6.178  -3.692  0.00  0.00    +0.115 C 
ATOM      5  C   UNL     1      -0.655   6.397  -2.365  0.00  0.00    +0.048 C 
ATOM      6  C   UNL     1       0.610   6.553  -1.558  0.00  0.00    +0.133 C 
ATOM      7  C   UNL     1      -1.888   6.490  -1.690  0.00  0.00    +0.163 C 
ATOM      8  O   UNL     1      -1.898   6.668  -0.488  0.00  0.00    -0.292 OA
ATOM      9  C   UNL     1      -3.193   6.372  -2.430  0.00  0.00    +0.080 C 
ATOM     10  C   UNL     1      -2.987   6.847  -3.873  0.00  0.00    +0.016 C 
ATOM     11  C   UNL     1      -1.865   6.017  -4.500  0.00  0.00    +0.075 C 
ENDROOT
BRANCH   6  12
ATOM     12  C   UNL     1       0.897   5.267  -0.825  0.00  0.00    +0.118 A 
ATOM     13  C   UNL     1       0.983   5.125   0.510  0.00  0.00    +0.046 A 
ATOM     14  C   UNL     1       1.264   3.762   0.759  0.00  0.00    +0.048 A 
ATOM     15  C   UNL     1       1.334   3.153  -0.439  0.00  0.00    +0.142 A 
ATOM     16  O   UNL     1       1.116   4.071  -1.395  0.00  0.00    -0.460 OA
BRANCH  15  17
ATOM     17  C   UNL     1       1.614   1.690  -0.669  0.00  0.00    +0.303 C 
BRANCH  17  18
ATOM     18  O   UNL     1       0.383   0.966  -0.685  0.00  0.00    -0.484 OA
BRANCH  18  19
ATOM     19  C   UNL     1       0.459  -0.377  -0.883  0.00  0.00    +0.121 A 
ATOM     20  C   UNL     1       1.694  -0.983  -1.065  0.00  0.00    +0.047 A 
ATOM     21  C   UNL     1       1.770  -2.348  -1.260  0.00  0.00    +0.019 A 
ATOM     22  C   UNL     1       0.615  -3.110  -1.286  0.00  0.00    +0.018 A 
ATOM     23  C   UNL     1      -0.617  -2.506  -1.112  0.00  0.00    +0.019 A 
ATOM     24  C   UNL     1      -0.697  -1.142  -0.910  0.00  0.00    +0.047 A 
ATOM     25 BR   UNL     1       0.722  -4.977  -1.562  0.00  0.00    -0.050 Br
ENDBRANCH  18  19
ENDBRANCH  17  18
ENDBRANCH  15  17
ENDBRANCH   6  12
BRANCH   2  26
ATOM     26  N   UNL     1       2.741   6.941  -4.605  0.00  0.00    -0.329 N 
ATOM     27  H   UNL     1       2.726   6.692  -5.542  0.00  0.00    +0.145 HD
ATOM     28  H   UNL     1       3.509   7.408  -4.240  0.00  0.00    +0.145 HD
ENDBRANCH   2  26
BRANCH   1  29
ATOM     29  C   UNL     1       2.935   7.436  -1.935  0.00  0.00    +0.341 C 
ATOM     30  O   UNL     1       2.975   8.623  -1.664  0.00  0.00    -0.245 OA
BRANCH  29  32
ATOM     31  C   UNL     1       5.178   7.295  -1.182  0.00  0.00    +0.280 C 
ATOM     32  O   UNL     1       4.020   6.659  -1.725  0.00  0.00    -0.465 OA
ENDBRANCH  29  32
ENDBRANCH   1  29
TORSDOF 7
