REMARK  Name = ZINC41636773
REMARK  7 active torsions:
REMARK  status: ('A' for Active; 'I' for Inactive)
REMARK    1  A    between atoms: C_1  and  S_2
REMARK    2  A    between atoms: S_2  and  C_3
REMARK    3  A    between atoms: C_7  and  N_9
REMARK    4  A    between atoms: C_10  and  C_12
REMARK    5  A    between atoms: N_17  and  C_19
REMARK    6  A    between atoms: C_19  and  C_20
REMARK    7  A    between atoms: C_24  and  N_26
REMARK                            x       y       z     vdW  Elec       q    Type
REMARK                         _______ _______ _______ _____ _____    ______ ____
ROOT
ATOM      1  C   UNL     1      -5.465  -5.249   0.258  0.00  0.00    +0.053 A 
ATOM      2  C   UNL     1      -4.473  -6.259   0.255  0.00  0.00    +0.020 A 
ATOM      3  C   UNL     1      -4.855  -7.559   0.362  0.00  0.00    +0.071 A 
ATOM      4  C   UNL     1      -6.223  -7.873   0.472  0.00  0.00    +0.252 A 
ATOM      5  O   UNL     1      -6.571  -9.038   0.568  0.00  0.00    -0.268 OA
ATOM      6  N   UNL     1      -7.149  -6.898   0.472  0.00  0.00    -0.310 N 
ATOM      7  C   UNL     1      -6.794  -5.603   0.373  0.00  0.00    +0.102 A 
ENDROOT
BRANCH   1   9
ATOM      8  N   UNL     1      -3.782  -3.490   0.032  0.00  0.00    -0.281 N 
ATOM      9  C   UNL     1      -5.082  -3.830   0.144  0.00  0.00    +0.250 C 
ATOM     10  O   UNL     1      -5.938  -2.966   0.151  0.00  0.00    -0.270 OA
ATOM     11  H   UNL     1      -3.106  -4.181  -0.052  0.00  0.00    +0.155 HD
BRANCH   8  16
ATOM     12  C   UNL     1      -3.753   0.112   0.790  0.00  0.00    +0.009 A 
ATOM     13  C   UNL     1      -2.662   0.527   0.034  0.00  0.00    +0.015 A 
ATOM     14  C   UNL     1      -1.951  -0.389  -0.716  0.00  0.00    +0.003 A 
ATOM     15  C   UNL     1      -2.320  -1.720  -0.718  0.00  0.00    +0.023 A 
ATOM     16  C   UNL     1      -3.409  -2.142   0.035  0.00  0.00    +0.035 A 
ATOM     17  C   UNL     1      -4.123  -1.226   0.794  0.00  0.00    +0.038 A 
BRANCH  12  19
ATOM     18  C   UNL     1      -3.820   2.856   1.426  0.00  0.00    +0.090 C 
ATOM     19  S   UNL     1      -4.660   1.281   1.747  0.00  0.00    -0.129 S 
ENDBRANCH  12  19
ENDBRANCH   8  16
ENDBRANCH   1   9
BRANCH   6  20
ATOM     20  C   UNL     1      -8.567  -7.250   0.588  0.00  0.00    +0.160 C 
BRANCH  20  21
ATOM     21  C   UNL     1      -8.959  -7.282   2.043  0.00  0.00    -0.026 A 
ATOM     22  C   UNL     1      -8.841  -8.456   2.764  0.00  0.00    +0.005 A 
ATOM     23  C   UNL     1      -9.201  -8.485   4.098  0.00  0.00    +0.003 A 
ATOM     24  C   UNL     1      -9.679  -7.342   4.712  0.00  0.00    +0.033 A 
ATOM     25  C   UNL     1      -9.796  -6.168   3.990  0.00  0.00    +0.127 A 
ATOM     26  C   UNL     1      -9.431  -6.138   2.657  0.00  0.00    +0.038 A 
BRANCH  25  27
ATOM     27  N   UNL     1     -10.307  -4.944   4.646  0.00  0.00    +0.056 N 
ATOM     28  O   UNL     1     -10.623  -4.971   5.813  0.00  0.00    -0.126 OA
ATOM     29  O   UNL     1     -10.409  -3.918   4.016  0.00  0.00    -0.126 OA
ENDBRANCH  25  27
ENDBRANCH  20  21
ENDBRANCH   6  20
TORSDOF 6
