REMARK  Name = ZINC05670300
REMARK  3 active torsions:
REMARK  status: ('A' for Active; 'I' for Inactive)
REMARK    1  A    between atoms: C_3  and  C_7
REMARK    2  A    between atoms: N_8  and  N_9
REMARK    3  A    between atoms: C_10  and  C_12
REMARK                            x       y       z     vdW  Elec       q    Type
REMARK                         _______ _______ _______ _____ _____    ______ ____
ROOT
ATOM      1  N   UNL     1      -3.693   5.398   0.066  0.00  0.00    -0.203 N 
ATOM      2  C   UNL     1      -5.034   5.265   0.078  0.00  0.00    +0.263 C 
ATOM      3  O   UNL     1      -5.536   4.157   0.077  0.00  0.00    -0.268 OA
ATOM      4  H   UNL     1      -3.293   6.281   0.066  0.00  0.00    +0.178 HD
ENDROOT
BRANCH   2   5
ATOM      5  C   UNL     1      -5.895   6.466   0.092  0.00  0.00    +0.040 A 
ATOM      6  C   UNL     1      -5.322   7.739   0.099  0.00  0.00    +0.014 A 
ATOM      7  C   UNL     1      -6.130   8.856   0.107  0.00  0.00    +0.022 A 
ATOM      8  C   UNL     1      -7.508   8.718   0.120  0.00  0.00    +0.059 A 
ATOM      9  C   UNL     1      -8.083   7.457   0.118  0.00  0.00    +0.060 A 
ATOM     10  C   UNL     1      -7.285   6.332   0.105  0.00  0.00    +0.034 A 
ATOM     11 CL   UNL     1      -9.812   7.293   0.134  0.00  0.00    -0.082 Cl
ATOM     12 CL   UNL     1      -8.518  10.129   0.137  0.00  0.00    -0.082 Cl
ENDBRANCH   2   5
BRANCH   1  14
ATOM     13  C   UNL     1      -1.582   4.387   0.040  0.00  0.00    +0.156 C 
ATOM     14  N   UNL     1      -2.877   4.259   0.052  0.00  0.00    -0.186 NA
BRANCH  13  17
ATOM     15  C   UNL     1      -0.013   1.076   0.008  0.00  0.00    +0.019 A 
ATOM     16  C   UNL     1      -1.157   1.886   0.017  0.00  0.00    +0.028 A 
ATOM     17  C   UNL     1      -0.728   3.195   0.026  0.00  0.00    +0.059 A 
ATOM     18  N   UNL     1       0.647   3.182   0.013  0.00  0.00    -0.360 N 
ATOM     19  H   UNL     1       1.220   3.964   0.011  0.00  0.00    +0.165 HD
ATOM     20  C   UNL     1       1.069   1.887   0.002  0.00  0.00    +0.083 A 
ENDBRANCH  13  17
ENDBRANCH   1  14
TORSDOF 3
