REMARK  Name = ZINC35173579
REMARK  11 active torsions:
REMARK  status: ('A' for Active; 'I' for Inactive)
REMARK    1  A    between atoms: C_1  and  C_2
REMARK    2  A    between atoms: N_8  and  C_9
REMARK    3  A    between atoms: C_9  and  C_10
REMARK    4  A    between atoms: C_10  and  C_11
REMARK    5  A    between atoms: C_11  and  N_12
REMARK    6  A    between atoms: C_13  and  C_15
REMARK    7  A    between atoms: C_15  and  S_16
REMARK    8  A    between atoms: S_16  and  C_17
REMARK    9  A    between atoms: C_20  and  C_28
REMARK   10  A    between atoms: N_21  and  C_22
REMARK   11  A    between atoms: C_31  and  N_34
REMARK                            x       y       z     vdW  Elec       q    Type
REMARK                         _______ _______ _______ _____ _____    ______ ____
ROOT
ATOM      1  C   UNL     1       9.123   0.062   6.888  0.00  0.00    +0.197 A 
ATOM      2  N   UNL     1       8.515  -0.693   7.775  0.00  0.00    -0.122 NA
ATOM      3  N   UNL     1       9.287  -0.903   8.781  0.00  0.00    -0.128 NA
ATOM      4  C   UNL     1      10.437  -0.296   8.600  0.00  0.00    +0.169 A 
ATOM      5  N   UNL     1      10.371   0.338   7.378  0.00  0.00    -0.270 N 
ENDROOT
BRANCH   5   6
ATOM      6  C   UNL     1      11.371   1.106   6.766  0.00  0.00    +0.051 A 
ATOM      7  C   UNL     1      12.559   0.510   6.367  0.00  0.00    +0.026 A 
ATOM      8  C   UNL     1      13.543   1.269   5.764  0.00  0.00    +0.002 A 
ATOM      9  C   UNL     1      13.345   2.622   5.558  0.00  0.00    +0.000 A 
ATOM     10  C   UNL     1      12.163   3.219   5.955  0.00  0.00    +0.002 A 
ATOM     11  C   UNL     1      11.173   2.463   6.553  0.00  0.00    +0.026 A 
ENDBRANCH   5   6
BRANCH   4  12
ATOM     12  C   UNL     1      11.587  -0.296   9.528  0.00  0.00    +0.020 A 
ATOM     13  C   UNL     1      12.615   0.634   9.371  0.00  0.00    +0.014 A 
ATOM     14  C   UNL     1      13.685   0.628  10.241  0.00  0.00    +0.033 A 
ATOM     15  C   UNL     1      13.741  -0.297  11.268  0.00  0.00    +0.126 A 
ATOM     16  C   UNL     1      12.725  -1.223  11.429  0.00  0.00    +0.033 A 
ATOM     17  C   UNL     1      11.646  -1.224  10.570  0.00  0.00    +0.014 A 
BRANCH  15  18
ATOM     18  N   UNL     1      14.893  -0.298  12.198  0.00  0.00    +0.056 N 
ATOM     19  O   UNL     1      15.783   0.509  12.059  0.00  0.00    -0.126 OA
ATOM     20  O   UNL     1      14.944  -1.106  13.096  0.00  0.00    -0.126 OA
ENDBRANCH  15  18
ENDBRANCH   4  12
BRANCH   1  21
ATOM     21  S   UNL     1       8.459   0.611   5.351  0.00  0.00    -0.076 S 
BRANCH  21  22
ATOM     22  C   UNL     1       6.789  -0.096   5.316  0.00  0.00    +0.173 C 
BRANCH  22  24
ATOM     23  N   UNL     1       4.842  -0.112   3.791  0.00  0.00    -0.315 N 
ATOM     24  C   UNL     1       6.101   0.302   4.036  0.00  0.00    +0.223 C 
ATOM     25  O   UNL     1       6.680   0.995   3.227  0.00  0.00    -0.275 OA
ATOM     26  H   UNL     1       4.379  -0.666   4.439  0.00  0.00    +0.149 HD
BRANCH  23  27
ATOM     27  C   UNL     1       4.173   0.276   2.547  0.00  0.00    +0.102 C 
BRANCH  27  28
ATOM     28  C   UNL     1       2.764  -0.321   2.518  0.00  0.00    +0.000 C 
BRANCH  28  29
ATOM     29  C   UNL     1       2.066   0.083   1.218  0.00  0.00    -0.077 C 
BRANCH  29  36
ATOM     30  C   UNL     1      -0.019   1.526   0.010  0.00  0.00    -0.013 C 
ATOM     31  C   UNL     1       0.002  -0.004   0.002  0.00  0.00    -0.072 C 
ATOM     32  C   UNL     1      -1.434  -0.533   0.011  0.00  0.00    -0.016 C 
ATOM     33  C   UNL     1      -1.408  -2.064   0.003  0.00  0.00    -0.003 C 
ATOM     34  C   UNL     1      -0.600  -2.558   1.206  0.00  0.00    -0.019 C 
ATOM     35  C   UNL     1       0.805  -1.954   1.152  0.00  0.00    -0.078 C 
ATOM     36  N   UNL     1       0.713  -0.490   1.191  0.00  0.00    +0.381 N 
ATOM     37  H   UNL     1       0.213  -0.206   2.020  0.00  0.00    -0.081 HD
ENDBRANCH  29  36
ENDBRANCH  28  29
ENDBRANCH  27  28
ENDBRANCH  23  27
ENDBRANCH  22  24
ENDBRANCH  21  22
ENDBRANCH   1  21
TORSDOF 10
