REMARK  Name = ZINC43209087
REMARK  18 active torsions:
REMARK  status: ('A' for Active; 'I' for Inactive)
REMARK    1  A    between atoms: C_1  and  C_2
REMARK    2  A    between atoms: C_2  and  C_3
REMARK    3  A    between atoms: C_3  and  C_4
REMARK    4  A    between atoms: C_4  and  C_5
REMARK    5  A    between atoms: C_5  and  N_6
REMARK    6  A    between atoms: N_6  and  C_7
REMARK    7  A    between atoms: C_7  and  C_9
REMARK    8  A    between atoms: C_7  and  C_16
REMARK    9  A    between atoms: C_16  and  C_18
REMARK   10  A    between atoms: C_16  and  C_35
REMARK   11  A    between atoms: C_18  and  N_19
REMARK   12  A    between atoms: N_19  and  C_20
REMARK   13  A    between atoms: N_19  and  S_25
REMARK   14  A    between atoms: C_20  and  C_21
REMARK   15  A    between atoms: C_21  and  C_22
REMARK   16  A    between atoms: C_22  and  C_23
REMARK   17  A    between atoms: C_23  and  C_24
REMARK   18  A    between atoms: S_25  and  C_28
REMARK                            x       y       z     vdW  Elec       q    Type
REMARK                         _______ _______ _______ _____ _____    ______ ____
ROOT
ATOM      1  C   UNL     1      -4.614  -5.798  -0.105  0.00  0.00    +0.108 C 
ENDROOT
BRANCH   1   2
ATOM      2  C   UNL     1      -4.333  -6.428   1.234  0.00  0.00    +0.359 C 
ATOM      3  O   UNL     1      -5.166  -6.369   2.123  0.00  0.00    -0.246 OA
ATOM      4  O   UNL     1      -3.272  -6.997   1.430  0.00  0.00    -0.246 OA
ENDBRANCH   1   2
BRANCH   1   5
ATOM      5  C   UNL     1      -6.056  -6.099  -0.518  0.00  0.00    +0.123 C 
BRANCH   5   6
ATOM      6  N   UNL     1      -6.205  -7.536  -0.760  0.00  0.00    -0.176 NA
BRANCH   6   7
ATOM      7  S   UNL     1      -6.032  -8.139  -2.293  0.00  0.00    +0.061 S 
ATOM      8  O   UNL     1      -6.750  -9.365  -2.330  0.00  0.00    -0.153 OA
ATOM      9  O   UNL     1      -6.307  -7.068  -3.184  0.00  0.00    -0.153 OA
BRANCH   7  10
ATOM     10  C   UNL     1      -4.331  -8.545  -2.503  0.00  0.00    +0.106 A 
ATOM     11  C   UNL     1      -3.450  -7.598  -2.992  0.00  0.00    +0.031 A 
ATOM     12  C   UNL     1      -2.115  -7.916  -3.157  0.00  0.00    +0.040 A 
ATOM     13  C   UNL     1      -1.660  -9.183  -2.834  0.00  0.00    +0.124 A 
ATOM     14  C   UNL     1      -2.543 -10.130  -2.345  0.00  0.00    +0.040 A 
ATOM     15  C   UNL     1      -3.876  -9.809  -2.175  0.00  0.00    +0.031 A 
ATOM     16  F   UNL     1      -0.355  -9.494  -2.995  0.00  0.00    -0.205 F 
ENDBRANCH   7  10
ENDBRANCH   6   7
BRANCH   6  17
ATOM     17  C   UNL     1      -6.507  -8.439   0.353  0.00  0.00    +0.109 C 
BRANCH  17  18
ATOM     18  C   UNL     1      -8.013  -8.429   0.624  0.00  0.00    +0.017 C 
BRANCH  18  19
ATOM     19  C   UNL     1      -8.328  -9.372   1.786  0.00  0.00    +0.001 C 
BRANCH  19  20
ATOM     20  C   UNL     1      -9.834  -9.362   2.058  0.00  0.00    -0.003 C 
ATOM     21  C   UNL     1     -10.149 -10.306   3.220  0.00  0.00    +0.004 C 
ENDBRANCH  19  20
ENDBRANCH  18  19
ENDBRANCH  17  18
ENDBRANCH   6  17
ENDBRANCH   5   6
ENDBRANCH   1   5
BRANCH   1  22
ATOM     22  C   UNL     1      -4.417  -4.284  -0.008  0.00  0.00    -0.026 C 
BRANCH  22  23
ATOM     23  C   UNL     1      -5.393  -3.713   0.988  0.00  0.00    -0.060 A 
ATOM     24  C   UNL     1      -5.081  -3.703   2.334  0.00  0.00    +0.003 A 
ATOM     25  C   UNL     1      -5.976  -3.180   3.248  0.00  0.00    +0.020 A 
ATOM     26  C   UNL     1      -7.186  -2.666   2.815  0.00  0.00    +0.041 A 
ATOM     27  C   UNL     1      -7.497  -2.675   1.467  0.00  0.00    +0.020 A 
ATOM     28  C   UNL     1      -6.599  -3.194   0.553  0.00  0.00    +0.003 A 
ATOM     29 CL   UNL     1      -8.311  -2.009   3.962  0.00  0.00    -0.084 Cl
ENDBRANCH  22  23
BRANCH  22  30
ATOM     30  N   UNL     1      -3.045  -3.996   0.432  0.00  0.00    +0.384 N 
ATOM     31  H   UNL     1      -2.391  -4.448  -0.190  0.00  0.00    -0.085 HD
ATOM     32  H   UNL     1      -2.913  -4.343   1.370  0.00  0.00    -0.085 HD
BRANCH  30  33
ATOM     33  C   UNL     1      -2.818  -2.545   0.410  0.00  0.00    -0.082 C 
BRANCH  33  34
ATOM     34  C   UNL     1      -1.389  -2.245   0.868  0.00  0.00    -0.019 C 
BRANCH  34  35
ATOM     35  C   UNL     1      -1.153  -0.733   0.846  0.00  0.00    -0.002 C 
BRANCH  35  37
ATOM     36  C   UNL     1       0.512   1.078   1.281  0.00  0.00    +0.004 C 
ATOM     37  C   UNL     1       0.276  -0.434   1.304  0.00  0.00    -0.003 C 
ENDBRANCH  35  37
ENDBRANCH  34  35
ENDBRANCH  33  34
ENDBRANCH  30  33
ENDBRANCH  22  30
ENDBRANCH   1  22
TORSDOF 16
