REMARK  Name = ZINC06073297
REMARK  7 active torsions:
REMARK  status: ('A' for Active; 'I' for Inactive)
REMARK    1  A    between atoms: C_1  and  C_2
REMARK    2  A    between atoms: C_2  and  C_3
REMARK    3  A    between atoms: C_3  and  O_4
REMARK    4  A    between atoms: O_4  and  C_5
REMARK    5  A    between atoms: C_8  and  C_11
REMARK    6  A    between atoms: N_18  and  C_25
REMARK    7  A    between atoms: C_21  and  O_24
REMARK                            x       y       z     vdW  Elec       q    Type
REMARK                         _______ _______ _______ _____ _____    ______ ____
ROOT
ATOM      1  C   UNL     1       3.346  -4.486   5.542  0.00  0.00    +0.116 C 
ATOM      2  C   UNL     1       2.347  -5.329   6.275  0.00  0.00    +0.079 A 
ATOM      3  C   UNL     1       0.961  -5.044   6.259  0.00  0.00    +0.271 A 
ATOM      4  O   UNL     1       0.431  -4.119   5.669  0.00  0.00    -0.266 OA
ATOM      5  N   UNL     1       0.329  -5.965   7.002  0.00  0.00    -0.261 N 
ATOM      6  H   UNL     1      -0.627  -6.009   7.162  0.00  0.00    +0.190 HD
ATOM      7  N   UNL     1       1.284  -6.849   7.503  0.00  0.00    -0.263 N 
ATOM      8  C   UNL     1       2.538  -6.449   7.043  0.00  0.00    +0.161 A 
ATOM      9  N   UNL     1       3.636  -7.123   7.366  0.00  0.00    -0.197 NA
ATOM     10  C   UNL     1       4.865  -7.049   7.115  0.00  0.00    +0.199 C 
ATOM     11  C   UNL     1       5.621  -6.034   6.351  0.00  0.00    +0.165 C 
ATOM     12  S   UNL     1       4.728  -5.441   4.906  0.00  0.00    -0.138 S 
ENDROOT
BRANCH   1  16
ATOM     13  C   UNL     1       1.385  -2.554   2.273  0.00  0.00    +0.121 A 
ATOM     14  C   UNL     1       1.962  -1.797   3.283  0.00  0.00    +0.046 A 
ATOM     15  C   UNL     1       2.595  -2.424   4.339  0.00  0.00    +0.008 A 
ATOM     16  C   UNL     1       2.654  -3.804   4.389  0.00  0.00    -0.030 A 
ATOM     17  C   UNL     1       2.081  -4.561   3.384  0.00  0.00    +0.008 A 
ATOM     18  C   UNL     1       1.442  -3.939   2.329  0.00  0.00    +0.046 A 
BRANCH  13  19
ATOM     19  O   UNL     1       0.761  -1.940   1.234  0.00  0.00    -0.492 OA
BRANCH  19  20
ATOM     20  C   UNL     1       0.742  -0.511   1.242  0.00  0.00    +0.229 C 
BRANCH  20  22
ATOM     21  C   UNL     1      -0.019   1.526   0.010  0.00  0.00    +0.007 C 
ATOM     22  C   UNL     1       0.002  -0.004   0.002  0.00  0.00    +0.038 C 
ENDBRANCH  20  22
ENDBRANCH  19  20
ENDBRANCH  13  19
ENDBRANCH   1  16
BRANCH   7  23
ATOM     23  C   UNL     1       1.016  -8.002   8.365  0.00  0.00    +0.107 C 
ATOM     24  C   UNL     1       0.080  -8.973   7.642  0.00  0.00    +0.027 C 
ATOM     25  C   UNL     1      -0.200 -10.178   8.543  0.00  0.00    +0.002 C 
ATOM     26  C   UNL     1      -0.860  -9.703   9.839  0.00  0.00    +0.000 C 
ATOM     27  C   UNL     1       0.076  -8.732  10.562  0.00  0.00    +0.002 C 
ATOM     28  C   UNL     1       0.357  -7.527   9.661  0.00  0.00    +0.027 C 
ENDBRANCH   7  23
BRANCH  10  29
ATOM     29  O   UNL     1       5.609  -8.048   7.622  0.00  0.00    -0.495 OA
ATOM     30  H   UNL     1       5.101  -8.704   8.119  0.00  0.00    +0.293 HD
ENDBRANCH  10  29
TORSDOF 6
