REMARK  Name = ZINC64870025
REMARK  6 active torsions:
REMARK  status: ('A' for Active; 'I' for Inactive)
REMARK    1  A    between atoms: C_1  and  C_2
REMARK    2  A    between atoms: C_5  and  N_8
REMARK    3  A    between atoms: C_14  and  C_21
REMARK    4  A    between atoms: C_24  and  C_28
REMARK    5  A    between atoms: C_31  and  O_34
REMARK    6  A    between atoms: O_34  and  C_35
REMARK                            x       y       z     vdW  Elec       q    Type
REMARK                         _______ _______ _______ _____ _____    ______ ____
ROOT
ATOM      1  N   UNL     1       0.059  -4.172  -0.021  0.00  0.00    -0.229 N 
ATOM      2  C   UNL     1       0.171  -4.839   1.148  0.00  0.00    +0.269 A 
ATOM      3  O   UNL     1       0.255  -4.240   2.203  0.00  0.00    -0.266 OA
ATOM      4  C   UNL     1       0.187  -6.312   1.112  0.00  0.00    +0.063 A 
ATOM      5  C   UNL     1       0.299  -7.072   2.274  0.00  0.00    +0.016 A 
ATOM      6  C   UNL     1       0.310  -8.448   2.188  0.00  0.00    +0.008 A 
ATOM      7  C   UNL     1       0.210  -9.075   0.955  0.00  0.00    -0.000 A 
ATOM      8  C   UNL     1       0.099  -8.333  -0.205  0.00  0.00    +0.034 A 
ATOM      9  C   UNL     1       0.086  -6.948  -0.137  0.00  0.00    +0.056 A 
ATOM     10  N   UNL     1      -0.025  -6.166  -1.278  0.00  0.00    -0.307 N 
ATOM     11  H   UNL     1      -0.097  -6.591  -2.147  0.00  0.00    +0.170 HD
ATOM     12  C   UNL     1      -0.041  -4.825  -1.189  0.00  0.00    +0.334 A 
ATOM     13  O   UNL     1      -0.145  -4.176  -2.212  0.00  0.00    -0.246 OA
ENDROOT
BRANCH   1  18
ATOM     14  C   UNL     1      -0.016   1.503   0.012  0.00  0.00    +0.044 C 
ATOM     15  C   UNL     1       0.004  -0.004   0.003  0.00  0.00    -0.050 A 
ATOM     16  C   UNL     1      -1.181  -0.710   0.107  0.00  0.00    +0.005 A 
ATOM     17  C   UNL     1      -1.166  -2.091   0.099  0.00  0.00    +0.026 A 
ATOM     18  C   UNL     1       0.040  -2.771  -0.013  0.00  0.00    +0.054 A 
ATOM     19  C   UNL     1       1.228  -2.059  -0.117  0.00  0.00    +0.026 A 
ATOM     20  C   UNL     1       1.206  -0.678  -0.114  0.00  0.00    +0.005 A 
ENDBRANCH   1  18
BRANCH   7  21
ATOM     21  C   UNL     1       0.223 -10.580   0.879  0.00  0.00    +0.242 C 
ATOM     22  N   UNL     1       0.997 -11.148   2.013  0.00  0.00    -0.265 NA
ATOM     23  C   UNL     1       0.439 -12.521   2.133  0.00  0.00    +0.180 C 
ATOM     24  N   UNL     1      -1.000 -12.341   1.827  0.00  0.00    -0.177 NA
ATOM     25  O   UNL     1      -1.109 -11.101   1.040  0.00  0.00    -0.274 OA
ATOM     26  H   UNL     1       1.983 -11.175   1.801  0.00  0.00    +0.127 HD
ATOM     27  H   UNL     1      -1.545 -12.281   2.674  0.00  0.00    +0.156 HD
BRANCH  23  28
ATOM     28  C   UNL     1       0.625 -13.049   3.533  0.00  0.00    -0.014 A 
ATOM     29  C   UNL     1       1.701 -12.628   4.292  0.00  0.00    +0.010 A 
ATOM     30  C   UNL     1       1.874 -13.111   5.574  0.00  0.00    +0.046 A 
ATOM     31  C   UNL     1       0.966 -14.018   6.101  0.00  0.00    +0.120 A 
ATOM     32  C   UNL     1      -0.114 -14.438   5.338  0.00  0.00    +0.046 A 
ATOM     33  C   UNL     1      -0.285 -13.948   4.058  0.00  0.00    +0.010 A 
BRANCH  31  34
ATOM     34  O   UNL     1       1.133 -14.494   7.363  0.00  0.00    -0.495 OA
ATOM     35  C   UNL     1       0.160 -15.425   7.840  0.00  0.00    +0.277 C 
ENDBRANCH  31  34
ENDBRANCH  23  28
ENDBRANCH   7  21
TORSDOF 4
