REMARK  Name = ZINC21727408
REMARK  8 active torsions:
REMARK  status: ('A' for Active; 'I' for Inactive)
REMARK    1  A    between atoms: C_1  and  C_2
REMARK    2  A    between atoms: C_5  and  C_8
REMARK    3  A    between atoms: C_18  and  S_21
REMARK    4  A    between atoms: S_21  and  C_22
REMARK    5  A    between atoms: C_22  and  C_24
REMARK    6  A    between atoms: C_22  and  C_25
REMARK    7  A    between atoms: N_27  and  C_28
REMARK    8  A    between atoms: C_28  and  C_29
REMARK                            x       y       z     vdW  Elec       q    Type
REMARK                         _______ _______ _______ _____ _____    ______ ____
ROOT
ATOM      1  C   UNL     1      -7.099   2.118   1.482  0.00  0.00    +0.149 A 
ATOM      2  N   UNL     1      -8.053   1.858   2.336  0.00  0.00    -0.228 NA
ATOM      3  C   UNL     1      -8.778   0.714   2.286  0.00  0.00    +0.077 A 
ATOM      4  C   UNL     1      -9.794   0.459   3.210  0.00  0.00    +0.028 A 
ATOM      5  C   UNL     1     -10.513  -0.714   3.131  0.00  0.00    +0.002 A 
ATOM      6  C   UNL     1     -10.240  -1.648   2.142  0.00  0.00    +0.001 A 
ATOM      7  C   UNL     1      -9.243  -1.419   1.218  0.00  0.00    +0.014 A 
ATOM      8  C   UNL     1      -8.504  -0.241   1.280  0.00  0.00    +0.045 A 
ATOM      9  C   UNL     1      -7.431   0.057   0.324  0.00  0.00    +0.173 A 
ATOM     10  N   UNL     1      -6.757   1.256   0.470  0.00  0.00    -0.253 N 
ATOM     11  C   UNL     1      -5.830   1.276  -0.531  0.00  0.00    +0.198 A 
ATOM     12  N   UNL     1      -5.968   0.161  -1.213  0.00  0.00    -0.122 NA
ATOM     13  N   UNL     1      -6.907  -0.559  -0.705  0.00  0.00    -0.128 NA
ENDROOT
BRANCH   1  18
ATOM     14  C   UNL     1      -4.218   7.073   1.984  0.00  0.00    +0.044 C 
ATOM     15  C   UNL     1      -4.973   5.775   1.852  0.00  0.00    -0.050 A 
ATOM     16  C   UNL     1      -6.353   5.787   1.765  0.00  0.00    +0.004 A 
ATOM     17  C   UNL     1      -7.050   4.603   1.644  0.00  0.00    +0.012 A 
ATOM     18  C   UNL     1      -6.359   3.390   1.611  0.00  0.00    +0.018 A 
ATOM     19  C   UNL     1      -4.966   3.385   1.705  0.00  0.00    +0.012 A 
ATOM     20  C   UNL     1      -4.282   4.577   1.820  0.00  0.00    +0.004 A 
ENDBRANCH   1  18
BRANCH  11  21
ATOM     21  S   UNL     1      -4.669   2.562  -0.854  0.00  0.00    -0.073 S 
BRANCH  21  22
ATOM     22  C   UNL     1      -3.822   1.866  -2.294  0.00  0.00    +0.137 C 
ATOM     23  C   UNL     1      -4.806   1.760  -3.462  0.00  0.00    +0.029 C 
BRANCH  22  24
ATOM     24  C   UNL     1      -2.675   2.763  -2.684  0.00  0.00    +0.226 C 
ATOM     25  O   UNL     1      -2.656   3.918  -2.315  0.00  0.00    -0.275 OA
ATOM     26  N   UNL     1      -1.671   2.280  -3.443  0.00  0.00    -0.312 N 
ATOM     27  H   UNL     1      -1.686   1.231  -3.773  0.00  0.00    +0.149 HD
BRANCH  26  28
ATOM     28  C   UNL     1      -0.559   3.153  -3.827  0.00  0.00    +0.135 C 
BRANCH  28  29
ATOM     29  C   UNL     1       0.434   2.367  -4.685  0.00  0.00    +0.135 C 
ATOM     30  C   UNL     1       1.676   3.230  -4.998  0.00  0.00    +0.035 C 
ATOM     31  C   UNL     1       2.044   2.847  -6.449  0.00  0.00    +0.031 C 
ATOM     32  C   UNL     1       0.981   1.797  -6.841  0.00  0.00    +0.160 C 
ATOM     33  O   UNL     1      -0.143   2.069  -5.976  0.00  0.00    -0.375 OA
ENDBRANCH  28  29
ENDBRANCH  26  28
ENDBRANCH  22  24
ENDBRANCH  21  22
ENDBRANCH  11  21
TORSDOF 6
