REMARK  Name = ZINC11004399
REMARK  8 active torsions:
REMARK  status: ('A' for Active; 'I' for Inactive)
REMARK    1  A    between atoms: C_1  and  C_2
REMARK    2  A    between atoms: C_5  and  N_8
REMARK    3  A    between atoms: C_17  and  S_18
REMARK    4  A    between atoms: S_18  and  C_19
REMARK    5  A    between atoms: C_19  and  C_21
REMARK    6  A    between atoms: C_19  and  C_22
REMARK    7  A    between atoms: N_24  and  C_25
REMARK    8  A    between atoms: C_27  and  C_30
REMARK                            x       y       z     vdW  Elec       q    Type
REMARK                         _______ _______ _______ _____ _____    ______ ____
ROOT
ATOM      1  N   UNL     1       0.059  -4.171  -0.021  0.00  0.00    -0.255 N 
ATOM      2  C   UNL     1      -0.035  -4.827  -1.193  0.00  0.00    +0.268 A 
ATOM      3  O   UNL     1      -0.136  -4.212  -2.240  0.00  0.00    -0.267 OA
ATOM      4  C   UNL     1      -0.015  -6.257  -1.190  0.00  0.00    +0.076 A 
ATOM      5  C   UNL     1      -0.104  -7.166  -2.345  0.00  0.00    -0.023 A 
ATOM      6  C   UNL     1      -0.063  -8.483  -2.086  0.00  0.00    -0.004 A 
ATOM      7  S   UNL     1       0.096  -8.600  -0.319  0.00  0.00    -0.073 S 
ATOM      8  C   UNL     1       0.105  -6.869   0.066  0.00  0.00    +0.117 A 
ATOM      9  N   UNL     1       0.193  -6.165   1.189  0.00  0.00    -0.215 NA
ATOM     10  C   UNL     1       0.177  -4.848   1.161  0.00  0.00    +0.178 A 
ATOM     11  C   UNL     1      -0.167  -9.312  -3.337  0.00  0.00    +0.043 C 
ATOM     12  C   UNL     1      -0.713  -8.338  -4.404  0.00  0.00    +0.010 C 
ATOM     13  C   UNL     1      -0.235  -6.978  -3.859  0.00  0.00    +0.037 C 
ENDROOT
BRANCH   1  18
ATOM     14  C   UNL     1      -0.016   1.503   0.012  0.00  0.00    +0.044 C 
ATOM     15  C   UNL     1       0.004  -0.004   0.003  0.00  0.00    -0.050 A 
ATOM     16  C   UNL     1      -1.181  -0.710   0.107  0.00  0.00    +0.005 A 
ATOM     17  C   UNL     1      -1.166  -2.091   0.100  0.00  0.00    +0.026 A 
ATOM     18  C   UNL     1       0.040  -2.771  -0.013  0.00  0.00    +0.052 A 
ATOM     19  C   UNL     1       1.228  -2.058  -0.118  0.00  0.00    +0.026 A 
ATOM     20  C   UNL     1       1.206  -0.677  -0.114  0.00  0.00    +0.005 A 
ENDBRANCH   1  18
BRANCH  10  21
ATOM     21  S   UNL     1       0.305  -3.945   2.669  0.00  0.00    -0.075 S 
BRANCH  21  22
ATOM     22  C   UNL     1       0.441  -5.231   3.941  0.00  0.00    +0.137 C 
ATOM     23  C   UNL     1      -0.857  -6.041   3.988  0.00  0.00    +0.029 C 
BRANCH  22  24
ATOM     24  C   UNL     1       0.680  -4.588   5.282  0.00  0.00    +0.233 C 
ATOM     25  O   UNL     1       0.317  -3.449   5.482  0.00  0.00    -0.274 OA
ATOM     26  N   UNL     1       1.299  -5.280   6.260  0.00  0.00    -0.253 N 
ATOM     27  H   UNL     1       1.590  -6.191   6.100  0.00  0.00    +0.158 HD
BRANCH  26  28
ATOM     28  C   UNL     1       1.520  -4.688   7.495  0.00  0.00    +0.224 A 
ATOM     29  C   UNL     1       2.132  -5.264   8.560  0.00  0.00    +0.092 A 
ATOM     30  C   UNL     1       2.152  -4.332   9.607  0.00  0.00    +0.082 A 
ATOM     31  N   UNL     1       1.575  -3.238   9.190  0.00  0.00    -0.081 NA
ATOM     32  O   UNL     1       1.170  -3.439   7.848  0.00  0.00    -0.339 OA
ATOM     33  C   UNL     1       2.738  -4.554  10.978  0.00  0.00    +0.069 C 
ENDBRANCH  26  28
ENDBRANCH  22  24
ENDBRANCH  21  22
ENDBRANCH  10  21
TORSDOF 5
