REMARK  Name = ZINC36302667
REMARK  19 active torsions:
REMARK  status: ('A' for Active; 'I' for Inactive)
REMARK    1  A    between atoms: C_1  and  C_2
REMARK    2  A    between atoms: C_2  and  C_3
REMARK    3  A    between atoms: C_4  and  C_23
REMARK    4  A    between atoms: C_5  and  O_14
REMARK    5  A    between atoms: N_6  and  C_8
REMARK    6  A    between atoms: O_14  and  C_15
REMARK    7  A    between atoms: C_23  and  N_24
REMARK    8  A    between atoms: N_24  and  C_25
REMARK    9  A    between atoms: N_24  and  C_29
REMARK   10  A    between atoms: C_25  and  C_26
REMARK   11  A    between atoms: C_26  and  O_27
REMARK   12  A    between atoms: O_27  and  C_28
REMARK   13  A    between atoms: C_29  and  C_30
REMARK   14  A    between atoms: C_30  and  C_32
REMARK   15  A    between atoms: C_30  and  O_37
REMARK   16  A    between atoms: C_32  and  O_33
REMARK   17  A    between atoms: O_33  and  C_34
REMARK   18  A    between atoms: C_34  and  C_35
REMARK   19  A    between atoms: C_34  and  C_36
REMARK                            x       y       z     vdW  Elec       q    Type
REMARK                         _______ _______ _______ _____ _____    ______ ____
ROOT
ATOM      1  C   UNL     1       1.401  -0.936  -1.813  0.00  0.00    +0.068 A 
ATOM      2  C   UNL     1       0.187  -1.010  -2.503  0.00  0.00    +0.021 A 
ATOM      3  C   UNL     1       0.460  -1.329  -3.796  0.00  0.00    +0.225 A 
ATOM      4  N   UNL     1       1.809  -1.452  -3.910  0.00  0.00    -0.200 N 
ATOM      5  N   UNL     1       2.371  -1.195  -2.653  0.00  0.00    -0.168 NA
ENDROOT
BRANCH   4   6
ATOM      6  C   UNL     1       2.513  -1.774  -5.079  0.00  0.00    +0.069 A 
ATOM      7  C   UNL     1       2.068  -2.803  -5.898  0.00  0.00    +0.028 A 
ATOM      8  C   UNL     1       2.764  -3.118  -7.049  0.00  0.00    +0.002 A 
ATOM      9  C   UNL     1       3.902  -2.409  -7.386  0.00  0.00    +0.000 A 
ATOM     10  C   UNL     1       4.347  -1.383  -6.573  0.00  0.00    +0.002 A 
ATOM     11  C   UNL     1       3.653  -1.060  -5.423  0.00  0.00    +0.028 A 
ENDBRANCH   4   6
BRANCH   1  13
ATOM     12  C   UNL     1       1.647   0.910  -0.176  0.00  0.00    +0.010 C 
ATOM     13  C   UNL     1       1.566  -0.608  -0.352  0.00  0.00    +0.054 C 
ENDBRANCH   1  13
BRANCH   3  14
ATOM     14  O   UNL     1      -0.449  -1.496  -4.790  0.00  0.00    -0.435 OA
BRANCH  14  15
ATOM     15  C   UNL     1      -1.057  -2.706  -4.903  0.00  0.00    +0.166 A 
ATOM     16  C   UNL     1      -0.824  -3.692  -3.956  0.00  0.00    +0.052 A 
ATOM     17  C   UNL     1      -1.442  -4.922  -4.072  0.00  0.00    +0.042 A 
ATOM     18  C   UNL     1      -2.296  -5.172  -5.133  0.00  0.00    +0.126 A 
ATOM     19  C   UNL     1      -2.532  -4.190  -6.080  0.00  0.00    +0.080 A 
ATOM     20  C   UNL     1      -1.919  -2.955  -5.965  0.00  0.00    +0.168 A 
ATOM     21  F   UNL     1      -2.152  -1.995  -6.886  0.00  0.00    -0.202 F 
ATOM     22  F   UNL     1      -2.900  -6.375  -5.245  0.00  0.00    -0.205 F 
ENDBRANCH  14  15
ENDBRANCH   3  14
BRANCH   2  23
ATOM     23  C   UNL     1      -1.181  -0.776  -1.916  0.00  0.00    -0.036 C 
BRANCH  23  24
ATOM     24  N   UNL     1      -1.503   0.656  -1.978  0.00  0.00    +0.386 N 
ATOM     25  H   UNL     1      -0.745   1.188  -1.577  0.00  0.00    -0.081 HD
BRANCH  24  26
ATOM     26  C   UNL     1      -2.736   0.914  -1.222  0.00  0.00    -0.050 C 
BRANCH  26  27
ATOM     27  C   UNL     1      -3.904   0.182  -1.886  0.00  0.00    +0.141 C 
BRANCH  27  28
ATOM     28  O   UNL     1      -3.732  -1.228  -1.730  0.00  0.00    -0.385 OA
ATOM     29  C   UNL     1      -4.774  -2.010  -2.317  0.00  0.00    +0.193 C 
ENDBRANCH  27  28
ENDBRANCH  26  27
ENDBRANCH  24  26
BRANCH  24  30
ATOM     30  C   UNL     1      -1.694   1.055  -3.379  0.00  0.00    -0.044 C 
BRANCH  30  31
ATOM     31  C   UNL     1      -1.881   2.572  -3.456  0.00  0.00    +0.124 C 
BRANCH  31  32
ATOM     32  O   UNL     1      -3.138   2.927  -2.877  0.00  0.00    -0.391 OA
ATOM     33  H   UNL     1      -3.900   2.523  -3.314  0.00  0.00    +0.210 HD
ENDBRANCH  31  32
BRANCH  31  34
ATOM     34  C   UNL     1      -1.849   3.015  -4.920  0.00  0.00    +0.189 C 
BRANCH  34  35
ATOM     35  O   UNL     1      -1.907   4.441  -4.987  0.00  0.00    -0.375 OA
BRANCH  35  36
ATOM     36  C   UNL     1      -1.883   4.962  -6.317  0.00  0.00    +0.112 C 
ATOM     37  C   UNL     1      -2.659   6.280  -6.363  0.00  0.00    +0.037 C 
ATOM     38  C   UNL     1      -0.434   5.208  -6.743  0.00  0.00    +0.037 C 
ENDBRANCH  35  36
ENDBRANCH  34  35
ENDBRANCH  31  34
ENDBRANCH  30  31
ENDBRANCH  24  30
ENDBRANCH  23  24
ENDBRANCH   2  23
TORSDOF 15
