REMARK  Name = ZINC21447553
REMARK  7 active torsions:
REMARK  status: ('A' for Active; 'I' for Inactive)
REMARK    1  A    between atoms: C_1  and  C_2
REMARK    2  A    between atoms: C_2  and  C_4
REMARK    3  A    between atoms: C_2  and  O_19
REMARK    4  A    between atoms: N_6  and  C_7
REMARK    5  A    between atoms: C_12  and  C_13
REMARK    6  A    between atoms: O_19  and  C_20
REMARK    7  A    between atoms: C_20  and  C_22
REMARK                            x       y       z     vdW  Elec       q    Type
REMARK                         _______ _______ _______ _____ _____    ______ ____
ROOT
ATOM      1  C   UNL     1      -1.129   1.718   0.016  0.00  0.00    +0.258 C 
ATOM      2  O   UNL     1      -1.049   2.925  -0.075  0.00  0.00    -0.271 OA
ATOM      3  N   UNL     1      -0.011   0.966   0.007  0.00  0.00    -0.282 N 
ATOM      4  H   UNL     1      -0.086  -0.132   0.020  0.00  0.00    +0.155 HD
ENDROOT
BRANCH   3   5
ATOM      5  C   UNL     1       1.244   1.580  -0.018  0.00  0.00    +0.041 A 
ATOM      6  C   UNL     1       1.426   2.764  -0.717  0.00  0.00    +0.024 A 
ATOM      7  C   UNL     1       2.666   3.372  -0.738  0.00  0.00    +0.002 A 
ATOM      8  C   UNL     1       3.736   2.800  -0.071  0.00  0.00    +0.001 A 
ATOM      9  C   UNL     1       3.571   1.619   0.624  0.00  0.00    +0.010 A 
ATOM     10  C   UNL     1       2.324   0.999   0.656  0.00  0.00    +0.003 A 
BRANCH  10  11
ATOM     11  C   UNL     1       2.141  -0.269   1.402  0.00  0.00    -0.016 A 
ATOM     12  C   UNL     1       1.094  -0.401   2.312  0.00  0.00    +0.008 A 
ATOM     13  C   UNL     1       0.925  -1.587   2.999  0.00  0.00    +0.001 A 
ATOM     14  C   UNL     1       1.801  -2.638   2.795  0.00  0.00    +0.000 A 
ATOM     15  C   UNL     1       2.845  -2.511   1.897  0.00  0.00    +0.001 A 
ATOM     16  C   UNL     1       3.020  -1.332   1.200  0.00  0.00    +0.008 A 
ENDBRANCH  10  11
ENDBRANCH   3   5
BRANCH   1  18
ATOM     17  C   UNL     1      -2.741   0.197  -1.096  0.00  0.00    +0.062 C 
ATOM     18  C   UNL     1      -2.479   1.060   0.140  0.00  0.00    +0.259 C 
BRANCH  18  19
ATOM     19  O   UNL     1      -3.507   2.080   0.245  0.00  0.00    -0.449 OA
BRANCH  19  20
ATOM     20  C   UNL     1      -4.611   1.766   0.950  0.00  0.00    +0.340 C 
ATOM     21  O   UNL     1      -4.712   0.669   1.464  0.00  0.00    -0.245 OA
BRANCH  20  22
ATOM     22  C   UNL     1      -5.697   2.753   1.099  0.00  0.00    +0.064 A 
ATOM     23  C   UNL     1      -6.846   2.427   1.826  0.00  0.00    +0.064 A 
ATOM     24  C   UNL     1      -7.859   3.355   1.967  0.00  0.00    +0.168 A 
ATOM     25  C   UNL     1      -7.739   4.613   1.375  0.00  0.00    +0.184 A 
ATOM     26  C   UNL     1      -6.600   4.935   0.648  0.00  0.00    +0.087 A 
ATOM     27  C   UNL     1      -5.583   4.014   0.509  0.00  0.00    +0.039 A 
ATOM     28 CL   UNL     1      -6.455   6.502  -0.085  0.00  0.00    -0.080 Cl
ATOM     29  O   UNL     1      -8.863   5.333   1.654  0.00  0.00    -0.451 OA
ATOM     30  C   UNL     1      -9.489   4.657   2.760  0.00  0.00    +0.466 C 
ATOM     31  O   UNL     1      -9.058   3.291   2.616  0.00  0.00    -0.453 OA
ENDBRANCH  20  22
ENDBRANCH  19  20
ENDBRANCH  18  19
ENDBRANCH   1  18
TORSDOF 6
