REMARK  Name = ZINC41313613
REMARK  6 active torsions:
REMARK  status: ('A' for Active; 'I' for Inactive)
REMARK    1  A    between atoms: C_1  and  C_2
REMARK    2  A    between atoms: C_9  and  C_11
REMARK    3  A    between atoms: N_13  and  C_14
REMARK    4  A    between atoms: C_15  and  C_23
REMARK    5  A    between atoms: N_25  and  C_26
REMARK    6  A    between atoms: C_26  and  C_27
REMARK                            x       y       z     vdW  Elec       q    Type
REMARK                         _______ _______ _______ _____ _____    ______ ____
ROOT
ATOM      1  C   UNL     1       0.068  -0.105   6.793  0.00  0.00    +0.085 A 
ATOM      2  C   UNL     1       0.054   1.019   7.604  0.00  0.00    +0.069 A 
ATOM      3  C   UNL     1       0.071   0.801   9.040  0.00  0.00    -0.023 A 
ATOM      4  C   UNL     1       0.100  -0.500   9.401  0.00  0.00    -0.004 A 
ATOM      5  S   UNL     1       0.096  -1.390   7.873  0.00  0.00    -0.077 S 
ATOM      6  C   UNL     1       0.126  -1.047  10.795  0.00  0.00    +0.043 C 
ATOM      7  C   UNL     1       0.495   0.095  11.754  0.00  0.00    +0.005 C 
ATOM      8  C   UNL     1      -0.368   1.317  11.426  0.00  0.00    +0.005 C 
ATOM      9  C   UNL     1       0.059   1.910  10.082  0.00  0.00    +0.037 C 
ENDROOT
BRANCH   1  12
ATOM     10  C   UNL     1       0.066  -1.347   4.778  0.00  0.00    +0.284 C 
ATOM     11  O   UNL     1       0.087  -2.378   5.424  0.00  0.00    -0.266 OA
ATOM     12  N   UNL     1       0.055  -0.156   5.409  0.00  0.00    -0.273 N 
ATOM     13  H   UNL     1       0.038   0.665   4.893  0.00  0.00    +0.156 HD
BRANCH  10  22
ATOM     14  C   UNL     1      -0.018   1.503   0.010  0.00  0.00    +0.047 C 
ATOM     15  C   UNL     1       0.002  -0.004   0.002  0.00  0.00    -0.008 A 
ATOM     16  C   UNL     1       0.006  -0.688  -1.195  0.00  0.00    +0.007 A 
ATOM     17  C   UNL     1       0.025  -2.076  -1.219  0.00  0.00    +0.001 A 
ATOM     18  C   UNL     1       0.040  -2.788  -0.053  0.00  0.00    +0.012 A 
ATOM     19  C   UNL     1       0.037  -2.114   1.171  0.00  0.00    +0.021 A 
ATOM     20  C   UNL     1       0.023  -0.707   1.201  0.00  0.00    +0.139 A 
ATOM     21  O   UNL     1       0.030  -0.327   2.493  0.00  0.00    -0.450 OA
ATOM     22  C   UNL     1       0.053  -1.401   3.310  0.00  0.00    +0.191 A 
ATOM     23  C   UNL     1       0.049  -2.540   2.570  0.00  0.00    +0.063 A 
ENDBRANCH  10  22
ENDBRANCH   1  12
BRANCH   2  24
ATOM     24  C   UNL     1       0.023   2.370   7.037  0.00  0.00    +0.247 C 
ATOM     25  O   UNL     1      -1.044   2.911   6.812  0.00  0.00    -0.270 OA
ATOM     26  N   UNL     1       1.176   3.014   6.765  0.00  0.00    -0.309 N 
ATOM     27  H   UNL     1       2.026   2.582   6.945  0.00  0.00    +0.149 HD
BRANCH  26  28
ATOM     28  C   UNL     1       1.145   4.364   6.199  0.00  0.00    +0.136 C 
BRANCH  28  29
ATOM     29  C   UNL     1       2.576   4.862   5.988  0.00  0.00    +0.135 C 
ATOM     30  C   UNL     1       2.555   6.328   5.505  0.00  0.00    +0.035 C 
ATOM     31  C   UNL     1       3.697   6.345   4.453  0.00  0.00    +0.031 C 
ATOM     32  C   UNL     1       3.574   4.918   3.861  0.00  0.00    +0.160 C 
ATOM     33  O   UNL     1       3.218   4.079   4.974  0.00  0.00    -0.375 OA
ENDBRANCH  28  29
ENDBRANCH  26  28
ENDBRANCH   2  24
TORSDOF 5
