REMARK  Name = ZINC36303739
REMARK  13 active torsions:
REMARK  status: ('A' for Active; 'I' for Inactive)
REMARK    1  A    between atoms: C_1  and  C_2
REMARK    2  A    between atoms: C_3  and  C_21
REMARK    3  A    between atoms: C_4  and  O_13
REMARK    4  A    between atoms: N_5  and  C_7
REMARK    5  A    between atoms: O_13  and  C_14
REMARK    6  A    between atoms: C_21  and  N_22
REMARK    7  A    between atoms: N_22  and  C_23
REMARK    8  A    between atoms: N_22  and  C_35
REMARK    9  A    between atoms: C_23  and  C_24
REMARK   10  A    between atoms: C_24  and  C_26
REMARK   11  A    between atoms: C_24  and  O_34
REMARK   12  A    between atoms: C_26  and  O_27
REMARK   13  A    between atoms: O_27  and  C_28
REMARK                            x       y       z     vdW  Elec       q    Type
REMARK                         _______ _______ _______ _____ _____    ______ ____
ROOT
ATOM      1  C   UNL     1       0.403   1.306  -0.119  0.00  0.00    +0.068 C 
ATOM      2  C   UNL     1       0.202  -0.187  -0.108  0.00  0.00    +0.065 A 
ATOM      3  C   UNL     1      -0.082  -0.981  -1.224  0.00  0.00    +0.021 A 
ATOM      4  C   UNL     1      -0.189  -2.270  -0.802  0.00  0.00    +0.225 A 
ATOM      5  N   UNL     1       0.022  -2.279   0.541  0.00  0.00    -0.200 N 
ATOM      6  N   UNL     1       0.269  -0.961   0.945  0.00  0.00    -0.168 NA
ENDROOT
BRANCH   5   7
ATOM      7  C   UNL     1       0.001  -3.407   1.373  0.00  0.00    +0.069 A 
ATOM      8  C   UNL     1      -0.991  -4.366   1.220  0.00  0.00    +0.028 A 
ATOM      9  C   UNL     1      -1.008  -5.477   2.041  0.00  0.00    +0.002 A 
ATOM     10  C   UNL     1      -0.040  -5.634   3.015  0.00  0.00    +0.000 A 
ATOM     11  C   UNL     1       0.949  -4.680   3.170  0.00  0.00    +0.002 A 
ATOM     12  C   UNL     1       0.976  -3.571   2.348  0.00  0.00    +0.028 A 
ENDBRANCH   5   7
BRANCH   4  13
ATOM     13  O   UNL     1      -0.459  -3.349  -1.580  0.00  0.00    -0.438 OA
BRANCH  13  14
ATOM     14  C   UNL     1      -1.761  -3.656  -1.816  0.00  0.00    +0.130 A 
ATOM     15  C   UNL     1      -2.767  -2.816  -1.359  0.00  0.00    +0.048 A 
ATOM     16  C   UNL     1      -4.090  -3.130  -1.600  0.00  0.00    +0.023 A 
ATOM     17  C   UNL     1      -4.414  -4.281  -2.297  0.00  0.00    +0.041 A 
ATOM     18  C   UNL     1      -3.412  -5.120  -2.753  0.00  0.00    +0.023 A 
ATOM     19  C   UNL     1      -2.087  -4.807  -2.519  0.00  0.00    +0.048 A 
ATOM     20 CL   UNL     1      -6.078  -4.673  -2.599  0.00  0.00    -0.084 Cl
ENDBRANCH  13  14
ENDBRANCH   4  13
BRANCH   3  21
ATOM     21  C   UNL     1      -0.241  -0.496  -2.641  0.00  0.00    -0.035 C 
BRANCH  21  22
ATOM     22  N   UNL     1       1.081  -0.372  -3.268  0.00  0.00    +0.386 N 
ATOM     23  H   UNL     1       1.672   0.211  -2.695  0.00  0.00    -0.081 HD
BRANCH  22  24
ATOM     24  C   UNL     1       0.938   0.234  -4.599  0.00  0.00    -0.068 C 
ATOM     25  C   UNL     1       1.903   1.361  -4.969  0.00  0.00    -0.017 C 
ATOM     26  C   UNL     1       0.437   1.678  -4.667  0.00  0.00    -0.017 C 
ENDBRANCH  22  24
BRANCH  22  27
ATOM     27  C   UNL     1       1.687  -1.704  -3.399  0.00  0.00    -0.043 C 
BRANCH  27  28
ATOM     28  C   UNL     1       3.113  -1.565  -3.937  0.00  0.00    +0.135 C 
BRANCH  28  29
ATOM     29  O   UNL     1       3.918  -0.875  -2.978  0.00  0.00    -0.390 OA
ATOM     30  H   UNL     1       3.978  -1.321  -2.122  0.00  0.00    +0.210 HD
ENDBRANCH  28  29
BRANCH  28  31
ATOM     31  C   UNL     1       3.700  -2.954  -4.191  0.00  0.00    +0.258 C 
BRANCH  31  32
ATOM     32  O   UNL     1       4.986  -2.824  -4.801  0.00  0.00    -0.489 OA
BRANCH  32  33
ATOM     33  C   UNL     1       5.649  -3.973  -5.095  0.00  0.00    +0.121 A 
ATOM     34  C   UNL     1       5.071  -5.201  -4.808  0.00  0.00    +0.045 A 
ATOM     35  C   UNL     1       5.747  -6.368  -5.108  0.00  0.00    +0.004 A 
ATOM     36  C   UNL     1       6.998  -6.313  -5.694  0.00  0.00    +0.000 A 
ATOM     37  C   UNL     1       7.576  -5.090  -5.981  0.00  0.00    +0.004 A 
ATOM     38  C   UNL     1       6.902  -3.921  -5.688  0.00  0.00    +0.045 A 
ENDBRANCH  32  33
ENDBRANCH  31  32
ENDBRANCH  28  31
ENDBRANCH  27  28
ENDBRANCH  22  27
ENDBRANCH  21  22
ENDBRANCH   3  21
TORSDOF 12
