REMARK  Name = ZINC15836629
REMARK  6 active torsions:
REMARK  status: ('A' for Active; 'I' for Inactive)
REMARK    1  A    between atoms: C_1  and  C_2
REMARK    2  A    between atoms: C_2  and  O_4
REMARK    3  A    between atoms: O_4  and  C_5
REMARK    4  A    between atoms: C_8  and  C_11
REMARK    5  A    between atoms: C_21  and  N_29
REMARK    6  A    between atoms: C_24  and  C_27
REMARK                            x       y       z     vdW  Elec       q    Type
REMARK                         _______ _______ _______ _____ _____    ______ ____
ROOT
ATOM      1  C   UNL     1       2.285   3.794  -0.120  0.00  0.00    +0.105 C 
ATOM      2  C   UNL     1       2.514   4.264   1.302  0.00  0.00    +0.029 C 
ATOM      3  C   UNL     1       2.474   3.217   2.421  0.00  0.00    +0.033 C 
ATOM      4  C   UNL     1       1.983   4.055   3.604  0.00  0.00    -0.030 C 
ATOM      5  C   UNL     1       1.274   5.089   3.164  0.00  0.00    -0.023 C 
ATOM      6  C   UNL     1       1.199   5.012   1.685  0.00  0.00    +0.051 C 
ATOM      7  C   UNL     1       1.127   6.212   0.823  0.00  0.00    +0.012 A 
ATOM      8  C   UNL     1       0.562   7.389   1.265  0.00  0.00    +0.132 A 
ATOM      9  C   UNL     1       0.490   8.498   0.438  0.00  0.00    +0.034 A 
ATOM     10  C   UNL     1       0.986   8.429  -0.846  0.00  0.00    +0.019 A 
ATOM     11  C   UNL     1       1.564   7.249  -1.309  0.00  0.00    +0.084 A 
ATOM     12  C   UNL     1       1.652   6.119  -0.469  0.00  0.00    +0.048 A 
ATOM     13  N   UNL     1       2.277   4.992  -0.975  0.00  0.00    -0.336 N 
ATOM     14  H   UNL     1       3.206   5.209  -1.302  0.00  0.00    +0.147 HD
ENDROOT
BRANCH   1  18
ATOM     15  C   UNL     1      -1.471   1.776  -0.405  0.00  0.00    +0.132 A 
ATOM     16  C   UNL     1      -0.337   1.081  -0.010  0.00  0.00    +0.047 A 
ATOM     17  C   UNL     1       0.877   1.735   0.079  0.00  0.00    +0.009 A 
ATOM     18  C   UNL     1       0.960   3.083  -0.218  0.00  0.00    -0.027 A 
ATOM     19  C   UNL     1      -0.169   3.779  -0.607  0.00  0.00    +0.009 A 
ATOM     20  C   UNL     1      -1.385   3.129  -0.699  0.00  0.00    +0.047 A 
BRANCH  15  21
ATOM     21  O   UNL     1      -2.665   1.133  -0.499  0.00  0.00    -0.426 OA
BRANCH  21  23
ATOM     22  C   UNL     1      -4.678   0.246   0.623  0.00  0.00    +0.136 C 
ATOM     23  C   UNL     1      -3.300   0.855   0.651  0.00  0.00    +0.309 C 
ATOM     24  O   UNL     1      -2.766   1.093   1.709  0.00  0.00    -0.251 OA
ENDBRANCH  21  23
ENDBRANCH  15  21
ENDBRANCH   1  18
BRANCH  11  25
ATOM     25  C   UNL     1       2.087   7.181  -2.684  0.00  0.00    +0.388 C 
ATOM     26  O   UNL     1       2.592   6.154  -3.093  0.00  0.00    -0.241 OA
ATOM     27  O   UNL     1       2.006   8.258  -3.490  0.00  0.00    -0.241 OA
ENDBRANCH  11  25
BRANCH   8  28
ATOM     28  N   UNL     1       0.025   7.469   2.642  0.00  0.00    +0.057 N 
ATOM     29  O   UNL     1      -0.758   6.626   3.041  0.00  0.00    -0.126 OA
ATOM     30  O   UNL     1       0.367   8.378   3.377  0.00  0.00    -0.126 OA
ENDBRANCH   8  28
TORSDOF 5
