REMARK  Name = ZINC21233071
REMARK  10 active torsions:
REMARK  status: ('A' for Active; 'I' for Inactive)
REMARK    1  A    between atoms: C_1  and  C_2
REMARK    2  A    between atoms: C_5  and  C_11
REMARK    3  A    between atoms: C_7  and  N_8
REMARK    4  A    between atoms: C_16  and  C_21
REMARK    5  A    between atoms: C_24  and  O_29
REMARK    6  A    between atoms: C_25  and  O_27
REMARK    7  A    between atoms: O_27  and  C_28
REMARK    8  A    between atoms: O_29  and  C_30
REMARK    9  A    between atoms: C_30  and  C_31
REMARK   10  A    between atoms: C_30  and  C_32
REMARK                            x       y       z     vdW  Elec       q    Type
REMARK                         _______ _______ _______ _____ _____    ______ ____
ROOT
ATOM      1  C   UNL     1       1.441  -1.137   3.300  0.00  0.00    +0.136 C 
ATOM      2  C   UNL     1       1.883  -0.356   2.085  0.00  0.00    +0.036 C 
ATOM      3  C   UNL     1       1.453   0.867   1.735  0.00  0.00    +0.017 C 
ATOM      4  C   UNL     1       1.960   1.524   0.461  0.00  0.00    +0.059 C 
ATOM      5  C   UNL     1       3.407   1.108   0.203  0.00  0.00    +0.032 C 
ATOM      6  C   UNL     1       3.434  -0.418   0.057  0.00  0.00    +0.088 C 
ATOM      7  C   UNL     1       2.842  -1.029   1.291  0.00  0.00    +0.163 C 
ATOM      8  O   UNL     1       3.198  -2.143   1.621  0.00  0.00    -0.292 OA
ATOM      9  N   UNL     1       0.557   1.606   2.437  0.00  0.00    -0.316 N 
ATOM     10  C   UNL     1      -0.644   1.122   2.944  0.00  0.00    +0.052 A 
ATOM     11  C   UNL     1      -1.872   1.591   2.511  0.00  0.00    +0.025 A 
ATOM     12  C   UNL     1      -3.029   1.109   3.099  0.00  0.00    +0.002 A 
ATOM     13  C   UNL     1      -2.958   0.164   4.106  0.00  0.00    +0.002 A 
ATOM     14  C   UNL     1      -1.731  -0.314   4.533  0.00  0.00    +0.025 A 
ATOM     15  C   UNL     1      -0.573   0.155   3.935  0.00  0.00    +0.049 A 
ATOM     16  N   UNL     1       0.678  -0.369   4.261  0.00  0.00    -0.331 N 
ATOM     17  H   UNL     1       0.758   2.668   2.640  0.00  0.00    +0.152 HD
ATOM     18  H   UNL     1       1.082  -0.190   5.268  0.00  0.00    +0.147 HD
ENDROOT
BRANCH   1  23
ATOM     19  C   UNL     1      -1.788  -5.593   1.534  0.00  0.00    +0.046 C 
ATOM     20  C   UNL     1      -0.946  -4.431   1.995  0.00  0.00    -0.020 A 
ATOM     21  C   UNL     1       0.252  -4.660   2.646  0.00  0.00    +0.006 A 
ATOM     22  C   UNL     1       1.026  -3.595   3.063  0.00  0.00    +0.006 A 
ATOM     23  C   UNL     1       0.599  -2.299   2.840  0.00  0.00    -0.021 A 
ATOM     24  C   UNL     1      -0.599  -2.070   2.189  0.00  0.00    +0.038 A 
ATOM     25  C   UNL     1      -1.371  -3.136   1.766  0.00  0.00    +0.129 A 
BRANCH  25  26
ATOM     26  N   UNL     1      -2.654  -2.890   1.069  0.00  0.00    +0.057 N 
ATOM     27  O   UNL     1      -2.997  -3.615   0.152  0.00  0.00    -0.126 OA
ATOM     28  O   UNL     1      -3.365  -1.963   1.411  0.00  0.00    -0.126 OA
ENDBRANCH  25  26
ENDBRANCH   1  23
BRANCH   5  29
ATOM     29  C   UNL     1       3.906   1.752  -1.065  0.00  0.00    -0.040 A 
ATOM     30  C   UNL     1       3.249   1.523  -2.260  0.00  0.00    +0.008 A 
ATOM     31  C   UNL     1       3.703   2.112  -3.425  0.00  0.00    +0.050 A 
ATOM     32  C   UNL     1       4.819   2.933  -3.398  0.00  0.00    +0.162 A 
ATOM     33  C   UNL     1       5.480   3.163  -2.195  0.00  0.00    +0.162 A 
ATOM     34  C   UNL     1       5.017   2.574  -1.030  0.00  0.00    +0.053 A 
BRANCH  33  35
ATOM     35  O   UNL     1       6.576   3.968  -2.163  0.00  0.00    -0.491 OA
ATOM     36  C   UNL     1       7.204   4.158  -0.894  0.00  0.00    +0.277 C 
ENDBRANCH  33  35
BRANCH  32  37
ATOM     37  O   UNL     1       5.266   3.513  -4.543  0.00  0.00    -0.486 OA
BRANCH  37  38
ATOM     38  C   UNL     1       4.611   3.141  -5.758  0.00  0.00    +0.167 C 
ATOM     39  C   UNL     1       3.349   3.988  -5.937  0.00  0.00    +0.051 C 
ATOM     40  C   UNL     1       5.554   3.377  -6.939  0.00  0.00    +0.051 C 
ENDBRANCH  37  38
ENDBRANCH  32  37
ENDBRANCH   5  29
TORSDOF 6
