REMARK  Name = ZINC36612728
REMARK  5 active torsions:
REMARK  status: ('A' for Active; 'I' for Inactive)
REMARK    1  A    between atoms: C_4  and  C_7
REMARK    2  A    between atoms: C_8  and  C_26
REMARK    3  A    between atoms: C_13  and  S_15
REMARK    4  A    between atoms: S_15  and  C_16
REMARK    5  A    between atoms: C_16  and  N_17
REMARK                            x       y       z     vdW  Elec       q    Type
REMARK                         _______ _______ _______ _____ _____    ______ ____
ROOT
ATOM      1  C   UNL     1       3.696  -0.685  -0.037  0.00  0.00    +0.096 A 
ATOM      2  C   UNL     1       3.728  -2.089   0.055  0.00  0.00    +0.142 A 
ATOM      3  C   UNL     1       4.991  -2.737   0.035  0.00  0.00    +0.270 A 
ATOM      4  O   UNL     1       5.069  -3.950   0.112  0.00  0.00    -0.266 OA
ATOM      5  N   UNL     1       6.103  -1.980  -0.071  0.00  0.00    -0.301 N 
ATOM      6  H   UNL     1       6.976  -2.404  -0.086  0.00  0.00    +0.171 HD
ATOM      7  C   UNL     1       6.007  -0.624  -0.157  0.00  0.00    +0.171 A 
ATOM      8  N   UNL     1       4.841  -0.008  -0.145  0.00  0.00    -0.222 NA
ENDROOT
BRANCH   1  12
ATOM      9  C   UNL     1      -0.016   1.380   0.010  0.00  0.00    +0.000 A 
ATOM     10  C   UNL     1       1.019   1.805   0.824  0.00  0.00    +0.001 A 
ATOM     11  C   UNL     1       2.227   1.139   0.813  0.00  0.00    +0.010 A 
ATOM     12  C   UNL     1       2.403   0.034  -0.021  0.00  0.00    +0.002 A 
ATOM     13  C   UNL     1       1.355  -0.390  -0.839  0.00  0.00    +0.010 A 
ATOM     14  C   UNL     1       0.152   0.285  -0.819  0.00  0.00    +0.001 A 
ENDBRANCH   1  12
BRANCH   2  15
ATOM     15  C   UNL     1       2.517  -2.845   0.167  0.00  0.00    +0.107 C 
ATOM     16  N   UNL     1       1.556  -3.444   0.255  0.00  0.00    -0.191 NA
ENDBRANCH   2  15
BRANCH   7  17
ATOM     17  S   UNL     1       7.480   0.332  -0.296  0.00  0.00    -0.064 S 
BRANCH  17  18
ATOM     18  C   UNL     1       6.885   2.044  -0.381  0.00  0.00    +0.222 C 
BRANCH  18  19
ATOM     19  N   UNL     1       8.028   2.953  -0.500  0.00  0.00    -0.234 N 
ATOM     20  C   UNL     1       8.729   3.532   0.531  0.00  0.00    +0.090 A 
ATOM     21  C   UNL     1       8.628   3.481   1.918  0.00  0.00    +0.029 A 
ATOM     22  C   UNL     1       9.501   4.194   2.689  0.00  0.00    +0.002 A 
ATOM     23  C   UNL     1      10.491   4.971   2.102  0.00  0.00    +0.002 A 
ATOM     24  C   UNL     1      10.612   5.039   0.745  0.00  0.00    +0.032 A 
ATOM     25  C   UNL     1       9.729   4.317  -0.069  0.00  0.00    +0.113 A 
ATOM     26  N   UNL     1       9.602   4.188  -1.405  0.00  0.00    -0.129 NA
ATOM     27  N   UNL     1       8.627   3.397  -1.688  0.00  0.00    -0.064 NA
ENDBRANCH  18  19
ENDBRANCH  17  18
ENDBRANCH   7  17
TORSDOF 5
