REMARK  Name = ZINC50512668
REMARK  5 active torsions:
REMARK  status: ('A' for Active; 'I' for Inactive)
REMARK    1  A    between atoms: C_3  and  C_6
REMARK    2  A    between atoms: N_7  and  O_8
REMARK    3  A    between atoms: O_8  and  C_9
REMARK    4  A    between atoms: C_9  and  C_10
REMARK    5  A    between atoms: N_12  and  C_13
REMARK                            x       y       z     vdW  Elec       q    Type
REMARK                         _______ _______ _______ _____ _____    ______ ____
ROOT
ATOM      1  C   UNL     1       5.263  -2.678  -0.062  0.00  0.00    +0.254 C 
ATOM      2  O   UNL     1       4.092  -2.994  -0.052  0.00  0.00    -0.272 OA
ATOM      3  N   UNL     1       6.217  -3.629  -0.076  0.00  0.00    -0.307 N 
ATOM      4  H   UNL     1       7.154  -3.377  -0.084  0.00  0.00    +0.149 HD
ENDROOT
BRANCH   3   5
ATOM      5  C   UNL     1       5.840  -5.045  -0.080  0.00  0.00    +0.035 C 
ATOM      6  C   UNL     1       5.024  -5.359   1.176  0.00  0.00    +0.029 C 
ATOM      7  C   UNL     1       4.631  -6.837   1.173  0.00  0.00    -0.008 C 
ATOM      8  C   UNL     1       5.893  -7.701   1.156  0.00  0.00    +0.007 C 
ATOM      9  C   UNL     1       6.709  -7.387  -0.100  0.00  0.00    -0.008 C 
ATOM     10  C   UNL     1       7.103  -5.909  -0.096  0.00  0.00    +0.029 C 
ATOM     11  C   UNL     1       5.869  -7.688  -1.343  0.00  0.00    +0.007 C 
ATOM     12  C   UNL     1       4.606  -6.824  -1.326  0.00  0.00    -0.008 C 
ATOM     13  C   UNL     1       3.790  -7.138  -0.070  0.00  0.00    +0.007 C 
ATOM     14  C   UNL     1       5.000  -5.346  -1.322  0.00  0.00    +0.029 C 
ENDBRANCH   3   5
BRANCH   1  15
ATOM     15  C   UNL     1       5.651  -1.222  -0.058  0.00  0.00    +0.358 C 
BRANCH  15  16
ATOM     16  O   UNL     1       4.472  -0.414  -0.043  0.00  0.00    -0.383 OA
BRANCH  16  18
ATOM     17  C   UNL     1       3.733   1.823  -0.024  0.00  0.00    +0.169 C 
ATOM     18  N   UNL     1       4.727   0.978  -0.038  0.00  0.00    -0.068 NA
ATOM     19  N   UNL     1       3.983   3.187  -0.020  0.00  0.00    -0.340 N 
ATOM     20  H   UNL     1       3.244   3.815  -0.009  0.00  0.00    +0.144 HD
ATOM     21  H   UNL     1       4.897   3.512  -0.027  0.00  0.00    +0.144 HD
BRANCH  17  24
ATOM     22  C   UNL     1      -0.016   1.355   0.009  0.00  0.00    +0.008 A 
ATOM     23  C   UNL     1       1.175   2.042   0.002  0.00  0.00    +0.019 A 
ATOM     24  C   UNL     1       2.347   1.329  -0.013  0.00  0.00    +0.055 A 
ATOM     25  S   UNL     1       1.752  -0.355  -0.017  0.00  0.00    -0.094 S 
ATOM     26  C   UNL     1       0.002  -0.004   0.002  0.00  0.00    +0.046 A 
ENDBRANCH  17  24
ENDBRANCH  16  18
ENDBRANCH  15  16
ENDBRANCH   1  15
TORSDOF 5
