REMARK  Name = ZINC29990028
REMARK  12 active torsions:
REMARK  status: ('A' for Active; 'I' for Inactive)
REMARK    1  A    between atoms: C_1  and  C_2
REMARK    2  A    between atoms: C_5  and  N_9
REMARK    3  A    between atoms: C_6  and  C_8
REMARK    4  A    between atoms: C_10  and  S_14
REMARK    5  A    between atoms: S_14  and  C_15
REMARK    6  A    between atoms: C_15  and  C_16
REMARK    7  A    between atoms: N_18  and  C_19
REMARK    8  A    between atoms: C_19  and  C_20
REMARK    9  A    between atoms: C_20  and  C_22
REMARK   10  A    between atoms: C_20  and  N_30
REMARK   11  A    between atoms: C_25  and  O_28
REMARK   12  A    between atoms: O_28  and  C_29
REMARK                            x       y       z     vdW  Elec       q    Type
REMARK                         _______ _______ _______ _____ _____    ______ ____
ROOT
ATOM      1  C   UNL     1      -0.836  -5.083  -2.137  0.00  0.00    +0.223 C 
ATOM      2  O   UNL     1       0.097  -5.573  -2.738  0.00  0.00    -0.275 OA
ATOM      3  N   UNL     1      -1.776  -5.877  -1.588  0.00  0.00    -0.316 N 
ATOM      4  H   UNL     1      -2.622  -5.433  -1.043  0.00  0.00    +0.149 HD
ENDROOT
BRANCH   1   5
ATOM      5  C   UNL     1      -0.943  -3.586  -2.004  0.00  0.00    +0.173 C 
BRANCH   5   6
ATOM      6  S   UNL     1       0.459  -2.804  -2.840  0.00  0.00    -0.075 S 
BRANCH   6   8
ATOM      7  N   UNL     1       0.821  -0.033  -2.943  0.00  0.00    -0.187 N 
ATOM      8  C   UNL     1       0.090  -1.108  -2.536  0.00  0.00    +0.214 A 
ATOM      9  N   UNL     1      -0.945  -0.639  -1.873  0.00  0.00    -0.101 NA
ATOM     10  N   UNL     1      -0.913   0.644  -1.837  0.00  0.00    -0.022 NA
ATOM     11  N   UNL     1       0.124   1.088  -2.461  0.00  0.00    -0.038 NA
BRANCH   7  16
ATOM     12  C   UNL     1       5.643  -0.073  -5.937  0.00  0.00    +0.044 C 
ATOM     13  C   UNL     1       4.363  -0.063  -5.142  0.00  0.00    -0.050 A 
ATOM     14  C   UNL     1       4.234  -0.876  -4.031  0.00  0.00    +0.005 A 
ATOM     15  C   UNL     1       3.063  -0.865  -3.298  0.00  0.00    +0.028 A 
ATOM     16  C   UNL     1       2.012  -0.043  -3.683  0.00  0.00    +0.073 A 
ATOM     17  C   UNL     1       2.145   0.772  -4.798  0.00  0.00    -0.025 A 
ATOM     18  C   UNL     1       3.320   0.760  -5.525  0.00  0.00    +0.008 A 
ATOM     19  C   UNL     1       1.009   1.670  -5.215  0.00  0.00    +0.046 C 
ENDBRANCH   7  16
ENDBRANCH   6   8
ENDBRANCH   5   6
ENDBRANCH   1   5
BRANCH   3  20
ATOM     20  C   UNL     1      -1.672  -7.333  -1.717  0.00  0.00    +0.093 C 
BRANCH  20  21
ATOM     21  C   UNL     1      -2.857  -7.994  -1.010  0.00  0.00    -0.020 C 
BRANCH  21  22
ATOM     22  N   UNL     1      -2.916  -7.532   0.383  0.00  0.00    +0.385 N 
ATOM     23  C   UNL     1      -1.717  -7.944   1.125  0.00  0.00    -0.078 C 
ATOM     24  C   UNL     1      -1.744  -7.325   2.524  0.00  0.00    -0.019 C 
ATOM     25  C   UNL     1      -3.005  -7.788   3.258  0.00  0.00    -0.004 C 
ATOM     26  C   UNL     1      -4.237  -7.390   2.441  0.00  0.00    -0.019 C 
ATOM     27  C   UNL     1      -4.138  -8.007   1.044  0.00  0.00    -0.078 C 
ATOM     28  H   UNL     1      -2.944  -6.433   0.376  0.00  0.00    -0.081 HD
ENDBRANCH  21  22
BRANCH  21  29
ATOM     29  C   UNL     1      -2.686  -9.491  -1.037  0.00  0.00    -0.059 A 
ATOM     30  C   UNL     1      -1.480 -10.055  -0.664  0.00  0.00    +0.005 A 
ATOM     31  C   UNL     1      -1.323 -11.427  -0.682  0.00  0.00    +0.046 A 
ATOM     32  C   UNL     1      -2.373 -12.239  -1.085  0.00  0.00    +0.120 A 
ATOM     33  C   UNL     1      -3.580 -11.671  -1.464  0.00  0.00    +0.046 A 
ATOM     34  C   UNL     1      -3.735 -10.298  -1.438  0.00  0.00    +0.005 A 
BRANCH  32  35
ATOM     35  O   UNL     1      -2.219 -13.589  -1.110  0.00  0.00    -0.495 OA
ATOM     36  C   UNL     1      -0.948 -14.104  -0.707  0.00  0.00    +0.277 C 
ENDBRANCH  32  35
ENDBRANCH  21  29
ENDBRANCH  20  21
ENDBRANCH   3  20
TORSDOF 9
