REMARK  Name = ZINC09972242
REMARK  8 active torsions:
REMARK  status: ('A' for Active; 'I' for Inactive)
REMARK    1  A    between atoms: C_4  and  C_7
REMARK    2  A    between atoms: C_8  and  C_9
REMARK    3  A    between atoms: C_9  and  N_71
REMARK    4  A    between atoms: C_15  and  C_17
REMARK    5  A    between atoms: C_17  and  S_18
REMARK    6  A    between atoms: S_18  and  C_19
REMARK    7  A    between atoms: C_22  and  C_30
REMARK    8  A    between atoms: N_23  and  C_24
REMARK                            x       y       z     vdW  Elec       q    Type
REMARK                         _______ _______ _______ _____ _____    ______ ____
ROOT
ATOM      1  C   UNL     1      -0.028   0.989  -0.003  0.00  0.00    +0.173 C 
ENDROOT
BRANCH   1   7
ATOM      2  C   UNL     1      -0.816   0.371  -4.665  0.00  0.00    -0.059 C 
ATOM      3  C   UNL     1      -1.030   1.519  -3.672  0.00  0.00    +0.089 C 
ATOM      4  N   UNL     1      -0.258   1.233  -2.454  0.00  0.00    -0.304 N 
ATOM      5  C   UNL     1       1.167   0.894  -2.596  0.00  0.00    +0.089 C 
ATOM      6  C   UNL     1       1.292  -0.235  -3.631  0.00  0.00    -0.059 C 
ATOM      7  C   UNL     1      -0.838   1.286  -1.239  0.00  0.00    +0.226 C 
ATOM      8  O   UNL     1      -2.012   1.572  -1.139  0.00  0.00    -0.275 OA
ATOM      9  N   UNL     1       0.636   0.197  -4.884  0.00  0.00    +0.384 N 
ATOM     10  H   UNL     1       1.038   1.095  -5.178  0.00  0.00    -0.081 HD
BRANCH   9  11
ATOM     11  C   UNL     1       0.869  -0.803  -5.947  0.00  0.00    -0.051 C 
BRANCH  11  13
ATOM     12  C   UNL     1       3.025  -1.932  -6.269  0.00  0.00    +0.002 C 
ATOM     13  C   UNL     1       2.334  -0.801  -6.301  0.00  0.00    -0.045 C 
BRANCH  12  17
ATOM     14  C   UNL     1       7.153  -1.927  -7.269  0.00  0.00    +0.000 A 
ATOM     15  C   UNL     1       6.532  -3.111  -6.910  0.00  0.00    +0.001 A 
ATOM     16  C   UNL     1       5.191  -3.119  -6.585  0.00  0.00    +0.008 A 
ATOM     17  C   UNL     1       4.461  -1.930  -6.617  0.00  0.00    -0.025 A 
ATOM     18  C   UNL     1       5.092  -0.741  -6.985  0.00  0.00    +0.008 A 
ATOM     19  C   UNL     1       6.434  -0.745  -7.303  0.00  0.00    +0.001 A 
ENDBRANCH  12  17
ENDBRANCH  11  13
ENDBRANCH   9  11
ENDBRANCH   1   7
BRANCH   1  20
ATOM     20  S   UNL     1      -1.082   1.141   1.460  0.00  0.00    -0.077 S 
BRANCH  20  21
ATOM     21  C   UNL     1       0.087   0.752   2.721  0.00  0.00    +0.193 A 
ATOM     22  N   UNL     1       1.352   0.443   2.543  0.00  0.00    -0.122 NA
ATOM     23  N   UNL     1       1.916   0.222   3.676  0.00  0.00    -0.128 NA
ATOM     24  C   UNL     1       1.044   0.366   4.646  0.00  0.00    +0.165 A 
ATOM     25  N   UNL     1      -0.155   0.710   4.064  0.00  0.00    -0.299 N 
BRANCH  25  26
ATOM     26  C   UNL     1      -1.425   0.975   4.744  0.00  0.00    +0.091 C 
ATOM     27  C   UNL     1      -2.515   0.076   4.157  0.00  0.00    +0.025 C 
ATOM     28  C   UNL     1      -3.842   0.353   4.867  0.00  0.00    +0.002 C 
ATOM     29  C   UNL     1      -4.229   1.820   4.669  0.00  0.00    +0.000 C 
ATOM     30  C   UNL     1      -3.139   2.719   5.256  0.00  0.00    +0.002 C 
ATOM     31  C   UNL     1      -1.813   2.442   4.546  0.00  0.00    +0.025 C 
ENDBRANCH  25  26
BRANCH  24  32
ATOM     32  C   UNL     1       1.300   0.191   6.092  0.00  0.00    +0.019 A 
ATOM     33  C   UNL     1       0.597   0.954   7.026  0.00  0.00    +0.011 A 
ATOM     34  C   UNL     1       0.838   0.782   8.373  0.00  0.00    +0.001 A 
ATOM     35  C   UNL     1       1.781  -0.136   8.799  0.00  0.00    +0.000 A 
ATOM     36  C   UNL     1       2.486  -0.891   7.878  0.00  0.00    +0.001 A 
ATOM     37  C   UNL     1       2.251  -0.734   6.528  0.00  0.00    +0.011 A 
ENDBRANCH  24  32
ENDBRANCH  20  21
ENDBRANCH   1  20
TORSDOF 8
