REMARK  Name = ZINC41500273
REMARK  7 active torsions:
REMARK  status: ('A' for Active; 'I' for Inactive)
REMARK    1  A    between atoms: C_1  and  C_2
REMARK    2  A    between atoms: C_2  and  C_3
REMARK    3  A    between atoms: C_6  and  O_21
REMARK    4  A    between atoms: C_7  and  C_9
REMARK    5  A    between atoms: C_9  and  N_10
REMARK    6  A    between atoms: C_13  and  N_20
REMARK    7  A    between atoms: O_21  and  C_22
REMARK                            x       y       z     vdW  Elec       q    Type
REMARK                         _______ _______ _______ _____ _____    ______ ____
ROOT
ATOM      1  N   UNL     1       4.896  -0.246  -2.931  0.00  0.00    -0.270 N 
ATOM      2  C   UNL     1       5.216  -0.098  -4.281  0.00  0.00    +0.092 A 
ATOM      3  C   UNL     1       5.019  -0.894  -5.397  0.00  0.00    +0.052 A 
ATOM      4  C   UNL     1       5.462  -0.462  -6.639  0.00  0.00    +0.027 A 
ATOM      5  C   UNL     1       6.104   0.765  -6.760  0.00  0.00    +0.026 A 
ATOM      6  C   UNL     1       6.301   1.560  -5.648  0.00  0.00    +0.050 A 
ATOM      7  C   UNL     1       5.859   1.134  -4.405  0.00  0.00    +0.157 A 
ATOM      8  O   UNL     1       5.913   1.686  -3.167  0.00  0.00    -0.407 OA
ATOM      9  C   UNL     1       5.329   0.857  -2.288  0.00  0.00    +0.422 A 
ATOM     10  O   UNL     1       5.211   1.066  -1.096  0.00  0.00    -0.223 OA
ENDROOT
BRANCH   4  11
ATOM     11  N   UNL     1       5.265  -1.263  -7.769  0.00  0.00    -0.358 N 
ATOM     12  H   UNL     1       4.818  -2.119  -7.684  0.00  0.00    +0.142 HD
ATOM     13  H   UNL     1       5.575  -0.961  -8.637  0.00  0.00    +0.142 HD
ENDBRANCH   4  11
BRANCH   1  14
ATOM     14  C   UNL     1       4.210  -1.389  -2.325  0.00  0.00    +0.167 C 
BRANCH  14  19
ATOM     15  C   UNL     1       0.707  -0.490  -1.238  0.00  0.00    -0.047 A 
ATOM     16  C   UNL     1      -0.012  -0.718  -2.397  0.00  0.00    +0.007 A 
ATOM     17  C   UNL     1       0.632  -1.164  -3.534  0.00  0.00    +0.046 A 
ATOM     18  C   UNL     1       2.002  -1.383  -3.514  0.00  0.00    +0.125 A 
ATOM     19  C   UNL     1       2.722  -1.153  -2.350  0.00  0.00    +0.014 A 
ATOM     20  C   UNL     1       2.073  -0.702  -1.216  0.00  0.00    +0.012 A 
BRANCH  15  22
ATOM     21  C   UNL     1      -0.019   1.526   0.010  0.00  0.00    +0.009 C 
ATOM     22  C   UNL     1       0.002  -0.004   0.002  0.00  0.00    +0.032 C 
ENDBRANCH  15  22
BRANCH  18  23
ATOM     23  O   UNL     1       2.638  -1.822  -4.632  0.00  0.00    -0.495 OA
ATOM     24  C   UNL     1       1.834  -2.038  -5.793  0.00  0.00    +0.277 C 
ENDBRANCH  18  23
ENDBRANCH  14  19
ENDBRANCH   1  14
TORSDOF 5
