REMARK  Name = ZINC50595724
REMARK  4 active torsions:
REMARK  status: ('A' for Active; 'I' for Inactive)
REMARK    1  A    between atoms: C_1  and  N_2
REMARK    2  A    between atoms: C_6  and  C_7
REMARK    3  A    between atoms: C_7  and  N_8
REMARK    4  A    between atoms: N_8  and  C_9
REMARK                            x       y       z     vdW  Elec       q    Type
REMARK                         _______ _______ _______ _____ _____    ______ ____
ROOT
ATOM      1  C   UNL     1       1.658   0.502   4.209  0.00  0.00    +0.075 A 
ATOM      2  C   UNL     1       2.834   1.143   4.449  0.00  0.00    +0.065 A 
ATOM      3  C   UNL     1       3.115   1.703   5.694  0.00  0.00    +0.044 A 
ATOM      4  C   UNL     1       2.231   1.635   6.718  0.00  0.00    +0.071 A 
ATOM      5  C   UNL     1       0.980   0.981   6.543  0.00  0.00    +0.120 A 
ATOM      6  C   UNL     1       0.678   0.398   5.241  0.00  0.00    +0.123 A 
ATOM      7  N   UNL     1      -0.521  -0.182   5.191  0.00  0.00    -0.189 NA
ATOM      8  S   UNL     1      -1.163   0.021   6.652  0.00  0.00    +0.117 S 
ATOM      9  N   UNL     1      -0.003   0.820   7.430  0.00  0.00    -0.189 NA
ATOM     10 CL   UNL     1       2.626   2.348   8.251  0.00  0.00    -0.081 Cl
ATOM     11 CL   UNL     1       4.011   1.264   3.178  0.00  0.00    -0.082 Cl
ENDROOT
BRANCH   1  12
ATOM     12  N   UNL     1       1.407  -0.049   2.951  0.00  0.00    -0.335 N 
ATOM     13  H   UNL     1       2.138  -0.197   2.332  0.00  0.00    +0.147 HD
BRANCH  12  14
ATOM     14  C   UNL     1       0.038  -0.405   2.567  0.00  0.00    +0.155 C 
BRANCH  14  20
ATOM     15  C   UNL     1      -0.179   1.436   0.081  0.00  0.00    +0.148 C 
ATOM     16  N   UNL     1      -0.076  -0.025   0.041  0.00  0.00    -0.352 N 
ATOM     17  C   UNL     1      -0.055  -0.788  -1.089  0.00  0.00    +0.085 A 
ATOM     18  C   UNL     1       0.048  -2.082  -0.721  0.00  0.00    +0.019 A 
ATOM     19  C   UNL     1       0.092  -2.118   0.687  0.00  0.00    +0.024 A 
ATOM     20  C   UNL     1       0.020  -0.845   1.125  0.00  0.00    +0.036 A 
ENDBRANCH  14  20
ENDBRANCH  12  14
ENDBRANCH   1  12
TORSDOF 3
