REMARK  Name = ZINC39676561
REMARK  12 active torsions:
REMARK  status: ('A' for Active; 'I' for Inactive)
REMARK    1  A    between atoms: C_1  and  C_2
REMARK    2  A    between atoms: C_2  and  C_3
REMARK    3  A    between atoms: C_3  and  C_5
REMARK    4  A    between atoms: C_3  and  C_6
REMARK    5  A    between atoms: C_10  and  C_19
REMARK    6  A    between atoms: N_21  and  C_22
REMARK    7  A    between atoms: C_22  and  C_23
REMARK    8  A    between atoms: C_22  and  C_31
REMARK    9  A    between atoms: C_26  and  O_29
REMARK   10  A    between atoms: O_29  and  C_30
REMARK   11  A    between atoms: C_34  and  O_37
REMARK   12  A    between atoms: O_37  and  C_38
REMARK                            x       y       z     vdW  Elec       q    Type
REMARK                         _______ _______ _______ _____ _____    ______ ____
ROOT
ATOM      1  C   UNL     1      -4.871  -2.347  -2.364  0.00  0.00    +0.219 C 
ATOM      2  O   UNL     1      -4.021  -1.548  -2.695  0.00  0.00    -0.275 OA
ATOM      3  N   UNL     1      -5.902  -2.615  -3.189  0.00  0.00    -0.304 N 
ATOM      4  H   UNL     1      -6.582  -3.254  -2.924  0.00  0.00    +0.150 HD
ENDROOT
BRANCH   1   9
ATOM      5  C   UNL     1      -1.544  -1.782   0.021  0.00  0.00    +0.218 C 
ATOM      6  O   UNL     1      -0.442  -2.286  -0.032  0.00  0.00    -0.275 OA
ATOM      7  N   UNL     1      -2.644  -2.559  -0.043  0.00  0.00    -0.300 N 
ATOM      8  C   UNL     1      -4.062  -2.131  -0.002  0.00  0.00    +0.121 C 
ATOM      9  C   UNL     1      -4.774  -3.040  -1.029  0.00  0.00    +0.100 C 
ATOM     10  C   UNL     1      -3.881  -4.288  -1.134  0.00  0.00    -0.004 C 
ATOM     11  C   UNL     1      -2.708  -4.034  -0.177  0.00  0.00    +0.115 C 
ATOM     12  C   UNL     1      -3.365  -4.449  -2.561  0.00  0.00    -0.010 C 
ATOM     13  C   UNL     1      -2.527  -5.728  -2.654  0.00  0.00    -0.082 C 
ATOM     14  N   UNL     1      -3.350  -6.883  -2.275  0.00  0.00    +0.379 N 
ATOM     15  C   UNL     1      -3.766  -6.764  -0.873  0.00  0.00    -0.082 C 
ATOM     16  C   UNL     1      -4.656  -5.530  -0.705  0.00  0.00    -0.010 C 
ATOM     17  H   UNL     1      -4.168  -6.919  -2.865  0.00  0.00    -0.086 HD
ATOM     18  H   UNL     1      -2.815  -7.730  -2.396  0.00  0.00    -0.086 HD
BRANCH   5  19
ATOM     19  C   UNL     1      -1.685  -0.288   0.159  0.00  0.00    +0.072 C 
ATOM     20  C   UNL     1      -2.442   0.037   1.447  0.00  0.00    +0.017 C 
BRANCH  19  22
ATOM     21  C   UNL     1      -0.437   1.875   0.222  0.00  0.00    +0.004 C 
ATOM     22  C   UNL     1      -0.296   0.352   0.208  0.00  0.00    +0.009 C 
ENDBRANCH  19  22
ENDBRANCH   5  19
ENDBRANCH   1   9
BRANCH   3  23
ATOM     23  C   UNL     1      -5.996  -1.942  -4.487  0.00  0.00    +0.134 C 
BRANCH  23  24
ATOM     24  C   UNL     1      -6.800  -2.791  -5.437  0.00  0.00    -0.023 A 
ATOM     25  C   UNL     1      -7.927  -3.453  -4.985  0.00  0.00    +0.009 A 
ATOM     26  C   UNL     1      -8.666  -4.232  -5.854  0.00  0.00    +0.046 A 
ATOM     27  C   UNL     1      -8.277  -4.351  -7.180  0.00  0.00    +0.120 A 
ATOM     28  C   UNL     1      -7.146  -3.685  -7.631  0.00  0.00    +0.046 A 
ATOM     29  C   UNL     1      -6.414  -2.903  -6.759  0.00  0.00    +0.009 A 
BRANCH  27  30
ATOM     30  O   UNL     1      -9.002  -5.117  -8.036  0.00  0.00    -0.495 OA
ATOM     31  C   UNL     1      -8.543  -5.193  -9.387  0.00  0.00    +0.277 C 
ENDBRANCH  27  30
ENDBRANCH  23  24
BRANCH  23  32
ATOM     32  C   UNL     1      -6.672  -0.606  -4.312  0.00  0.00    -0.023 A 
ATOM     33  C   UNL     1      -7.745  -0.484  -3.449  0.00  0.00    +0.009 A 
ATOM     34  C   UNL     1      -8.367   0.739  -3.287  0.00  0.00    +0.046 A 
ATOM     35  C   UNL     1      -7.912   1.845  -3.991  0.00  0.00    +0.120 A 
ATOM     36  C   UNL     1      -6.835   1.720  -4.855  0.00  0.00    +0.046 A 
ATOM     37  C   UNL     1      -6.213   0.496  -5.010  0.00  0.00    +0.009 A 
BRANCH  35  38
ATOM     38  O   UNL     1      -8.522   3.050  -3.833  0.00  0.00    -0.495 OA
ATOM     39  C   UNL     1      -8.001   4.145  -4.589  0.00  0.00    +0.277 C 
ENDBRANCH  35  38
ENDBRANCH  23  32
ENDBRANCH   3  23
TORSDOF 8
