REMARK  Name = ZINC19529547
REMARK  13 active torsions:
REMARK  status: ('A' for Active; 'I' for Inactive)
REMARK    1  A    between atoms: C_1  and  C_2
REMARK    2  A    between atoms: C_2  and  O_3
REMARK    3  A    between atoms: O_3  and  C_4
REMARK    4  A    between atoms: C_4  and  C_6
REMARK    5  A    between atoms: C_7  and  C_22
REMARK    6  A    between atoms: C_12  and  C_14
REMARK    7  A    between atoms: C_17  and  O_20
REMARK    8  A    between atoms: O_20  and  C_21
REMARK    9  A    between atoms: C_22  and  S_23
REMARK   10  A    between atoms: S_23  and  C_24
REMARK   11  A    between atoms: N_28  and  C_29
REMARK   12  A    between atoms: C_32  and  C_36
REMARK   13  A    between atoms: C_34  and  C_35
REMARK                            x       y       z     vdW  Elec       q    Type
REMARK                         _______ _______ _______ _____ _____    ______ ____
ROOT
ATOM      1  C   UNL     1       2.856   0.930   1.878  0.00  0.00    +0.079 C 
ATOM      2  C   UNL     1       4.008   1.429   2.375  0.00  0.00    +0.034 C 
ATOM      3  N   UNL     1       4.852   2.164   1.593  0.00  0.00    -0.272 N 
ATOM      4  C   UNL     1       4.617   2.445   0.305  0.00  0.00    +0.304 C 
ATOM      5  O   UNL     1       5.429   3.108  -0.311  0.00  0.00    -0.252 OA
ATOM      6  N   UNL     1       3.508   2.017  -0.331  0.00  0.00    -0.288 N 
ATOM      7  C   UNL     1       2.532   1.214   0.425  0.00  0.00    +0.144 C 
ATOM      8  H   UNL     1       5.787   2.562   2.015  0.00  0.00    +0.156 HD
ATOM      9  H   UNL     1       3.324   2.253  -1.389  0.00  0.00    +0.151 HD
ENDROOT
BRANCH   7  10
ATOM     10  C   UNL     1       1.206   1.928   0.376  0.00  0.00    -0.022 A 
ATOM     11  C   UNL     1       0.038   1.205   0.215  0.00  0.00    +0.009 A 
ATOM     12  C   UNL     1      -1.178   1.858   0.164  0.00  0.00    +0.046 A 
ATOM     13  C   UNL     1      -1.229   3.239   0.284  0.00  0.00    +0.120 A 
ATOM     14  C   UNL     1      -0.056   3.962   0.445  0.00  0.00    +0.046 A 
ATOM     15  C   UNL     1       1.159   3.305   0.490  0.00  0.00    +0.009 A 
BRANCH  13  16
ATOM     16  O   UNL     1      -2.425   3.883   0.239  0.00  0.00    -0.495 OA
ATOM     17  C   UNL     1      -3.591   3.074   0.071  0.00  0.00    +0.277 C 
ENDBRANCH  13  16
ENDBRANCH   7  10
BRANCH   1  18
ATOM     18  C   UNL     1       1.980   0.168   2.687  0.00  0.00    +0.339 C 
ATOM     19  O   UNL     1       2.322  -0.166   3.805  0.00  0.00    -0.245 OA
BRANCH  18  20
ATOM     20  O   UNL     1       0.766  -0.188   2.217  0.00  0.00    -0.462 OA
BRANCH  20  22
ATOM     21  C   UNL     1      -1.391  -1.263   2.387  0.00  0.00    +0.048 C 
ATOM     22  C   UNL     1      -0.066  -0.957   3.087  0.00  0.00    +0.229 C 
ENDBRANCH  20  22
ENDBRANCH  18  20
ENDBRANCH   1  18
BRANCH   2  23
ATOM     23  C   UNL     1       4.367   1.171   3.815  0.00  0.00    +0.128 C 
BRANCH  23  24
ATOM     24  S   UNL     1       5.566  -0.182   3.905  0.00  0.00    -0.078 S 
BRANCH  24  25
ATOM     25  C   UNL     1       5.802  -0.267   5.649  0.00  0.00    +0.214 A 
ATOM     26  N   UNL     1       5.220   0.489   6.555  0.00  0.00    -0.101 NA
ATOM     27  N   UNL     1       5.614   0.163   7.733  0.00  0.00    -0.022 NA
ATOM     28  N   UNL     1       6.461  -0.806   7.672  0.00  0.00    -0.038 NA
ATOM     29  N   UNL     1       6.614  -1.129   6.312  0.00  0.00    -0.187 N 
BRANCH  29  30
ATOM     30  C   UNL     1       7.431  -2.125   5.760  0.00  0.00    +0.073 A 
ATOM     31  C   UNL     1       6.919  -2.995   4.806  0.00  0.00    +0.028 A 
ATOM     32  C   UNL     1       7.726  -3.976   4.264  0.00  0.00    +0.005 A 
ATOM     33  C   UNL     1       9.043  -4.092   4.669  0.00  0.00    -0.050 A 
ATOM     34  C   UNL     1       9.556  -3.226   5.618  0.00  0.00    +0.008 A 
ATOM     35  C   UNL     1       8.755  -2.240   6.160  0.00  0.00    -0.025 A 
ATOM     36  C   UNL     1       9.316  -1.294   7.190  0.00  0.00    +0.046 C 
ATOM     37  C   UNL     1       9.922  -5.162   4.075  0.00  0.00    +0.044 C 
ENDBRANCH  29  30
ENDBRANCH  24  25
ENDBRANCH  23  24
ENDBRANCH   2  23
TORSDOF 9
