REMARK  Name = ZINC39276597
REMARK  7 active torsions:
REMARK  status: ('A' for Active; 'I' for Inactive)
REMARK    1  A    between atoms: C_1  and  C_2
REMARK    2  A    between atoms: C_7  and  O_31
REMARK    3  A    between atoms: C_13  and  C_15
REMARK    4  A    between atoms: C_15  and  C_16
REMARK    5  A    between atoms: N_18  and  C_19
REMARK    6  A    between atoms: C_19  and  C_20
REMARK    7  A    between atoms: C_20  and  C_21
REMARK                            x       y       z     vdW  Elec       q    Type
REMARK                         _______ _______ _______ _____ _____    ______ ____
ROOT
ATOM      1  C   UNL     1       1.951  -2.440   2.228  0.00  0.00    +0.214 C 
ATOM      2  O   UNL     1       2.227  -1.662   3.117  0.00  0.00    -0.276 OA
ATOM      3  N   UNL     1       2.393  -3.712   2.284  0.00  0.00    -0.315 N 
ATOM      4  H   UNL     1       2.173  -4.334   1.573  0.00  0.00    +0.149 HD
ENDROOT
BRANCH   1   5
ATOM      5  C   UNL     1       1.114  -1.984   1.061  0.00  0.00    +0.111 C 
BRANCH   5  17
ATOM      6  C   UNL     1      -0.019   1.526   0.010  0.00  0.00    +0.013 C 
ATOM      7  C   UNL     1       0.002  -0.004   0.002  0.00  0.00    +0.034 C 
ATOM      8  C   UNL     1      -1.413  -0.524   0.009  0.00  0.00    -0.001 A 
ATOM      9  C   UNL     1      -2.113  -0.549  -1.188  0.00  0.00    +0.011 A 
ATOM     10  C   UNL     1      -3.412  -1.010  -1.229  0.00  0.00    +0.046 A 
ATOM     11  C   UNL     1      -4.028  -1.453  -0.067  0.00  0.00    +0.120 A 
ATOM     12  C   UNL     1      -3.332  -1.432   1.131  0.00  0.00    +0.092 A 
ATOM     13  C   UNL     1      -2.021  -0.971   1.169  0.00  0.00    +0.139 A 
ATOM     14  O   UNL     1      -1.367  -0.986   2.362  0.00  0.00    -0.425 OA
ATOM     15  C   UNL     1      -0.179  -0.353   2.429  0.00  0.00    +0.316 C 
ATOM     16  O   UNL     1       0.133   0.308   3.392  0.00  0.00    -0.250 OA
ATOM     17  C   UNL     1       0.747  -0.510   1.241  0.00  0.00    +0.114 C 
BRANCH  11  18
ATOM     18  O   UNL     1      -5.309  -1.904  -0.103  0.00  0.00    -0.507 OA
ATOM     19  H   UNL     1      -5.388  -2.853  -0.270  0.00  0.00    +0.292 HD
ENDBRANCH  11  18
ENDBRANCH   5  17
ENDBRANCH   1   5
BRANCH   3  20
ATOM     20  C   UNL     1       3.207  -4.155   3.419  0.00  0.00    +0.109 C 
BRANCH  20  21
ATOM     21  C   UNL     1       3.574  -5.629   3.239  0.00  0.00    +0.056 C 
BRANCH  21  22
ATOM     22  C   UNL     1       4.411  -6.085   4.406  0.00  0.00    -0.021 A 
ATOM     23  C   UNL     1       3.916  -6.567   5.697  0.00  0.00    +0.004 A 
ATOM     24  C   UNL     1       2.643  -6.754   6.239  0.00  0.00    +0.030 A 
ATOM     25  C   UNL     1       2.514  -7.239   7.522  0.00  0.00    +0.042 A 
ATOM     26  C   UNL     1       3.641  -7.542   8.275  0.00  0.00    +0.022 A 
ATOM     27  C   UNL     1       4.903  -7.363   7.754  0.00  0.00    +0.027 A 
ATOM     28  C   UNL     1       5.057  -6.875   6.461  0.00  0.00    +0.047 A 
ATOM     29  N   UNL     1       6.156  -6.595   5.679  0.00  0.00    -0.360 N 
ATOM     30  C   UNL     1       5.752  -6.131   4.457  0.00  0.00    +0.087 A 
ATOM     31 CL   UNL     1       0.933  -7.473   8.201  0.00  0.00    -0.084 Cl
ATOM     32  H   UNL     1       7.080  -6.712   5.953  0.00  0.00    +0.165 HD
ENDBRANCH  21  22
ENDBRANCH  20  21
ENDBRANCH   3  20
TORSDOF 6
