REMARK  Name = ZINC01118103
REMARK  10 active torsions:
REMARK  status: ('A' for Active; 'I' for Inactive)
REMARK    1  A    between atoms: C_1  and  C_2
REMARK    2  A    between atoms: C_5  and  O_11
REMARK    3  A    between atoms: C_6  and  N_8
REMARK    4  A    between atoms: O_11  and  C_12
REMARK    5  A    between atoms: C_12  and  C_14
REMARK    6  A    between atoms: C_12  and  C_15
REMARK    7  A    between atoms: N_17  and  N_18
REMARK    8  A    between atoms: N_18  and  C_19
REMARK    9  A    between atoms: C_19  and  N_21
REMARK   10  A    between atoms: N_21  and  C_22
REMARK                            x       y       z     vdW  Elec       q    Type
REMARK                         _______ _______ _______ _____ _____    ______ ____
ROOT
ATOM      1  C   UNL     1       2.326  -4.023  -0.880  0.00  0.00    +0.270 C 
ATOM      2  O   UNL     1       1.223  -4.483  -1.088  0.00  0.00    -0.270 OA
ATOM      3  N   UNL     1       3.424  -4.754  -1.159  0.00  0.00    -0.232 N 
ATOM      4  H   UNL     1       4.306  -4.386  -0.993  0.00  0.00    +0.173 HD
ENDROOT
BRANCH   1   5
ATOM      5  C   UNL     1       2.470  -2.636  -0.310  0.00  0.00    +0.257 C 
ATOM      6  C   UNL     1       3.215  -2.707   1.024  0.00  0.00    +0.062 C 
BRANCH   5   7
ATOM      7  O   UNL     1       1.174  -2.070  -0.102  0.00  0.00    -0.478 OA
BRANCH   7  12
ATOM      8  C   UNL     1       0.676   3.499  -0.780  0.00  0.00    +0.044 C 
ATOM      9  C   UNL     1       0.809   2.009  -0.598  0.00  0.00    -0.048 A 
ATOM     10  C   UNL     1       2.055   1.413  -0.672  0.00  0.00    +0.007 A 
ATOM     11  C   UNL     1       2.180   0.048  -0.506  0.00  0.00    +0.048 A 
ATOM     12  C   UNL     1       1.054  -0.726  -0.265  0.00  0.00    +0.152 A 
ATOM     13  C   UNL     1      -0.195  -0.126  -0.191  0.00  0.00    +0.168 A 
ATOM     14  C   UNL     1      -0.314   1.240  -0.358  0.00  0.00    +0.039 A 
BRANCH  13  15
ATOM     15  N   UNL     1      -1.398  -0.949   0.066  0.00  0.00    +0.060 N 
ATOM     16  O   UNL     1      -2.494  -0.422   0.131  0.00  0.00    -0.126 OA
ATOM     17  O   UNL     1      -1.292  -2.154   0.213  0.00  0.00    -0.126 OA
ENDBRANCH  13  15
ENDBRANCH   7  12
ENDBRANCH   5   7
ENDBRANCH   1   5
BRANCH   3  18
ATOM     18  N   UNL     1       3.291  -6.044  -1.689  0.00  0.00    -0.246 N 
ATOM     19  H   UNL     1       2.408  -6.411  -1.856  0.00  0.00    +0.172 HD
BRANCH  18  20
ATOM     20  C   UNL     1       4.388  -6.774  -1.969  0.00  0.00    +0.151 C 
ATOM     21  S   UNL     1       4.226  -8.351  -2.616  0.00  0.00    -0.017 S 
BRANCH  20  22
ATOM     22  N   UNL     1       5.614  -6.264  -1.738  0.00  0.00    -0.295 N 
ATOM     23  H   UNL     1       5.706  -5.388  -1.331  0.00  0.00    +0.154 HD
BRANCH  22  24
ATOM     24  C   UNL     1       6.755  -6.998  -2.084  0.00  0.00    +0.051 A 
ATOM     25  C   UNL     1       6.776  -7.736  -3.260  0.00  0.00    +0.026 A 
ATOM     26  C   UNL     1       7.903  -8.459  -3.600  0.00  0.00    +0.017 A 
ATOM     27  C   UNL     1       9.009  -8.450  -2.769  0.00  0.00    +0.019 A 
ATOM     28  C   UNL     1       8.992  -7.716  -1.597  0.00  0.00    +0.037 A 
ATOM     29  C   UNL     1       7.869  -6.985  -1.254  0.00  0.00    +0.063 A 
ATOM     30 CL   UNL     1       7.850  -6.058   0.213  0.00  0.00    -0.082 Cl
ATOM     31 BR   UNL     1      10.549  -9.442  -3.238  0.00  0.00    -0.050 Br
ENDBRANCH  22  24
ENDBRANCH  20  22
ENDBRANCH  18  20
ENDBRANCH   3  18
TORSDOF 8
