REMARK  Name = ZINC09199921
REMARK  9 active torsions:
REMARK  status: ('A' for Active; 'I' for Inactive)
REMARK    1  A    between atoms: C_1  and  C_2
REMARK    2  A    between atoms: C_5  and  C_7
REMARK    3  A    between atoms: C_7  and  C_9
REMARK    4  A    between atoms: C_7  and  N_17
REMARK    5  A    between atoms: N_11  and  C_12
REMARK    6  A    between atoms: N_17  and  C_18
REMARK    7  A    between atoms: C_25  and  C_27
REMARK    8  A    between atoms: C_27  and  N_28
REMARK    9  A    between atoms: C_29  and  C_33
REMARK                            x       y       z     vdW  Elec       q    Type
REMARK                         _______ _______ _______ _____ _____    ______ ____
ROOT
ATOM      1  N   UNL     1       3.107   5.460   1.840  0.00  0.00    -0.251 N 
ATOM      2  C   UNL     1       3.359   4.393   1.056  0.00  0.00    +0.242 C 
ATOM      3  O   UNL     1       2.816   3.333   1.282  0.00  0.00    -0.273 OA
ENDROOT
BRANCH   1   4
ATOM      4  C   UNL     1       3.651   6.709   1.518  0.00  0.00    +0.038 A 
ATOM      5  C   UNL     1       3.947   7.619   2.524  0.00  0.00    +0.025 A 
ATOM      6  C   UNL     1       4.488   8.849   2.204  0.00  0.00    +0.022 A 
ATOM      7  C   UNL     1       4.725   9.179   0.882  0.00  0.00    +0.041 A 
ATOM      8  C   UNL     1       4.426   8.276  -0.124  0.00  0.00    +0.022 A 
ATOM      9  C   UNL     1       3.889   7.043   0.191  0.00  0.00    +0.025 A 
ATOM     10 CL   UNL     1       5.400  10.728   0.482  0.00  0.00    -0.084 Cl
ENDBRANCH   1   4
BRANCH   1  11
ATOM     11  C   UNL     1       2.263   5.313   3.028  0.00  0.00    +0.233 C 
BRANCH  11  16
ATOM     12  C   UNL     1      -0.808   8.949   1.358  0.00  0.00    +0.086 C 
ATOM     13  C   UNL     1      -0.203   7.888   2.241  0.00  0.00    +0.102 A 
ATOM     14  C   UNL     1      -0.659   7.518   3.452  0.00  0.00    +0.045 A 
ATOM     15  C   UNL     1       0.199   6.495   3.917  0.00  0.00    +0.047 A 
ATOM     16  C   UNL     1       1.132   6.307   2.967  0.00  0.00    +0.135 A 
ATOM     17  O   UNL     1       0.882   7.151   1.953  0.00  0.00    -0.462 OA
ENDBRANCH  11  16
BRANCH  11  18
ATOM     18  C   UNL     1       3.088   5.565   4.264  0.00  0.00    +0.242 C 
ATOM     19  O   UNL     1       4.264   5.841   4.162  0.00  0.00    -0.273 OA
ATOM     20  N   UNL     1       2.518   5.484   5.483  0.00  0.00    -0.311 N 
ATOM     21  H   UNL     1       1.577   5.264   5.564  0.00  0.00    +0.149 HD
BRANCH  20  22
ATOM     22  C   UNL     1       3.319   5.729   6.684  0.00  0.00    +0.073 C 
ATOM     23  C   UNL     1       3.988   4.420   7.150  0.00  0.00    +0.022 C 
ATOM     24  C   UNL     1       3.940   4.498   8.696  0.00  0.00    +0.002 C 
ATOM     25  C   UNL     1       2.562   5.151   8.963  0.00  0.00    +0.002 C 
ATOM     26  C   UNL     1       2.413   6.194   7.837  0.00  0.00    +0.022 C 
ENDBRANCH  20  22
ENDBRANCH  11  18
ENDBRANCH   1  11
BRANCH   2  27
ATOM     27  C   UNL     1       4.317   4.518  -0.101  0.00  0.00    +0.243 C 
BRANCH  27  28
ATOM     28  N   UNL     1       5.058   3.264  -0.258  0.00  0.00    -0.216 N 
ATOM     29  C   UNL     1       6.242   2.921   0.326  0.00  0.00    +0.189 A 
ATOM     30  N   UNL     1       6.540   1.707  -0.096  0.00  0.00    -0.108 NA
ATOM     31  N   UNL     1       5.632   1.273  -0.893  0.00  0.00    -0.023 NA
ATOM     32  N   UNL     1       4.702   2.153  -1.044  0.00  0.00    -0.043 NA
BRANCH  29  33
ATOM     33  C   UNL     1       7.036   3.748   1.249  0.00  0.00    +0.058 A 
ATOM     34  C   UNL     1       8.338   3.587   1.652  0.00  0.00    +0.019 A 
ATOM     35  C   UNL     1       8.875   4.500   2.531  0.00  0.00    +0.008 A 
ATOM     36  C   UNL     1       8.101   5.522   2.980  0.00  0.00    +0.046 A 
ATOM     37  S   UNL     1       6.554   5.217   2.143  0.00  0.00    -0.094 S 
ENDBRANCH  29  33
ENDBRANCH  27  28
ENDBRANCH   2  27
TORSDOF 8
