REMARK  Name = ZINC40375774
REMARK  6 active torsions:
REMARK  status: ('A' for Active; 'I' for Inactive)
REMARK    1  A    between atoms: C_1  and  C_2
REMARK    2  A    between atoms: C_2  and  C_3
REMARK    3  A    between atoms: C_3  and  N_4
REMARK    4  A    between atoms: N_7  and  C_8
REMARK    5  A    between atoms: C_8  and  C_15
REMARK    6  A    between atoms: N_16  and  O_17
REMARK                            x       y       z     vdW  Elec       q    Type
REMARK                         _______ _______ _______ _____ _____    ______ ____
ROOT
ATOM      1  C   UNL     1      -3.762  -4.865  -0.047  0.00  0.00    +0.094 C 
ATOM      2  C   UNL     1      -4.598  -4.598  -1.315  0.00  0.00    +0.033 C 
ATOM      3  C   UNL     1      -3.658  -4.396  -2.473  0.00  0.00    +0.002 C 
ATOM      4  C   UNL     1      -3.405  -5.697  -3.260  0.00  0.00    +0.000 C 
ATOM      5  C   UNL     1      -3.218  -6.922  -2.345  0.00  0.00    +0.000 C 
ATOM      6  C   UNL     1      -2.369  -6.617  -1.141  0.00  0.00    +0.002 C 
ATOM      7  C   UNL     1      -3.298  -6.242   0.032  0.00  0.00    +0.033 C 
ENDROOT
BRANCH   1  11
ATOM      8  N   UNL     1      -0.565  -3.310   0.883  0.00  0.00    -0.299 N 
ATOM      9  C   UNL     1      -1.685  -4.058   0.938  0.00  0.00    +0.300 C 
ATOM     10  O   UNL     1      -1.868  -4.811   1.875  0.00  0.00    -0.253 OA
ATOM     11  N   UNL     1      -2.601  -3.972  -0.047  0.00  0.00    -0.287 N 
ATOM     12  H   UNL     1      -0.419  -2.709   0.136  0.00  0.00    +0.150 HD
ATOM     13  H   UNL     1      -2.491  -3.319  -0.756  0.00  0.00    +0.151 HD
BRANCH   8  14
ATOM     14  C   UNL     1       0.431  -3.403   1.954  0.00  0.00    +0.105 C 
BRANCH  14  16
ATOM     15  C   UNL     1       2.636  -2.555   2.768  0.00  0.00    +0.005 C 
ATOM     16  C   UNL     1       1.595  -2.458   1.651  0.00  0.00    +0.015 C 
ENDBRANCH  14  16
ENDBRANCH   8  14
ENDBRANCH   1  11
BRANCH   1  17
ATOM     17  C   UNL     1      -4.607  -4.565   1.164  0.00  0.00    +0.155 C 
ATOM     18  N   UNL     1      -4.811  -5.481   2.053  0.00  0.00    -0.075 NA
ATOM     19  N   UNL     1      -5.163  -3.315   1.324  0.00  0.00    -0.342 N 
ATOM     20  H   UNL     1      -4.951  -2.607   0.696  0.00  0.00    +0.144 HD
ATOM     21  H   UNL     1      -5.767  -3.144   2.063  0.00  0.00    +0.144 HD
BRANCH  18  22
ATOM     22  O   UNL     1      -5.605  -5.199   3.191  0.00  0.00    -0.408 OA
ATOM     23  H   UNL     1      -5.700  -5.945   3.799  0.00  0.00    +0.328 HD
ENDBRANCH  18  22
ENDBRANCH   1  17
TORSDOF 5
