REMARK  Name = ZINC46986784
REMARK  4 active torsions:
REMARK  status: ('A' for Active; 'I' for Inactive)
REMARK    1  A    between atoms: C_1  and  C_2
REMARK    2  A    between atoms: C_2  and  C_4
REMARK    3  A    between atoms: C_2  and  N_15
REMARK    4  A    between atoms: N_18  and  C_19
REMARK                            x       y       z     vdW  Elec       q    Type
REMARK                         _______ _______ _______ _____ _____    ______ ____
ROOT
ATOM      1  C   UNL     1      -0.019   1.526   0.010  0.00  0.00    +0.033 C 
ATOM      2  C   UNL     1       0.002  -0.004   0.002  0.00  0.00    +0.102 C 
ENDROOT
BRANCH   2   3
ATOM      3  C   UNL     1       0.731  -0.503   1.223  0.00  0.00    -0.027 A 
ATOM      4  C   UNL     1       2.114  -0.513   1.245  0.00  0.00    +0.007 A 
ATOM      5  C   UNL     1       2.785  -0.970   2.362  0.00  0.00    +0.024 A 
ATOM      6  C   UNL     1       2.070  -1.419   3.464  0.00  0.00    +0.037 A 
ATOM      7  C   UNL     1       0.681  -1.407   3.439  0.00  0.00    -0.025 A 
ATOM      8  C   UNL     1       0.016  -0.945   2.321  0.00  0.00    +0.011 A 
ATOM      9  C   UNL     1      -0.094  -1.895   4.635  0.00  0.00    +0.046 C 
ATOM     10  C   UNL     1       0.667  -3.038   5.307  0.00  0.00    +0.101 C 
ATOM     11  C   UNL     1       2.107  -2.648   5.504  0.00  0.00    +0.218 C 
ATOM     12  O   UNL     1       2.702  -3.030   6.490  0.00  0.00    -0.275 OA
ATOM     13  N   UNL     1       2.743  -1.882   4.599  0.00  0.00    -0.285 N 
ATOM     14  H   UNL     1       3.675  -1.650   4.734  0.00  0.00    +0.155 HD
ENDBRANCH   2   3
BRANCH   2  15
ATOM     15  N   UNL     1       0.688  -0.476  -1.203  0.00  0.00    -0.293 N 
ATOM     16  C   UNL     1       0.006  -0.608  -2.358  0.00  0.00    +0.304 C 
ATOM     17  O   UNL     1      -1.178  -0.335  -2.400  0.00  0.00    -0.252 OA
ATOM     18  N   UNL     1       0.637  -1.043  -3.467  0.00  0.00    -0.267 N 
ATOM     19  H   UNL     1       1.632  -0.695  -1.170  0.00  0.00    +0.151 HD
ATOM     20  H   UNL     1       1.582  -1.261  -3.434  0.00  0.00    +0.156 HD
BRANCH  18  21
ATOM     21  C   UNL     1      -0.075  -1.180  -4.675  0.00  0.00    +0.072 A 
ATOM     22  C   UNL     1       0.432  -1.610  -5.858  0.00  0.00    +0.128 A 
ATOM     23  N   UNL     1      -0.578  -1.599  -6.766  0.00  0.00    -0.283 N 
ATOM     24  H   UNL     1      -0.510  -1.856  -7.699  0.00  0.00    +0.188 HD
ATOM     25  N   UNL     1      -1.734  -1.148  -6.117  0.00  0.00    -0.180 NA
ATOM     26  C   UNL     1      -1.437  -0.903  -4.867  0.00  0.00    +0.157 A 
ENDBRANCH  18  21
ENDBRANCH   2  15
TORSDOF 3
