REMARK  Name = ZINC24141269
REMARK  10 active torsions:
REMARK  status: ('A' for Active; 'I' for Inactive)
REMARK    1  A    between atoms: C_1  and  C_2
REMARK    2  A    between atoms: C_2  and  C_3
REMARK    3  A    between atoms: C_3  and  C_4
REMARK    4  A    between atoms: C_4  and  N_5
REMARK    5  A    between atoms: C_6  and  N_32
REMARK    6  A    between atoms: C_7  and  N_14
REMARK    7  A    between atoms: N_14  and  C_15
REMARK    8  A    between atoms: C_20  and  C_22
REMARK    9  A    between atoms: C_22  and  O_23
REMARK   10  A    between atoms: O_23  and  C_24
REMARK                            x       y       z     vdW  Elec       q    Type
REMARK                         _______ _______ _______ _____ _____    ______ ____
ROOT
ATOM      1  N   UNL     1       2.613   1.323  -0.171  0.00  0.00    -0.258 N 
ATOM      2  C   UNL     1       3.733   2.073  -0.127  0.00  0.00    +0.258 C 
ATOM      3  O   UNL     1       4.822   1.538  -0.124  0.00  0.00    -0.271 OA
ENDROOT
BRANCH   1   6
ATOM      4  N   UNL     1      -0.239   3.261  -1.442  0.00  0.00    -0.280 N 
ATOM      5  C   UNL     1       1.000   2.666  -1.384  0.00  0.00    +0.127 A 
ATOM      6  C   UNL     1       1.349   1.945  -0.260  0.00  0.00    +0.140 A 
ATOM      7  C   UNL     1       0.424   1.841   0.795  0.00  0.00    +0.277 A 
ATOM      8  O   UNL     1       0.707   1.211   1.800  0.00  0.00    -0.266 OA
ATOM      9  N   UNL     1      -0.778   2.439   0.686  0.00  0.00    -0.273 N 
ATOM     10  H   UNL     1      -1.510   2.356   1.503  0.00  0.00    +0.173 HD
ATOM     11  C   UNL     1      -1.100   3.142  -0.415  0.00  0.00    +0.331 A 
ATOM     12  O   UNL     1      -2.190   3.675  -0.485  0.00  0.00    -0.246 OA
BRANCH   5  13
ATOM     13  N   UNL     1       1.879   2.787  -2.434  0.00  0.00    -0.343 N 
ATOM     14  H   UNL     1       2.868   2.308  -2.381  0.00  0.00    +0.144 HD
ATOM     15  H   UNL     1       1.593   3.362  -3.326  0.00  0.00    +0.144 HD
ENDBRANCH   5  13
BRANCH   4  16
ATOM     16  C   UNL     1      -0.623   4.029  -2.629  0.00  0.00    +0.128 C 
BRANCH  16  17
ATOM     17  C   UNL     1      -1.303   3.102  -3.638  0.00  0.00    +0.021 C 
BRANCH  17  19
ATOM     18  C   UNL     1      -2.384   2.977  -5.887  0.00  0.00    +0.004 C 
ATOM     19  C   UNL     1      -1.704   3.904  -4.878  0.00  0.00    -0.002 C 
ENDBRANCH  17  19
ENDBRANCH  16  17
ENDBRANCH   4  16
ENDBRANCH   1   6
BRANCH   1  20
ATOM     20  C   UNL     1       2.708  -0.139  -0.126  0.00  0.00    +0.082 C 
ATOM     21  C   UNL     1       3.430  -0.582   1.163  0.00  0.00    +0.023 C 
ATOM     22  C   UNL     1       4.282  -1.798   0.721  0.00  0.00    +0.002 C 
ATOM     23  C   UNL     1       4.766  -1.383  -0.691  0.00  0.00    +0.002 C 
ATOM     24  C   UNL     1       3.556  -0.648  -1.304  0.00  0.00    +0.023 C 
ENDBRANCH   1  20
BRANCH   2  25
ATOM     25  C   UNL     1       3.632   3.576  -0.083  0.00  0.00    +0.325 C 
BRANCH  25  26
ATOM     26  O   UNL     1       4.943   4.140  -0.013  0.00  0.00    -0.480 OA
BRANCH  26  27
ATOM     27  C   UNL     1       5.028   5.491   0.113  0.00  0.00    +0.156 A 
ATOM     28  C   UNL     1       3.877   6.248   0.273  0.00  0.00    +0.050 A 
ATOM     29  C   UNL     1       3.965   7.620   0.401  0.00  0.00    +0.019 A 
ATOM     30  C   UNL     1       5.201   8.242   0.370  0.00  0.00    +0.021 A 
ATOM     31  C   UNL     1       6.352   7.491   0.211  0.00  0.00    +0.057 A 
ATOM     32  C   UNL     1       6.269   6.115   0.088  0.00  0.00    +0.166 A 
ATOM     33  F   UNL     1       7.393   5.381  -0.062  0.00  0.00    -0.202 F 
ATOM     34 BR   UNL     1       5.317  10.121   0.545  0.00  0.00    -0.050 Br
ENDBRANCH  26  27
ENDBRANCH  25  26
ENDBRANCH   2  25
TORSDOF 9
