REMARK  Name = ZINC02135916
REMARK  12 active torsions:
REMARK  status: ('A' for Active; 'I' for Inactive)
REMARK    1  A    between atoms: C_1  and  O_2
REMARK    2  A    between atoms: O_2  and  C_3
REMARK    3  A    between atoms: C_3  and  C_4
REMARK    4  A    between atoms: C_4  and  N_58
REMARK    5  A    between atoms: C_5  and  C_6
REMARK    6  A    between atoms: C_5  and  N_58
REMARK    7  A    between atoms: C_6  and  O_7
REMARK    8  A    between atoms: O_7  and  C_8
REMARK    9  A    between atoms: C_9  and  C_10
REMARK   10  A    between atoms: C_9  and  N_58
REMARK   11  A    between atoms: C_11  and  O_33
REMARK   12  A    between atoms: C_20  and  C_21
REMARK                            x       y       z     vdW  Elec       q    Type
REMARK                         _______ _______ _______ _____ _____    ______ ____
ROOT
ATOM      1  C   UNL     1      -1.424   8.402   2.710  0.00  0.00    +0.020 A 
ATOM      2  C   UNL     1      -2.150   8.084   3.846  0.00  0.00    +0.122 A 
ATOM      3  C   UNL     1      -2.356   6.754   4.204  0.00  0.00    +0.046 A 
ATOM      4  C   UNL     1      -1.844   5.745   3.438  0.00  0.00    +0.016 A 
ATOM      5  C   UNL     1      -1.110   6.049   2.290  0.00  0.00    +0.026 A 
ATOM      6  C   UNL     1      -0.897   7.389   1.922  0.00  0.00    +0.144 A 
ATOM      7  O   UNL     1      -0.186   7.680   0.812  0.00  0.00    -0.422 OA
ATOM      8  C   UNL     1       0.336   6.720   0.031  0.00  0.00    +0.338 A 
ATOM      9  O   UNL     1       0.969   7.042  -0.960  0.00  0.00    -0.245 OA
ATOM     10  C   UNL     1       0.177   5.358   0.325  0.00  0.00    +0.101 A 
ATOM     11  C   UNL     1      -0.545   4.982   1.446  0.00  0.00    +0.006 A 
ENDROOT
BRANCH  11  12
ATOM     12  C   UNL     1      -0.737   3.560   1.786  0.00  0.00    +0.068 A 
ATOM     13  C   UNL     1       0.342   2.765   2.126  0.00  0.00    +0.027 A 
ATOM     14  C   UNL     1       0.112   1.403   2.446  0.00  0.00    +0.020 A 
ATOM     15  C   UNL     1       1.185   0.570   2.796  0.00  0.00    +0.031 A 
ATOM     16  C   UNL     1       0.952  -0.751   3.104  0.00  0.00    +0.042 A 
ATOM     17  C   UNL     1      -0.340  -1.261   3.070  0.00  0.00    +0.023 A 
ATOM     18  C   UNL     1      -1.404  -0.455   2.729  0.00  0.00    +0.048 A 
ATOM     19  C   UNL     1      -1.194   0.882   2.413  0.00  0.00    +0.139 A 
ATOM     20  O   UNL     1      -2.242   1.665   2.075  0.00  0.00    -0.422 OA
ATOM     21  C   UNL     1      -2.078   2.962   1.769  0.00  0.00    +0.345 A 
ATOM     22  O   UNL     1      -3.042   3.643   1.473  0.00  0.00    -0.245 OA
ATOM     23 CL   UNL     1       2.278  -1.784   3.537  0.00  0.00    -0.084 Cl
ENDBRANCH  11  12
BRANCH   2  24
ATOM     24  O   UNL     1      -2.666   9.076   4.616  0.00  0.00    -0.506 OA
ATOM     25  H   UNL     1      -3.557   9.350   4.360  0.00  0.00    +0.292 HD
ENDBRANCH   2  24
BRANCH   1  26
ATOM     26  C   UNL     1      -1.207   9.844   2.330  0.00  0.00    -0.035 C 
BRANCH  26  27
ATOM     27  N   UNL     1      -2.404  10.331   1.613  0.00  0.00    +0.385 N 
ATOM     28  H   UNL     1      -3.243  10.021   2.115  0.00  0.00    -0.081 HD
BRANCH  27  29
ATOM     29  C   UNL     1      -2.394  11.809   1.560  0.00  0.00    -0.050 C 
BRANCH  29  30
ATOM     30  C   UNL     1      -3.749  12.292   1.037  0.00  0.00    +0.141 C 
BRANCH  30  32
ATOM     31  C   UNL     1      -6.093  12.268   1.538  0.00  0.00    +0.193 C 
ATOM     32  O   UNL     1      -4.769  11.959   1.980  0.00  0.00    -0.385 OA
ENDBRANCH  30  32
ENDBRANCH  29  30
ENDBRANCH  27  29
BRANCH  27  33
ATOM     33  C   UNL     1      -2.432   9.777   0.243  0.00  0.00    -0.050 C 
BRANCH  33  34
ATOM     34  C   UNL     1      -1.310  10.382  -0.604  0.00  0.00    +0.141 C 
BRANCH  34  35
ATOM     35  O   UNL     1      -0.047   9.919  -0.121  0.00  0.00    -0.385 OA
ATOM     36  C   UNL     1       1.077  10.515  -0.772  0.00  0.00    +0.193 C 
ENDBRANCH  34  35
ENDBRANCH  33  34
ENDBRANCH  27  33
ENDBRANCH  26  27
ENDBRANCH   1  26
TORSDOF 10
