REMARK  Name = ZINC13715679
REMARK  12 active torsions:
REMARK  status: ('A' for Active; 'I' for Inactive)
REMARK    1  A    between atoms: C_1  and  C_2
REMARK    2  A    between atoms: C_2  and  C_3
REMARK    3  A    between atoms: C_3  and  C_5
REMARK    4  A    between atoms: C_3  and  N_22
REMARK    5  A    between atoms: N_7  and  C_8
REMARK    6  A    between atoms: C_9  and  C_17
REMARK    7  A    between atoms: C_17  and  O_19
REMARK    8  A    between atoms: O_19  and  C_20
REMARK    9  A    between atoms: C_20  and  C_21
REMARK   10  A    between atoms: N_22  and  C_23
REMARK   11  A    between atoms: N_22  and  S_30
REMARK   12  A    between atoms: S_30  and  C_33
REMARK                            x       y       z     vdW  Elec       q    Type
REMARK                         _______ _______ _______ _____ _____    ______ ____
ROOT
ATOM      1  C   UNL     1      -1.972   2.219   5.772  0.00  0.00    +0.240 C 
ATOM      2  O   UNL     1      -2.947   2.781   5.321  0.00  0.00    -0.273 OA
ATOM      3  N   UNL     1      -0.845   2.132   5.037  0.00  0.00    -0.278 N 
ATOM      4  H   UNL     1      -0.065   1.683   5.398  0.00  0.00    +0.155 HD
ENDROOT
BRANCH   3   5
ATOM      5  C   UNL     1      -0.801   2.685   3.767  0.00  0.00    +0.086 A 
ATOM      6  C   UNL     1       0.257   2.698   2.868  0.00  0.00    +0.091 A 
ATOM      7  C   UNL     1       0.043   3.351   1.589  0.00  0.00    -0.021 A 
ATOM      8  C   UNL     1      -1.188   3.882   1.412  0.00  0.00    -0.004 A 
ATOM      9  S   UNL     1      -2.053   3.528   2.916  0.00  0.00    -0.077 S 
ATOM     10  C   UNL     1      -1.694   4.610   0.205  0.00  0.00    +0.043 C 
ATOM     11  C   UNL     1      -0.490   4.994  -0.668  0.00  0.00    +0.005 C 
ATOM     12  C   UNL     1       0.412   3.768  -0.832  0.00  0.00    +0.005 C 
ATOM     13  C   UNL     1       1.101   3.447   0.496  0.00  0.00    +0.037 C 
BRANCH   6  14
ATOM     14  C   UNL     1       1.541   2.077   3.197  0.00  0.00    +0.342 C 
ATOM     15  O   UNL     1       1.739   0.907   2.926  0.00  0.00    -0.245 OA
BRANCH  14  16
ATOM     16  O   UNL     1       2.506   2.801   3.800  0.00  0.00    -0.461 OA
BRANCH  16  17
ATOM     17  C   UNL     1       3.754   2.121   4.097  0.00  0.00    +0.229 C 
ATOM     18  C   UNL     1       4.718   3.096   4.775  0.00  0.00    +0.048 C 
ENDBRANCH  16  17
ENDBRANCH  14  16
ENDBRANCH   6  14
ENDBRANCH   3   5
BRANCH   1  19
ATOM     19  C   UNL     1      -2.020   1.618   7.153  0.00  0.00    +0.183 C 
BRANCH  19  21
ATOM     20  C   UNL     1      -2.345  -0.498   8.440  0.00  0.00    +0.006 C 
ATOM     21  C   UNL     1      -2.427   0.147   7.055  0.00  0.00    +0.030 C 
ENDBRANCH  19  21
BRANCH  19  22
ATOM     22  N   UNL     1      -2.998   2.343   7.967  0.00  0.00    -0.196 N 
BRANCH  22  23
ATOM     23  C   UNL     1      -4.344   2.367   7.587  0.00  0.00    +0.052 A 
ATOM     24  C   UNL     1      -4.917   3.546   7.129  0.00  0.00    +0.027 A 
ATOM     25  C   UNL     1      -6.244   3.566   6.749  0.00  0.00    +0.040 A 
ATOM     26  C   UNL     1      -7.007   2.413   6.835  0.00  0.00    +0.124 A 
ATOM     27  C   UNL     1      -6.440   1.238   7.296  0.00  0.00    +0.040 A 
ATOM     28  C   UNL     1      -5.111   1.212   7.672  0.00  0.00    +0.027 A 
ATOM     29  F   UNL     1      -8.307   2.436   6.467  0.00  0.00    -0.205 F 
ENDBRANCH  22  23
BRANCH  22  30
ATOM     30  S   UNL     1      -2.512   3.134   9.338  0.00  0.00    +0.043 S 
ATOM     31  O   UNL     1      -3.697   3.293  10.105  0.00  0.00    -0.155 OA
ATOM     32  O   UNL     1      -1.425   2.365   9.834  0.00  0.00    -0.155 OA
ATOM     33  C   UNL     1      -1.921   4.749   8.759  0.00  0.00    +0.218 C 
ENDBRANCH  22  30
ENDBRANCH  19  22
ENDBRANCH   1  19
TORSDOF 9
