REMARK  Name = ZINC09682204
REMARK  16 active torsions:
REMARK  status: ('A' for Active; 'I' for Inactive)
REMARK    1  A    between atoms: C_1  and  C_2
REMARK    2  A    between atoms: C_2  and  N_3
REMARK    3  A    between atoms: N_3  and  C_4
REMARK    4  A    between atoms: N_3  and  C_31
REMARK    5  A    between atoms: C_4  and  C_5
REMARK    6  A    between atoms: C_5  and  C_6
REMARK    7  A    between atoms: C_6  and  N_7
REMARK    8  A    between atoms: C_8  and  C_10
REMARK    9  A    between atoms: C_10  and  C_12
REMARK   10  A    between atoms: C_10  and  N_15
REMARK   11  A    between atoms: C_12  and  C_13
REMARK   12  A    between atoms: C_12  and  C_14
REMARK   13  A    between atoms: N_15  and  S_16
REMARK   14  A    between atoms: S_16  and  C_19
REMARK   15  A    between atoms: C_28  and  C_30
REMARK   16  A    between atoms: C_35  and  C_37
REMARK                            x       y       z     vdW  Elec       q    Type
REMARK                         _______ _______ _______ _____ _____    ______ ____
ROOT
ATOM      1  C   UNL     1       4.849   8.253  -4.394  0.00  0.00    +0.165 C 
ENDROOT
BRANCH   1   3
ATOM      2  N   UNL     1       2.589   8.842  -3.581  0.00  0.00    -0.314 N 
ATOM      3  C   UNL     1       3.914   8.793  -3.343  0.00  0.00    +0.232 C 
ATOM      4  O   UNL     1       4.355   9.184  -2.282  0.00  0.00    -0.274 OA
ATOM      5  H   UNL     1       2.243   8.595  -4.453  0.00  0.00    +0.149 HD
BRANCH   2   6
ATOM      6  C   UNL     1       1.670   9.268  -2.522  0.00  0.00    +0.106 C 
BRANCH   6   7
ATOM      7  C   UNL     1       0.234   9.235  -3.050  0.00  0.00    +0.037 C 
BRANCH   7   8
ATOM      8  C   UNL     1      -0.726   9.680  -1.944  0.00  0.00    +0.106 C 
BRANCH   8   9
ATOM      9  N   UNL     1      -2.101   9.648  -2.449  0.00  0.00    -0.330 N 
BRANCH   9  10
ATOM     10  C   UNL     1      -2.865   8.485  -2.322  0.00  0.00    +0.030 A 
ATOM     11  C   UNL     1      -2.322   7.358  -1.718  0.00  0.00    +0.023 A 
ATOM     12  C   UNL     1      -3.080   6.211  -1.595  0.00  0.00    +0.002 A 
ATOM     13  C   UNL     1      -4.378   6.182  -2.072  0.00  0.00    +0.003 A 
ATOM     14  C   UNL     1      -4.919   7.300  -2.680  0.00  0.00    -0.049 A 
ATOM     15  C   UNL     1      -4.168   8.453  -2.801  0.00  0.00    +0.026 A 
ATOM     16  C   UNL     1      -6.331   7.262  -3.205  0.00  0.00    +0.044 C 
ENDBRANCH   9  10
BRANCH   9  18
ATOM     17  C   UNL     1      -3.355  11.705  -2.028  0.00  0.00    +0.024 C 
ATOM     18  C   UNL     1      -2.675  10.835  -3.087  0.00  0.00    +0.102 C 
ENDBRANCH   9  18
ENDBRANCH   8   9
ENDBRANCH   7   8
ENDBRANCH   6   7
ENDBRANCH   2   6
ENDBRANCH   1   3
BRANCH   1  19
ATOM     19  C   UNL     1       4.879   6.725  -4.314  0.00  0.00    +0.010 C 
ATOM     20  C   UNL     1       5.720   6.170  -5.465  0.00  0.00    +0.009 C 
ATOM     21  C   UNL     1       5.494   6.296  -2.980  0.00  0.00    +0.009 C 
ENDBRANCH   1  19
BRANCH   1  22
ATOM     22  N   UNL     1       6.197   8.780  -4.166  0.00  0.00    -0.178 NA
ATOM     23  H   UNL     1       6.684   8.536  -3.364  0.00  0.00    +0.149 HD
BRANCH  22  24
ATOM     24  S   UNL     1       6.889   9.793  -5.279  0.00  0.00    +0.059 S 
ATOM     25  O   UNL     1       8.156  10.166  -4.756  0.00  0.00    -0.153 OA
ATOM     26  O   UNL     1       6.743   9.164  -6.546  0.00  0.00    -0.153 OA
BRANCH  24  27
ATOM     27  C   UNL     1       5.912  11.258  -5.329  0.00  0.00    +0.106 A 
ATOM     28  C   UNL     1       6.206  12.316  -4.489  0.00  0.00    +0.030 A 
ATOM     29  C   UNL     1       5.444  13.464  -4.525  0.00  0.00    +0.026 A 
ATOM     30  C   UNL     1       4.368  13.567  -5.410  0.00  0.00    +0.040 A 
ATOM     31  C   UNL     1       4.082  12.501  -6.248  0.00  0.00    -0.023 A 
ATOM     32  C   UNL     1       4.853  11.355  -6.212  0.00  0.00    +0.034 A 
ATOM     33  C   UNL     1       2.884  12.865  -7.096  0.00  0.00    +0.056 C 
ATOM     34  C   UNL     1       2.507  14.285  -6.645  0.00  0.00    +0.118 C 
ATOM     35  N   UNL     1       3.479  14.629  -5.604  0.00  0.00    -0.271 N 
ATOM     36  C   UNL     1       3.511  15.796  -4.932  0.00  0.00    +0.217 C 
ATOM     37  O   UNL     1       4.359  15.986  -4.085  0.00  0.00    -0.276 OA
ATOM     38  C   UNL     1       2.495  16.867  -5.233  0.00  0.00    +0.109 C 
ENDBRANCH  24  27
ENDBRANCH  22  24
ENDBRANCH   1  22
TORSDOF 11
