REMARK  Name = ZINC13031277
REMARK  12 active torsions:
REMARK  status: ('A' for Active; 'I' for Inactive)
REMARK    1  A    between atoms: C_1  and  C_2
REMARK    2  A    between atoms: C_7  and  C_8
REMARK    3  A    between atoms: C_8  and  C_10
REMARK    4  A    between atoms: C_8  and  N_18
REMARK    5  A    between atoms: N_12  and  C_13
REMARK    6  A    between atoms: C_13  and  C_14
REMARK    7  A    between atoms: C_14  and  C_15
REMARK    8  A    between atoms: C_15  and  C_16
REMARK    9  A    between atoms: C_15  and  C_17
REMARK   10  A    between atoms: N_18  and  C_19
REMARK   11  A    between atoms: C_29  and  C_31
REMARK   12  A    between atoms: C_31  and  N_32
REMARK                            x       y       z     vdW  Elec       q    Type
REMARK                         _______ _______ _______ _____ _____    ______ ____
ROOT
ATOM      1  N   UNL     1       3.505  -0.936   0.137  0.00  0.00    -0.254 N 
ATOM      2  C   UNL     1       4.673  -0.324   0.416  0.00  0.00    +0.242 C 
ATOM      3  O   UNL     1       5.706  -0.959   0.412  0.00  0.00    -0.273 OA
ENDROOT
BRANCH   1   4
ATOM      4  C   UNL     1       2.325  -0.186   0.045  0.00  0.00    +0.041 A 
ATOM      5  C   UNL     1       1.677   0.232   1.200  0.00  0.00    +0.027 A 
ATOM      6  C   UNL     1       0.513   0.970   1.111  0.00  0.00    +0.051 A 
ATOM      7  C   UNL     1      -0.012   1.295  -0.131  0.00  0.00    +0.162 A 
ATOM      8  C   UNL     1       0.635   0.881  -1.289  0.00  0.00    +0.164 A 
ATOM      9  C   UNL     1       1.803   0.139  -1.198  0.00  0.00    +0.073 A 
ATOM     10  O   UNL     1       0.140   1.198  -2.516  0.00  0.00    -0.485 OA
ATOM     11  C   UNL     1      -1.227   1.620  -2.569  0.00  0.00    +0.270 C 
ATOM     12  C   UNL     1      -1.457   2.647  -1.452  0.00  0.00    +0.270 C 
ATOM     13  O   UNL     1      -1.166   2.017  -0.199  0.00  0.00    -0.485 OA
ENDBRANCH   1   4
BRANCH   1  14
ATOM     14  C   UNL     1       3.470  -2.386  -0.072  0.00  0.00    +0.197 C 
BRANCH  14  21
ATOM     15  C   UNL     1       4.997  -2.079  -2.505  0.00  0.00    +0.044 C 
ATOM     16  C   UNL     1       3.564  -2.539  -2.569  0.00  0.00    -0.045 A 
ATOM     17  C   UNL     1       2.981  -2.819  -3.791  0.00  0.00    +0.004 A 
ATOM     18  C   UNL     1       1.664  -3.235  -3.850  0.00  0.00    +0.000 A 
ATOM     19  C   UNL     1       0.932  -3.377  -2.686  0.00  0.00    +0.000 A 
ATOM     20  C   UNL     1       1.516  -3.102  -1.464  0.00  0.00    +0.006 A 
ATOM     21  C   UNL     1       2.833  -2.686  -1.405  0.00  0.00    -0.015 A 
ENDBRANCH  14  21
BRANCH  14  22
ATOM     22  C   UNL     1       2.665  -3.032   1.026  0.00  0.00    +0.238 C 
ATOM     23  O   UNL     1       1.939  -2.356   1.723  0.00  0.00    -0.273 OA
ATOM     24  N   UNL     1       2.752  -4.361   1.232  0.00  0.00    -0.313 N 
ATOM     25  H   UNL     1       3.383  -4.891   0.721  0.00  0.00    +0.149 HD
BRANCH  24  26
ATOM     26  C   UNL     1       1.893  -5.005   2.229  0.00  0.00    +0.104 C 
BRANCH  26  27
ATOM     27  C   UNL     1       2.191  -6.506   2.265  0.00  0.00    +0.022 C 
BRANCH  27  28
ATOM     28  C   UNL     1       1.294  -7.179   3.306  0.00  0.00    -0.016 C 
ATOM     29  C   UNL     1      -0.168  -7.066   2.869  0.00  0.00    +0.007 C 
ATOM     30  C   UNL     1       1.676  -8.655   3.430  0.00  0.00    +0.007 C 
ENDBRANCH  27  28
ENDBRANCH  26  27
ENDBRANCH  24  26
ENDBRANCH  14  22
ENDBRANCH   1  14
BRANCH   2  31
ATOM     31  C   UNL     1       4.694   1.149   0.735  0.00  0.00    +0.242 C 
BRANCH  31  32
ATOM     32  N   UNL     1       6.059   1.555   1.077  0.00  0.00    -0.235 N 
ATOM     33  C   UNL     1       6.626   1.562   2.330  0.00  0.00    +0.090 A 
ATOM     34  C   UNL     1       6.173   1.212   3.597  0.00  0.00    +0.029 A 
ATOM     35  C   UNL     1       7.007   1.328   4.673  0.00  0.00    +0.002 A 
ATOM     36  C   UNL     1       8.308   1.789   4.512  0.00  0.00    +0.002 A 
ATOM     37  C   UNL     1       8.778   2.133   3.279  0.00  0.00    +0.032 A 
ATOM     38  C   UNL     1       7.943   2.022   2.159  0.00  0.00    +0.113 A 
ATOM     39  N   UNL     1       8.120   2.280   0.848  0.00  0.00    -0.129 NA
ATOM     40  N   UNL     1       7.044   2.018   0.192  0.00  0.00    -0.064 NA
ENDBRANCH  31  32
ENDBRANCH   2  31
TORSDOF 9
