REMARK  Name = ZINC21075465
REMARK  11 active torsions:
REMARK  status: ('A' for Active; 'I' for Inactive)
REMARK    1  A    between atoms: C_1  and  C_2
REMARK    2  A    between atoms: C_2  and  C_3
REMARK    3  A    between atoms: C_3  and  C_5
REMARK    4  A    between atoms: C_3  and  S_6
REMARK    5  A    between atoms: S_6  and  C_7
REMARK    6  A    between atoms: C_13  and  C_15
REMARK    7  A    between atoms: C_15  and  S_16
REMARK    8  A    between atoms: S_16  and  C_17
REMARK    9  A    between atoms: N_22  and  N_23
REMARK   10  A    between atoms: C_24  and  C_25
REMARK   11  A    between atoms: C_27  and  N_32
REMARK                            x       y       z     vdW  Elec       q    Type
REMARK                         _______ _______ _______ _____ _____    ______ ____
ROOT
ATOM      1  C   UNL     1       1.291   1.766  -0.001  0.00  0.00    +0.211 A 
ATOM      2  N   UNL     1      -0.017   1.369   0.010  0.00  0.00    -0.186 NA
ATOM      3  C   UNL     1       0.002  -0.004   0.002  0.00  0.00    +0.232 A 
ATOM      4  N   UNL     1       1.292  -0.387  -0.012  0.00  0.00    -0.245 N 
ATOM      5  N   UNL     1       2.050   0.652  -0.014  0.00  0.00    -0.144 NA
ATOM      6  N   UNL     1      -1.064  -0.811   0.008  0.00  0.00    -0.205 N 
ATOM      7  H   UNL     1      -2.078  -0.384   0.021  0.00  0.00    +0.177 HD
ATOM      8  H   UNL     1       1.548  -1.456  -0.021  0.00  0.00    +0.192 HD
ENDROOT
BRANCH   6   9
ATOM      9  N   UNL     1      -0.904  -2.091  -0.000  0.00  0.00    -0.187 NA
ATOM     10  C   UNL     1      -1.955  -2.887   0.006  0.00  0.00    +0.142 C 
BRANCH  10  11
ATOM     11  C   UNL     1      -1.779  -4.292  -0.003  0.00  0.00    +0.043 A 
ATOM     12  C   UNL     1      -2.896  -5.146   0.003  0.00  0.00    +0.046 A 
ATOM     13  C   UNL     1      -2.719  -6.499  -0.006  0.00  0.00    +0.127 A 
ATOM     14  C   UNL     1      -1.441  -7.044  -0.022  0.00  0.00    +0.036 A 
ATOM     15  C   UNL     1      -0.328  -6.226  -0.029  0.00  0.00    +0.054 A 
ATOM     16  C   UNL     1      -0.481  -4.848  -0.025  0.00  0.00    +0.188 A 
ATOM     17  O   UNL     1       0.608  -4.040  -0.037  0.00  0.00    -0.287 OA
BRANCH  13  18
ATOM     18  N   UNL     1      -3.898  -7.394   0.000  0.00  0.00    +0.056 N 
ATOM     19  O   UNL     1      -5.112  -6.883   0.015  0.00  0.00    -0.126 OA
ATOM     20  O   UNL     1      -3.734  -8.700  -0.009  0.00  0.00    -0.126 OA
ENDBRANCH  13  18
ENDBRANCH  10  11
ENDBRANCH   6   9
BRANCH   1  21
ATOM     21  S   UNL     1       1.860   3.381   0.002  0.00  0.00    -0.075 S 
BRANCH  21  22
ATOM     22  C   UNL     1       3.646   3.084  -0.016  0.00  0.00    +0.173 C 
BRANCH  22  29
ATOM     23  C   UNL     1       7.995   7.778  -0.034  0.00  0.00    +0.160 A 
ATOM     24  N   UNL     1       6.675   7.892  -0.021  0.00  0.00    -0.133 NA
ATOM     25  N   UNL     1       5.918   6.883  -0.025  0.00  0.00    -0.125 NA
ATOM     26  C   UNL     1       6.394   5.649  -0.029  0.00  0.00    +0.189 A 
ATOM     27  S   UNL     1       8.151   5.994  -0.044  0.00  0.00    -0.024 S 
ATOM     28  N   UNL     1       5.721   4.430  -0.029  0.00  0.00    -0.263 N 
ATOM     29  C   UNL     1       4.374   4.404  -0.017  0.00  0.00    +0.229 C 
ATOM     30  O   UNL     1       3.747   5.442  -0.005  0.00  0.00    -0.275 OA
ATOM     31  H   UNL     1       6.289   3.488  -0.039  0.00  0.00    +0.157 HD
BRANCH  23  32
ATOM     32  S   UNL     1       9.240   9.024  -0.039  0.00  0.00    -0.094 S 
BRANCH  32  33
ATOM     33  C   UNL     1       8.305  10.579  -0.023  0.00  0.00    +0.050 C 
ATOM     34  C   UNL     1       7.507  10.708  -1.322  0.00  0.00    +0.019 C 
BRANCH  33  36
ATOM     35  C   UNL     1       9.982  11.695   1.455  0.00  0.00    +0.005 C 
ATOM     36  C   UNL     1       9.274  11.756   0.100  0.00  0.00    +0.011 C 
ENDBRANCH  33  36
ENDBRANCH  32  33
ENDBRANCH  23  32
ENDBRANCH  22  29
ENDBRANCH  21  22
ENDBRANCH   1  21
TORSDOF 9
