REMARK  Name = ZINC09670983
REMARK  5 active torsions:
REMARK  status: ('A' for Active; 'I' for Inactive)
REMARK    1  A    between atoms: C_4  and  C_7
REMARK    2  A    between atoms: C_7  and  C_9
REMARK    3  A    between atoms: C_7  and  N_60
REMARK    4  A    between atoms: N_17  and  S_20
REMARK    5  A    between atoms: S_20  and  C_23
REMARK                            x       y       z     vdW  Elec       q    Type
REMARK                         _______ _______ _______ _____ _____    ______ ____
ROOT
ATOM      1  C   UNL     1       2.348   3.776   3.606  0.00  0.00    -0.060 C 
ATOM      2  C   UNL     1       2.374   4.556   2.287  0.00  0.00    +0.091 C 
ATOM      3  N   UNL     1       1.095   4.342   1.592  0.00  0.00    -0.180 NA
ATOM      4  C   UNL     1      -0.150   4.577   2.339  0.00  0.00    +0.091 C 
ATOM      5  C   UNL     1      -0.077   3.791   3.658  0.00  0.00    -0.060 C 
ATOM      6  N   UNL     1       1.154   4.187   4.376  0.00  0.00    +0.392 N 
ATOM      7  H   UNL     1       1.163   5.208   4.484  0.00  0.00    -0.080 HD
ENDROOT
BRANCH   3   8
ATOM      8  S   UNL     1       1.058   3.856   0.009  0.00  0.00    +0.061 S 
ATOM      9  O   UNL     1       2.294   4.255  -0.567  0.00  0.00    -0.153 OA
ATOM     10  O   UNL     1      -0.196   4.271  -0.514  0.00  0.00    -0.153 OA
BRANCH   8  11
ATOM     11  C   UNL     1       1.047   2.094   0.006  0.00  0.00    +0.106 A 
ATOM     12  C   UNL     1       2.239   1.393  -0.021  0.00  0.00    +0.029 A 
ATOM     13  C   UNL     1       2.222   0.013  -0.027  0.00  0.00    +0.006 A 
ATOM     14  C   UNL     1       1.017  -0.678  -0.006  0.00  0.00    -0.044 A 
ATOM     15  C   UNL     1      -0.169   0.020   0.025  0.00  0.00    -0.042 A 
ATOM     16  C   UNL     1      -0.150   1.409   0.030  0.00  0.00    +0.032 A 
ATOM     17  C   UNL     1      -1.511  -0.663   0.059  0.00  0.00    +0.035 C 
ATOM     18  C   UNL     1      -1.383  -2.120  -0.380  0.00  0.00    +0.005 C 
ATOM     19  C   UNL     1      -0.261  -2.774   0.434  0.00  0.00    +0.005 C 
ATOM     20  C   UNL     1       1.072  -2.183  -0.022  0.00  0.00    +0.035 C 
ENDBRANCH   8  11
ENDBRANCH   3   8
BRANCH   6  21
ATOM     21  C   UNL     1       1.179   3.563   5.715  0.00  0.00    +0.051 C 
BRANCH  21  22
ATOM     22  C   UNL     1       1.140   2.061   5.602  0.00  0.00    +0.211 C 
ATOM     23  O   UNL     1       1.096   1.537   4.509  0.00  0.00    -0.277 OA
ATOM     24  N   UNL     1       1.155   1.300   6.714  0.00  0.00    -0.241 N 
ATOM     25  C   UNL     1       1.120  -0.043   6.612  0.00  0.00    +0.303 C 
ATOM     26  O   UNL     1       1.076  -0.569   5.517  0.00  0.00    -0.253 OA
ATOM     27  N   UNL     1       1.134  -0.804   7.725  0.00  0.00    -0.313 N 
ATOM     28  H   UNL     1       1.190   1.720   7.588  0.00  0.00    +0.159 HD
ATOM     29  H   UNL     1       1.170  -0.384   8.599  0.00  0.00    +0.146 HD
ATOM     30  H   UNL     1       1.109  -1.771   7.652  0.00  0.00    +0.146 HD
ENDBRANCH  21  22
BRANCH  21  34
ATOM     31  C   UNL     1      -2.216   4.912   7.931  0.00  0.00    +0.000 A 
ATOM     32  C   UNL     1      -1.067   5.679   7.892  0.00  0.00    +0.000 A 
ATOM     33  C   UNL     1       0.032   5.243   7.175  0.00  0.00    +0.002 A 
ATOM     34  C   UNL     1      -0.019   4.039   6.497  0.00  0.00    -0.052 A 
ATOM     35  C   UNL     1      -1.169   3.274   6.532  0.00  0.00    +0.002 A 
ATOM     36  C   UNL     1      -2.266   3.708   7.253  0.00  0.00    +0.000 A 
ENDBRANCH  21  34
ENDBRANCH   6  21
TORSDOF 5
