REMARK  Name = ZINC01362149
REMARK  14 active torsions:
REMARK  status: ('A' for Active; 'I' for Inactive)
REMARK    1  A    between atoms: C_1  and  C_2
REMARK    2  A    between atoms: C_2  and  C_3
REMARK    3  A    between atoms: C_2  and  C_4
REMARK    4  A    between atoms: C_2  and  N_5
REMARK    5  A    between atoms: C_6  and  C_10
REMARK    6  A    between atoms: C_10  and  C_12
REMARK    7  A    between atoms: C_10  and  N_26
REMARK    8  A    between atoms: C_17  and  O_24
REMARK    9  A    between atoms: O_24  and  C_25
REMARK   10  A    between atoms: N_26  and  C_27
REMARK   11  A    between atoms: N_26  and  C_36
REMARK   12  A    between atoms: C_27  and  C_28
REMARK   13  A    between atoms: C_28  and  C_29
REMARK   14  A    between atoms: C_36  and  C_37
REMARK                            x       y       z     vdW  Elec       q    Type
REMARK                         _______ _______ _______ _____ _____    ______ ____
ROOT
ATOM      1  C   UNL     1       1.334   0.248   8.623  0.00  0.00    +0.163 C 
ENDROOT
BRANCH   1   2
ATOM      2  C   UNL     1       0.449   0.943   7.622  0.00  0.00    +0.042 A 
ATOM      3  C   UNL     1       0.847   1.054   6.329  0.00  0.00    +0.021 A 
ATOM      4  C   UNL     1      -0.035   1.734   5.382  0.00  0.00    -0.001 A 
ATOM      5  C   UNL     1       0.324   1.880   4.036  0.00  0.00    +0.013 A 
ATOM      6  C   UNL     1      -0.521   2.515   3.174  0.00  0.00    +0.046 A 
ATOM      7  C   UNL     1      -1.735   3.031   3.625  0.00  0.00    +0.122 A 
ATOM      8  C   UNL     1      -2.108   2.898   4.951  0.00  0.00    +0.072 A 
ATOM      9  C   UNL     1      -1.263   2.250   5.842  0.00  0.00    +0.053 A 
ATOM     10  N   UNL     1      -1.609   2.103   7.168  0.00  0.00    -0.322 N 
ATOM     11  H   UNL     1      -2.566   2.503   7.534  0.00  0.00    +0.169 HD
ATOM     12  C   UNL     1      -0.791   1.476   8.031  0.00  0.00    +0.254 A 
ATOM     13  O   UNL     1      -1.129   1.365   9.197  0.00  0.00    -0.268 OA
BRANCH   7  14
ATOM     14  O   UNL     1      -2.562   3.666   2.754  0.00  0.00    -0.495 OA
ATOM     15  C   UNL     1      -2.119   3.770   1.399  0.00  0.00    +0.277 C 
ENDBRANCH   7  14
ENDBRANCH   1   2
BRANCH   1  17
ATOM     16  N   UNL     1       3.024   1.737   9.820  0.00  0.00    -0.222 N 
ATOM     17  C   UNL     1       1.784   1.237   9.668  0.00  0.00    +0.174 A 
ATOM     18  N   UNL     1       1.041   1.781  10.601  0.00  0.00    -0.111 NA
ATOM     19  N   UNL     1       1.788   2.568  11.296  0.00  0.00    -0.023 NA
ATOM     20  N   UNL     1       2.986   2.546  10.825  0.00  0.00    -0.043 NA
BRANCH  16  22
ATOM     21  C   UNL     1       3.875   1.689   7.528  0.00  0.00    +0.036 C 
ATOM     22  C   UNL     1       4.196   1.422   9.000  0.00  0.00    +0.059 C 
ATOM     23  C   UNL     1       5.372   2.300   9.433  0.00  0.00    +0.036 C 
ATOM     24  C   UNL     1       4.565  -0.051   9.183  0.00  0.00    +0.036 C 
ENDBRANCH  16  22
ENDBRANCH   1  17
BRANCH   1  25
ATOM     25  N   UNL     1       0.586  -0.839   9.268  0.00  0.00    -0.281 NA
BRANCH  25  26
ATOM     26  C   UNL     1      -0.111  -1.662   8.270  0.00  0.00    +0.090 C 
BRANCH  26  27
ATOM     27  C   UNL     1      -1.142  -2.549   8.971  0.00  0.00    +0.050 C 
BRANCH  27  28
ATOM     28  C   UNL     1      -1.829  -3.422   7.953  0.00  0.00    -0.046 A 
ATOM     29  C   UNL     1      -2.982  -2.980   7.330  0.00  0.00    +0.006 A 
ATOM     30  C   UNL     1      -3.610  -3.778   6.393  0.00  0.00    +0.038 A 
ATOM     31  C   UNL     1      -3.091  -5.024   6.084  0.00  0.00    +0.123 A 
ATOM     32  C   UNL     1      -1.939  -5.467   6.712  0.00  0.00    +0.038 A 
ATOM     33  C   UNL     1      -1.310  -4.665   7.646  0.00  0.00    +0.006 A 
ATOM     34  F   UNL     1      -3.707  -5.806   5.171  0.00  0.00    -0.205 F 
ENDBRANCH  27  28
ENDBRANCH  26  27
ENDBRANCH  25  26
BRANCH  25  35
ATOM     35  C   UNL     1       1.469  -1.662  10.105  0.00  0.00    +0.159 C 
BRANCH  35  36
ATOM     36  C   UNL     1       1.728  -0.953  11.410  0.00  0.00    +0.119 A 
ATOM     37  C   UNL     1       0.919  -0.961  12.484  0.00  0.00    +0.046 A 
ATOM     38  C   UNL     1       1.547  -0.173  13.476  0.00  0.00    +0.041 A 
ATOM     39  C   UNL     1       2.702   0.270  12.948  0.00  0.00    +0.195 A 
ATOM     40  O   UNL     1       2.810  -0.211  11.698  0.00  0.00    -0.467 OA
ENDBRANCH  35  36
ENDBRANCH  25  35
ENDBRANCH   1  25
TORSDOF 10
