REMARK  Name = ZINC10133685
REMARK  10 active torsions:
REMARK  status: ('A' for Active; 'I' for Inactive)
REMARK    1  A    between atoms: C_1  and  C_2
REMARK    2  A    between atoms: C_2  and  C_3
REMARK    3  A    between atoms: C_12  and  C_13
REMARK    4  A    between atoms: C_13  and  C_15
REMARK    5  A    between atoms: C_15  and  O_16
REMARK    6  A    between atoms: O_16  and  C_17
REMARK    7  A    between atoms: C_17  and  C_19
REMARK    8  A    between atoms: C_19  and  N_20
REMARK    9  A    between atoms: C_26  and  C_29
REMARK   10  A    between atoms: C_29  and  C_30
REMARK                            x       y       z     vdW  Elec       q    Type
REMARK                         _______ _______ _______ _____ _____    ______ ____
ROOT
ATOM      1  C   UNL     1       6.460  -1.706  -0.068  0.00  0.00    +0.326 C 
ATOM      2  O   UNL     1       5.947  -2.800  -0.068  0.00  0.00    -0.249 OA
ENDROOT
BRANCH   1   3
ATOM      3  O   UNL     1       5.692  -0.605  -0.055  0.00  0.00    -0.455 OA
BRANCH   3   4
ATOM      4  C   UNL     1       4.254  -0.804  -0.042  0.00  0.00    +0.311 C 
BRANCH   4   5
ATOM      5  C   UNL     1       3.562   0.534  -0.029  0.00  0.00    +0.202 C 
ATOM      6  O   UNL     1       4.217   1.556  -0.030  0.00  0.00    -0.288 OA
BRANCH   5  16
ATOM      7  C   UNL     1      -1.046   2.312   0.030  0.00  0.00    -0.024 A 
ATOM      8  C   UNL     1      -0.752   3.658   0.029  0.00  0.00    +0.005 A 
ATOM      9  C   UNL     1       0.565   4.094   0.019  0.00  0.00    +0.001 A 
ATOM     10  C   UNL     1       1.598   3.182   0.004  0.00  0.00    +0.011 A 
ATOM     11  C   UNL     1       1.315   1.820  -0.001  0.00  0.00    +0.011 A 
ATOM     12  C   UNL     1      -0.017   1.376   0.010  0.00  0.00    +0.050 A 
ATOM     13  N   UNL     1       0.002  -0.004   0.002  0.00  0.00    -0.360 N 
ATOM     14  H   UNL     1      -0.788  -0.566   0.007  0.00  0.00    +0.165 HD
ATOM     15  C   UNL     1       1.268  -0.463  -0.013  0.00  0.00    +0.095 A 
ATOM     16  C   UNL     1       2.146   0.600  -0.015  0.00  0.00    +0.046 A 
BRANCH   7  18
ATOM     17  C   UNL     1      -2.908   1.570   1.489  0.00  0.00    +0.009 C 
ATOM     18  C   UNL     1      -2.481   1.853   0.048  0.00  0.00    +0.034 C 
ENDBRANCH   7  18
ENDBRANCH   5  16
ENDBRANCH   4   5
ENDBRANCH   3   4
ENDBRANCH   1   3
BRANCH   1  19
ATOM     19  C   UNL     1       7.961  -1.578  -0.082  0.00  0.00    +0.238 C 
BRANCH  19  20
ATOM     20  N   UNL     1       8.565  -2.913  -0.094  0.00  0.00    -0.213 N 
ATOM     21  C   UNL     1       8.867  -3.598  -1.216  0.00  0.00    +0.247 C 
ATOM     22  O   UNL     1       8.697  -3.241  -2.362  0.00  0.00    -0.273 OA
ATOM     23  C   UNL     1       9.462  -4.905  -0.743  0.00  0.00    +0.113 C 
ATOM     24  C   UNL     1      10.898  -5.044  -1.236  0.00  0.00    +0.035 C 
ATOM     25  C   UNL     1      10.910  -5.107  -2.766  0.00  0.00    +0.006 C 
ATOM     26  C   UNL     1      10.075  -6.301  -3.232  0.00  0.00    -0.011 C 
ATOM     27  C   UNL     1       8.633  -6.137  -2.749  0.00  0.00    +0.006 C 
ATOM     28  C   UNL     1       8.612  -6.078  -1.219  0.00  0.00    +0.035 C 
ATOM     29  N   UNL     1       9.427  -4.804   0.721  0.00  0.00    -0.285 N 
ATOM     30  C   UNL     1       8.891  -3.601   1.007  0.00  0.00    +0.310 C 
ATOM     31  O   UNL     1       8.720  -3.189   2.137  0.00  0.00    -0.252 OA
ATOM     32  H   UNL     1       9.733  -5.469   1.357  0.00  0.00    +0.151 HD
BRANCH  26  33
ATOM     33  C   UNL     1      10.095  -6.371  -4.761  0.00  0.00    -0.000 C 
ATOM     34  C   UNL     1      11.520  -6.659  -5.239  0.00  0.00    +0.004 C 
ENDBRANCH  26  33
ENDBRANCH  19  20
ENDBRANCH   1  19
TORSDOF 8
