REMARK  Name = ZINC37442108
REMARK  6 active torsions:
REMARK  status: ('A' for Active; 'I' for Inactive)
REMARK    1  A    between atoms: C_1  and  C_2
REMARK    2  A    between atoms: C_2  and  C_3
REMARK    3  A    between atoms: C_3  and  N_4
REMARK    4  A    between atoms: C_12  and  C_13
REMARK    5  A    between atoms: C_16  and  C_20
REMARK    6  A    between atoms: C_18  and  O_19
REMARK                            x       y       z     vdW  Elec       q    Type
REMARK                         _______ _______ _______ _____ _____    ______ ____
ROOT
ATOM      1  N   UNL     1      -1.433  -1.999   0.007  0.00  0.00    -0.324 N 
ATOM      2  C   UNL     1      -1.517  -2.814  -1.106  0.00  0.00    +0.069 A 
ATOM      3  C   UNL     1      -1.657  -2.574  -2.466  0.00  0.00    +0.029 A 
ATOM      4  C   UNL     1      -1.710  -3.632  -3.348  0.00  0.00    +0.017 A 
ATOM      5  C   UNL     1      -1.624  -4.939  -2.886  0.00  0.00    +0.020 A 
ATOM      6  C   UNL     1      -1.484  -5.197  -1.542  0.00  0.00    +0.045 A 
ATOM      7  C   UNL     1      -1.429  -4.135  -0.633  0.00  0.00    +0.091 A 
ATOM      8  N   UNL     1      -1.299  -4.070   0.715  0.00  0.00    -0.227 NA
ATOM      9  C   UNL     1      -1.296  -2.815   1.097  0.00  0.00    +0.145 A 
ATOM     10 BR   UNL     1      -1.699  -6.375  -4.115  0.00  0.00    -0.050 Br
ENDROOT
BRANCH   9  11
ATOM     11  C   UNL     1      -1.166  -2.353   2.494  0.00  0.00    +0.059 A 
ATOM     12  C   UNL     1      -2.062  -1.414   3.008  0.00  0.00    +0.015 A 
ATOM     13  C   UNL     1      -1.937  -0.987   4.313  0.00  0.00    +0.004 A 
ATOM     14  C   UNL     1      -0.925  -1.485   5.117  0.00  0.00    -0.047 A 
ATOM     15  C   UNL     1      -0.032  -2.414   4.620  0.00  0.00    +0.049 A 
ATOM     16  C   UNL     1      -0.148  -2.858   3.312  0.00  0.00    +0.128 A 
ATOM     17  C   UNL     1      -0.797  -1.010   6.541  0.00  0.00    +0.044 C 
BRANCH  16  18
ATOM     18  O   UNL     1       0.726  -3.775   2.823  0.00  0.00    -0.506 OA
ATOM     19  H   UNL     1       1.515  -3.390   2.417  0.00  0.00    +0.292 HD
ENDBRANCH  16  18
ENDBRANCH   9  11
BRANCH   1  20
ATOM     20  C   UNL     1      -1.478  -0.535   0.017  0.00  0.00    +0.123 C 
BRANCH  20  22
ATOM     21  C   UNL     1      -0.099   1.548   0.012  0.00  0.00    +0.005 C 
ATOM     22  C   UNL     1      -0.052   0.019   0.001  0.00  0.00    +0.018 C 
ENDBRANCH  20  22
ENDBRANCH   1  20
TORSDOF 4
