REMARK  Name = ZINC00336743
REMARK  5 active torsions:
REMARK  status: ('A' for Active; 'I' for Inactive)
REMARK    1  A    between atoms: C_1  and  C_2
REMARK    2  A    between atoms: C_9  and  C_11
REMARK    3  A    between atoms: C_11  and  N_18
REMARK    4  A    between atoms: C_12  and  C_13
REMARK    5  A    between atoms: C_19  and  C_21
REMARK                            x       y       z     vdW  Elec       q    Type
REMARK                         _______ _______ _______ _____ _____    ______ ____
ROOT
ATOM      1  C   UNL     1       1.512  -4.133   1.395  0.00  0.00    +0.100 C 
ATOM      2  C   UNL     1       0.269  -4.677   1.300  0.00  0.00    +0.074 C 
ENDROOT
BRANCH   1  10
ATOM      3  C   UNL     1       0.788  -2.891  -3.354  0.00  0.00    +0.009 C 
ATOM      4  C   UNL     1       0.682  -2.227  -1.979  0.00  0.00    +0.003 C 
ATOM      5  C   UNL     1       0.838  -0.712  -2.131  0.00  0.00    +0.006 C 
ATOM      6  C   UNL     1       0.700  -0.044  -0.761  0.00  0.00    +0.019 C 
ATOM      7  C   UNL     1       1.808  -0.554   0.166  0.00  0.00    +0.108 C 
ATOM      8  N   UNL     1       1.755  -2.022   0.203  0.00  0.00    -0.296 N 
ATOM      9  C   UNL     1       1.789  -2.762  -1.066  0.00  0.00    +0.111 C 
ATOM     10  C   UNL     1       1.677  -2.677   1.378  0.00  0.00    +0.261 C 
ATOM     11  O   UNL     1       1.744  -2.060   2.425  0.00  0.00    -0.269 OA
ENDBRANCH   1  10
BRANCH   2  12
ATOM     12  C   UNL     1       0.094  -6.074   1.457  0.00  0.00    +0.130 A 
ATOM     13  C   UNL     1      -1.080  -6.772   1.265  0.00  0.00    +0.049 A 
ATOM     14  C   UNL     1      -0.790  -8.120   1.530  0.00  0.00    +0.042 A 
ATOM     15  C   UNL     1       0.516  -8.190   1.866  0.00  0.00    +0.195 A 
ATOM     16  O   UNL     1       1.047  -6.959   1.815  0.00  0.00    -0.463 OA
ENDBRANCH   2  12
BRANCH   1  17
ATOM     17  N   UNL     1       2.632  -4.963   1.509  0.00  0.00    -0.277 N 
ATOM     18  C   UNL     1       3.870  -4.430   1.500  0.00  0.00    +0.248 C 
ATOM     19  O   UNL     1       4.012  -3.222   1.489  0.00  0.00    -0.270 OA
ATOM     20  H   UNL     1       2.518  -5.923   1.595  0.00  0.00    +0.155 HD
BRANCH  18  21
ATOM     21  C   UNL     1       5.056  -5.313   1.503  0.00  0.00    +0.037 A 
ATOM     22  C   UNL     1       4.899  -6.696   1.402  0.00  0.00    +0.013 A 
ATOM     23  C   UNL     1       6.010  -7.515   1.405  0.00  0.00    +0.001 A 
ATOM     24  C   UNL     1       7.276  -6.967   1.508  0.00  0.00    +0.000 A 
ATOM     25  C   UNL     1       7.438  -5.597   1.610  0.00  0.00    +0.001 A 
ATOM     26  C   UNL     1       6.336  -4.767   1.602  0.00  0.00    +0.013 A 
ENDBRANCH  18  21
ENDBRANCH   1  17
TORSDOF 4
