REMARK  Name = ZINC35340115
REMARK  7 active torsions:
REMARK  status: ('A' for Active; 'I' for Inactive)
REMARK    1  A    between atoms: C_1  and  N_2
REMARK    2  A    between atoms: N_2  and  S_3
REMARK    3  A    between atoms: S_3  and  C_6
REMARK    4  A    between atoms: C_9  and  N_13
REMARK    5  A    between atoms: C_10  and  N_12
REMARK    6  A    between atoms: N_13  and  C_14
REMARK    7  A    between atoms: N_13  and  C_15
REMARK                            x       y       z     vdW  Elec       q    Type
REMARK                         _______ _______ _______ _____ _____    ______ ____
ROOT
ATOM      1  C   UNL     1       2.447   0.491  -2.041  0.00  0.00    +0.107 A 
ATOM      2  C   UNL     1       3.282   1.470  -2.546  0.00  0.00    +0.030 A 
ATOM      3  C   UNL     1       4.628   1.466  -2.233  0.00  0.00    +0.027 A 
ATOM      4  C   UNL     1       5.145   0.477  -1.410  0.00  0.00    +0.051 A 
ATOM      5  C   UNL     1       4.303  -0.511  -0.899  0.00  0.00    +0.048 A 
ATOM      6  C   UNL     1       2.953  -0.495  -1.215  0.00  0.00    +0.053 A 
ENDROOT
BRANCH   1   7
ATOM      7  S   UNL     1       0.732   0.505  -2.445  0.00  0.00    +0.058 S 
ATOM      8  O   UNL     1       0.266  -0.828  -2.283  0.00  0.00    -0.153 OA
ATOM      9  O   UNL     1       0.609   1.211  -3.672  0.00  0.00    -0.153 OA
BRANCH   7  11
ATOM     10  C   UNL     1       0.254   2.849  -1.183  0.00  0.00    +0.127 C 
ATOM     11  N   UNL     1      -0.035   1.417  -1.295  0.00  0.00    -0.193 NA
ATOM     12  H   UNL     1      -0.675   1.003  -0.695  0.00  0.00    +0.148 HD
ENDBRANCH   7  11
ENDBRANCH   1   7
BRANCH   5  13
ATOM     13  N   UNL     1       4.818  -1.512  -0.068  0.00  0.00    -0.356 N 
ATOM     14  H   UNL     1       5.763  -1.520   0.154  0.00  0.00    +0.142 HD
ATOM     15  H   UNL     1       4.231  -2.198   0.286  0.00  0.00    +0.142 HD
ENDBRANCH   5  13
BRANCH   4  16
ATOM     16  N   UNL     1       6.509   0.470  -1.092  0.00  0.00    -0.328 N 
ATOM     17  C   UNL     1       6.989   1.190   0.090  0.00  0.00    +0.129 C 
BRANCH  16  18
ATOM     18  C   UNL     1       7.455  -0.258  -1.941  0.00  0.00    +0.073 C 
ATOM     19  C   UNL     1       8.472   0.723  -2.561  0.00  0.00    +0.022 C 
ATOM     20  C   UNL     1       9.692   0.657  -1.609  0.00  0.00    +0.002 C 
ATOM     21  C   UNL     1       9.747  -0.843  -1.227  0.00  0.00    +0.002 C 
ATOM     22  C   UNL     1       8.266  -1.254  -1.093  0.00  0.00    +0.022 C 
ENDBRANCH  16  18
ENDBRANCH   4  16
TORSDOF 5
