REMARK  Name = ZINC09074214
REMARK  7 active torsions:
REMARK  status: ('A' for Active; 'I' for Inactive)
REMARK    1  A    between atoms: C_4  and  C_7
REMARK    2  A    between atoms: C_7  and  C_9
REMARK    3  A    between atoms: C_7  and  O_22
REMARK    4  A    between atoms: N_11  and  C_12
REMARK    5  A    between atoms: C_15  and  N_19
REMARK    6  A    between atoms: O_22  and  C_23
REMARK    7  A    between atoms: C_23  and  C_25
REMARK                            x       y       z     vdW  Elec       q    Type
REMARK                         _______ _______ _______ _____ _____    ______ ____
ROOT
ATOM      1  C   UNL     1      -0.003   1.502   0.000  0.00  0.00    +0.292 C 
ENDROOT
BRANCH   1   5
ATOM      2  C   UNL     1      -1.998   2.909   3.506  0.00  0.00    +0.000 A 
ATOM      3  C   UNL     1      -0.616   2.884   3.460  0.00  0.00    +0.000 A 
ATOM      4  C   UNL     1       0.029   2.429   2.325  0.00  0.00    +0.008 A 
ATOM      5  C   UNL     1      -0.707   1.998   1.237  0.00  0.00    +0.002 A 
ATOM      6  C   UNL     1      -2.088   2.028   1.281  0.00  0.00    +0.008 A 
ATOM      7  C   UNL     1      -2.733   2.479   2.418  0.00  0.00    +0.000 A 
ENDBRANCH   1   5
BRANCH   1   8
ATOM      8  C   UNL     1       0.008  -0.004  -0.002  0.00  0.00    +0.263 C 
ATOM      9  O   UNL     1      -0.521  -0.614  -0.908  0.00  0.00    -0.271 OA
ATOM     10  N   UNL     1       0.604  -0.675   1.004  0.00  0.00    -0.281 N 
ATOM     11  H   UNL     1       1.083  -0.190   1.694  0.00  0.00    +0.155 HD
BRANCH  10  12
ATOM     12  C   UNL     1       0.533  -2.072   1.052  0.00  0.00    +0.052 A 
ATOM     13  C   UNL     1       0.538  -2.810  -0.125  0.00  0.00    +0.027 A 
ATOM     14  C   UNL     1       0.468  -4.189  -0.074  0.00  0.00    +0.034 A 
ATOM     15  C   UNL     1       0.393  -4.835   1.146  0.00  0.00    +0.128 A 
ATOM     16  C   UNL     1       0.388  -4.104   2.320  0.00  0.00    +0.054 A 
ATOM     17  C   UNL     1       0.464  -2.724   2.277  0.00  0.00    +0.064 A 
ATOM     18 CL   UNL     1       0.465  -1.808   3.751  0.00  0.00    -0.082 Cl
BRANCH  15  19
ATOM     19  N   UNL     1       0.319  -6.312   1.196  0.00  0.00    +0.056 N 
ATOM     20  O   UNL     1       0.324  -6.958   0.163  0.00  0.00    -0.126 OA
ATOM     21  O   UNL     1       0.253  -6.883   2.270  0.00  0.00    -0.126 OA
ENDBRANCH  15  19
ENDBRANCH  10  12
ENDBRANCH   1   8
BRANCH   1  22
ATOM     22  O   UNL     1      -0.701   1.983  -1.179  0.00  0.00    -0.444 OA
BRANCH  22  23
ATOM     23  C   UNL     1      -0.308   3.171  -1.681  0.00  0.00    +0.340 C 
ATOM     24  O   UNL     1       0.592   3.788  -1.147  0.00  0.00    -0.245 OA
BRANCH  23  25
ATOM     25  C   UNL     1      -0.971   3.721  -2.876  0.00  0.00    +0.061 A 
ATOM     26  C   UNL     1      -2.004   3.007  -3.492  0.00  0.00    +0.016 A 
ATOM     27  C   UNL     1      -2.626   3.527  -4.605  0.00  0.00    +0.017 A 
ATOM     28  C   UNL     1      -2.221   4.752  -5.120  0.00  0.00    +0.030 A 
ATOM     29  C   UNL     1      -1.185   5.474  -4.518  0.00  0.00    +0.048 A 
ATOM     30  C   UNL     1      -0.564   4.952  -3.395  0.00  0.00    +0.039 A 
ATOM     31  N   UNL     1      -0.760   6.699  -5.026  0.00  0.00    -0.284 N 
ATOM     32  C   UNL     1      -1.464   7.513  -5.809  0.00  0.00    +0.227 C 
ATOM     33  O   UNL     1      -0.951   8.555  -6.159  0.00  0.00    -0.275 OA
ATOM     34  C   UNL     1      -2.860   7.213  -6.282  0.00  0.00    +0.170 C 
ATOM     35  S   UNL     1      -3.016   5.421  -6.548  0.00  0.00    -0.114 S 
ATOM     36  H   UNL     1       0.135   6.987  -4.787  0.00  0.00    +0.155 HD
ENDBRANCH  23  25
ENDBRANCH  22  23
ENDBRANCH   1  22
TORSDOF 7
