REMARK  Name = ZINC58302969
REMARK  7 active torsions:
REMARK  status: ('A' for Active; 'I' for Inactive)
REMARK    1  A    between atoms: C_4  and  C_7
REMARK    2  A    between atoms: C_7  and  C_9
REMARK    3  A    between atoms: C_7  and  S_21
REMARK    4  A    between atoms: C_9  and  C_11
REMARK    5  A    between atoms: S_21  and  C_22
REMARK    6  A    between atoms: C_25  and  C_27
REMARK    7  A    between atoms: C_27  and  N_28
REMARK                            x       y       z     vdW  Elec       q    Type
REMARK                         _______ _______ _______ _____ _____    ______ ____
ROOT
ATOM      1  C   UNL     1       3.711  -0.707  -0.038  0.00  0.00    +0.157 C 
ENDROOT
BRANCH   1   5
ATOM      2  C   UNL     1      -0.017   1.378   0.010  0.00  0.00    +0.000 A 
ATOM      3  C   UNL     1       1.171   2.086   0.002  0.00  0.00    +0.000 A 
ATOM      4  C   UNL     1       2.377   1.411  -0.013  0.00  0.00    +0.005 A 
ATOM      5  C   UNL     1       2.396   0.029  -0.020  0.00  0.00    -0.027 A 
ATOM      6  C   UNL     1       1.208  -0.679  -0.012  0.00  0.00    +0.005 A 
ATOM      7  C   UNL     1       0.002  -0.004   0.002  0.00  0.00    +0.000 A 
ENDBRANCH   1   5
BRANCH   1   8
ATOM      8  C   UNL     1       3.816  -1.579   1.188  0.00  0.00    +0.183 C 
ATOM      9  O   UNL     1       3.492  -2.747   1.131  0.00  0.00    -0.290 OA
BRANCH   8  10
ATOM     10  C   UNL     1       4.292  -1.034   2.406  0.00  0.00    +0.044 A 
ATOM     11  C   UNL     1       4.690   0.267   2.632  0.00  0.00    +0.095 A 
ATOM     12  N   UNL     1       5.078   0.405   3.914  0.00  0.00    -0.360 N 
ATOM     13  H   UNL     1       5.399   1.231   4.307  0.00  0.00    +0.165 HD
ATOM     14  C   UNL     1       4.955  -0.791   4.593  0.00  0.00    +0.047 A 
ATOM     15  C   UNL     1       4.455  -1.743   3.691  0.00  0.00    +0.010 A 
ATOM     16  C   UNL     1       4.225  -3.050   4.109  0.00  0.00    +0.011 A 
ATOM     17  C   UNL     1       4.488  -3.404   5.415  0.00  0.00    +0.001 A 
ATOM     18  C   UNL     1       4.979  -2.465   6.309  0.00  0.00    +0.002 A 
ATOM     19  C   UNL     1       5.218  -1.169   5.905  0.00  0.00    +0.026 A 
ENDBRANCH   8  10
ENDBRANCH   1   8
BRANCH   1  20
ATOM     20  S   UNL     1       3.806  -1.741  -1.525  0.00  0.00    -0.049 S 
BRANCH  20  21
ATOM     21  C   UNL     1       3.820  -0.581  -2.851  0.00  0.00    +0.278 A 
ATOM     22  N   UNL     1       3.777   0.726  -2.742  0.00  0.00    -0.101 NA
ATOM     23  N   UNL     1       3.804   1.252  -3.915  0.00  0.00    -0.110 NA
ATOM     24  C   UNL     1       3.865   0.312  -4.813  0.00  0.00    +0.235 A 
ATOM     25  O   UNL     1       3.882  -0.870  -4.164  0.00  0.00    -0.414 OA
BRANCH  24  26
ATOM     26  C   UNL     1       3.913   0.508  -6.306  0.00  0.00    +0.205 C 
BRANCH  26  27
ATOM     27  N   UNL     1       5.308   0.613  -6.740  0.00  0.00    -0.292 N 
ATOM     28  C   UNL     1       6.057   1.873  -6.823  0.00  0.00    +0.109 C 
ATOM     29  C   UNL     1       7.545   1.464  -6.891  0.00  0.00    +0.028 C 
ATOM     30  C   UNL     1       7.454   0.041  -7.489  0.00  0.00    +0.097 C 
ATOM     31  C   UNL     1       6.068  -0.432  -7.108  0.00  0.00    +0.216 C 
ATOM     32  O   UNL     1       5.697  -1.587  -7.134  0.00  0.00    -0.276 OA
ENDBRANCH  26  27
ENDBRANCH  24  26
ENDBRANCH  20  21
ENDBRANCH   1  20
TORSDOF 7
