REMARK  Name = ZINC40195513
REMARK  13 active torsions:
REMARK  status: ('A' for Active; 'I' for Inactive)
REMARK    1  A    between atoms: C_1  and  C_2
REMARK    2  A    between atoms: C_2  and  C_4
REMARK    3  A    between atoms: C_2  and  N_23
REMARK    4  A    between atoms: N_12  and  C_13
REMARK    5  A    between atoms: C_13  and  C_14
REMARK    6  A    between atoms: N_16  and  C_17
REMARK    7  A    between atoms: N_16  and  C_20
REMARK    8  A    between atoms: C_17  and  C_18
REMARK    9  A    between atoms: C_17  and  C_19
REMARK   10  A    between atoms: C_20  and  C_21
REMARK   11  A    between atoms: C_20  and  C_22
REMARK   12  A    between atoms: C_24  and  C_26
REMARK   13  A    between atoms: C_26  and  C_27
REMARK                            x       y       z     vdW  Elec       q    Type
REMARK                         _______ _______ _______ _____ _____    ______ ____
ROOT
ATOM      1  C   UNL     1       0.784  -0.987  -1.720  0.00  0.00    +0.131 A 
ATOM      2  N   UNL     1       2.037  -1.116  -2.050  0.00  0.00    -0.230 NA
ATOM      3  C   UNL     1       2.129  -1.665  -3.288  0.00  0.00    +0.089 A 
ATOM      4  C   UNL     1       3.204  -2.014  -4.110  0.00  0.00    +0.030 A 
ATOM      5  C   UNL     1       2.971  -2.562  -5.340  0.00  0.00    +0.002 A 
ATOM      6  C   UNL     1       1.674  -2.777  -5.785  0.00  0.00    +0.002 A 
ATOM      7  C   UNL     1       0.598  -2.440  -4.991  0.00  0.00    +0.028 A 
ATOM      8  C   UNL     1       0.816  -1.882  -3.739  0.00  0.00    +0.069 A 
ATOM      9  N   UNL     1      -0.012  -1.449  -2.722  0.00  0.00    -0.317 N 
ENDROOT
BRANCH   1  11
ATOM     10  C   UNL     1       0.450   1.106  -0.433  0.00  0.00    +0.036 C 
ATOM     11  C   UNL     1       0.289  -0.416  -0.417  0.00  0.00    +0.136 C 
BRANCH  11  12
ATOM     12  N   UNL     1       1.067  -0.977   0.690  0.00  0.00    -0.306 N 
ATOM     13  C   UNL     1       0.535  -1.037   1.926  0.00  0.00    +0.218 C 
ATOM     14  O   UNL     1      -0.590  -0.626   2.123  0.00  0.00    -0.275 OA
ATOM     15  H   UNL     1       1.966  -1.306   0.532  0.00  0.00    +0.149 HD
BRANCH  13  16
ATOM     16  C   UNL     1       1.335  -1.615   3.065  0.00  0.00    +0.130 C 
BRANCH  16  17
ATOM     17  C   UNL     1       0.518  -1.566   4.330  0.00  0.00    -0.039 A 
ATOM     18  C   UNL     1       0.578  -0.454   5.149  0.00  0.00    +0.005 A 
ATOM     19  C   UNL     1      -0.171  -0.408   6.309  0.00  0.00    +0.020 A 
ATOM     20  C   UNL     1      -0.982  -1.476   6.651  0.00  0.00    +0.041 A 
ATOM     21  C   UNL     1      -1.042  -2.588   5.830  0.00  0.00    +0.020 A 
ATOM     22  C   UNL     1      -0.297  -2.630   4.667  0.00  0.00    +0.005 A 
ATOM     23 CL   UNL     1      -1.924  -1.420   8.108  0.00  0.00    -0.084 Cl
ENDBRANCH  16  17
ENDBRANCH  13  16
ENDBRANCH  11  12
ENDBRANCH   1  11
BRANCH   9  24
ATOM     24  C   UNL     1      -1.477  -1.478  -2.723  0.00  0.00    +0.219 C 
BRANCH  24  25
ATOM     25  C   UNL     1      -2.004  -0.190  -3.302  0.00  0.00    +0.236 C 
ATOM     26  O   UNL     1      -1.232   0.668  -3.676  0.00  0.00    -0.274 OA
ATOM     27  N   UNL     1      -3.333   0.009  -3.403  0.00  0.00    -0.295 N 
BRANCH  27  28
ATOM     28  C   UNL     1      -4.266  -1.027  -2.950  0.00  0.00    +0.070 C 
ATOM     29  C   UNL     1      -5.124  -0.477  -1.809  0.00  0.00    +0.028 C 
ATOM     30  C   UNL     1      -5.169  -1.443  -4.113  0.00  0.00    +0.028 C 
ENDBRANCH  27  28
BRANCH  27  31
ATOM     31  C   UNL     1      -3.846   1.261  -3.965  0.00  0.00    +0.070 C 
ATOM     32  C   UNL     1      -3.351   2.439  -3.123  0.00  0.00    +0.028 C 
ATOM     33  C   UNL     1      -3.347   1.416  -5.403  0.00  0.00    +0.028 C 
ENDBRANCH  27  31
ENDBRANCH  24  25
ENDBRANCH   9  24
TORSDOF 8
