REMARK  Name = ZINC39302090
REMARK  10 active torsions:
REMARK  status: ('A' for Active; 'I' for Inactive)
REMARK    1  A    between atoms: C_1  and  C_2
REMARK    2  A    between atoms: C_2  and  C_3
REMARK    3  A    between atoms: C_3  and  C_4
REMARK    4  A    between atoms: C_6  and  C_35
REMARK    5  A    between atoms: N_9  and  C_13
REMARK    6  A    between atoms: C_10  and  C_12
REMARK    7  A    between atoms: C_16  and  C_19
REMARK    8  A    between atoms: N_21  and  C_22
REMARK    9  A    between atoms: C_22  and  C_23
REMARK   10  A    between atoms: C_23  and  N_24
REMARK                            x       y       z     vdW  Elec       q    Type
REMARK                         _______ _______ _______ _____ _____    ______ ____
ROOT
ATOM      1  C   UNL     1       1.218  -4.187  -4.384  0.00  0.00    +0.045 A 
ATOM      2  C   UNL     1       2.368  -3.798  -5.066  0.00  0.00    +0.025 A 
ATOM      3  C   UNL     1       2.740  -4.450  -6.219  0.00  0.00    +0.015 A 
ATOM      4  C   UNL     1       1.962  -5.504  -6.706  0.00  0.00    +0.037 A 
ATOM      5  C   UNL     1       0.808  -5.893  -6.019  0.00  0.00    +0.015 A 
ATOM      6  C   UNL     1       0.444  -5.240  -4.864  0.00  0.00    +0.025 A 
ENDROOT
BRANCH   1  10
ATOM      7  C   UNL     1       0.730  -1.971  -1.391  0.00  0.00    +0.029 C 
ATOM      8  C   UNL     1      -0.652  -2.580  -1.754  0.00  0.00    +0.075 C 
ATOM      9  N   UNL     1      -0.259  -3.825  -2.462  0.00  0.00    -0.237 NA
ATOM     10  N   UNL     1       0.845  -3.527  -3.219  0.00  0.00    -0.264 N 
ATOM     11  C   UNL     1       1.578  -2.403  -2.611  0.00  0.00    +0.092 C 
ATOM     12  C   UNL     1       2.966  -2.858  -2.157  0.00  0.00    +0.030 C 
ATOM     13  C   UNL     1      -1.459  -2.898  -0.493  0.00  0.00    +0.026 C 
ATOM     14  H   UNL     1      -1.012  -4.165  -3.041  0.00  0.00    +0.145 HD
BRANCH   7  15
ATOM     15  C   UNL     1       0.649  -0.447  -1.288  0.00  0.00    +0.007 C 
BRANCH  15  17
ATOM     16  C   UNL     1       1.939   1.627  -0.761  0.00  0.00    +0.004 C 
ATOM     17  C   UNL     1       2.040   0.118  -0.992  0.00  0.00    -0.003 C 
ENDBRANCH  15  17
ENDBRANCH   7  15
ENDBRANCH   1  10
BRANCH   4  18
ATOM     18  C   UNL     1       2.357  -6.204  -7.943  0.00  0.00    +0.244 C 
ATOM     19  O   UNL     1       3.361  -5.865  -8.539  0.00  0.00    -0.270 OA
ATOM     20  N   UNL     1       1.606  -7.221  -8.411  0.00  0.00    -0.310 N 
ATOM     21  H   UNL     1       0.805  -7.491  -7.935  0.00  0.00    +0.149 HD
BRANCH  20  22
ATOM     22  C   UNL     1       1.998  -7.916  -9.639  0.00  0.00    +0.126 C 
BRANCH  22  23
ATOM     23  C   UNL     1       0.984  -9.019  -9.948  0.00  0.00    +0.145 C 
BRANCH  23  24
ATOM     24  N   UNL     1       1.376  -9.714 -11.176  0.00  0.00    -0.291 N 
ATOM     25  C   UNL     1       0.990  -9.367 -12.468  0.00  0.00    +0.070 A 
ATOM     26  C   UNL     1       0.192  -8.358 -12.984  0.00  0.00    +0.028 A 
ATOM     27  C   UNL     1      -0.010  -8.270 -14.348  0.00  0.00    +0.002 A 
ATOM     28  C   UNL     1       0.582  -9.185 -15.201  0.00  0.00    +0.002 A 
ATOM     29  C   UNL     1       1.379 -10.194 -14.697  0.00  0.00    +0.028 A 
ATOM     30  C   UNL     1       1.588 -10.290 -13.329  0.00  0.00    +0.067 A 
ATOM     31  N   UNL     1       2.318 -11.169 -12.533  0.00  0.00    -0.306 N 
ATOM     32  H   UNL     1       2.843 -11.921 -12.851  0.00  0.00    +0.170 HD
ATOM     33  C   UNL     1       2.176 -10.795 -11.248  0.00  0.00    +0.328 A 
ATOM     34  O   UNL     1       2.691 -11.351 -10.295  0.00  0.00    -0.247 OA
ENDBRANCH  23  24
ENDBRANCH  22  23
ENDBRANCH  20  22
ENDBRANCH   4  18
TORSDOF 7
