REMARK  Name = ZINC09435709
REMARK  14 active torsions:
REMARK  status: ('A' for Active; 'I' for Inactive)
REMARK    1  A    between atoms: C_1  and  C_2
REMARK    2  A    between atoms: C_3  and  C_15
REMARK    3  A    between atoms: N_5  and  C_7
REMARK    4  A    between atoms: C_16  and  C_17
REMARK    5  A    between atoms: C_17  and  O_19
REMARK    6  A    between atoms: O_19  and  C_20
REMARK    7  A    between atoms: C_20  and  C_22
REMARK    8  A    between atoms: C_20  and  C_23
REMARK    9  A    between atoms: N_25  and  C_26
REMARK   10  A    between atoms: C_26  and  C_27
REMARK   11  A    between atoms: C_26  and  C_28
REMARK   12  A    between atoms: C_26  and  C_30
REMARK   13  A    between atoms: C_30  and  C_31
REMARK   14  A    between atoms: C_30  and  C_32
REMARK                            x       y       z     vdW  Elec       q    Type
REMARK                         _______ _______ _______ _____ _____    ______ ____
ROOT
ATOM      1  C   UNL     1      -4.267   6.975  -1.448  0.00  0.00    +0.020 C 
ATOM      2  C   UNL     1      -4.070   5.786  -0.835  0.00  0.00    +0.092 C 
ENDROOT
BRANCH   1   5
ATOM      3  C   UNL     1      -5.205   9.901  -0.658  0.00  0.00    +0.068 C 
ATOM      4  C   UNL     1      -6.061   8.810  -1.248  0.00  0.00    +0.069 A 
ATOM      5  C   UNL     1      -5.626   7.509  -1.595  0.00  0.00    +0.035 A 
ATOM      6  C   UNL     1      -6.727   6.832  -2.095  0.00  0.00    +0.140 A 
ATOM      7  N   UNL     1      -7.771   7.682  -2.056  0.00  0.00    -0.221 N 
ATOM      8  N   UNL     1      -7.331   8.902  -1.531  0.00  0.00    -0.170 NA
ATOM      9 CL   UNL     1      -6.756   5.192  -2.664  0.00  0.00    -0.061 Cl
BRANCH   7  10
ATOM     10  C   UNL     1      -9.078   7.393  -2.472  0.00  0.00    +0.067 A 
ATOM     11  C   UNL     1      -9.293   6.561  -3.562  0.00  0.00    +0.030 A 
ATOM     12  C   UNL     1     -10.582   6.274  -3.968  0.00  0.00    +0.040 A 
ATOM     13  C   UNL     1     -11.659   6.824  -3.294  0.00  0.00    +0.124 A 
ATOM     14  C   UNL     1     -11.447   7.659  -2.209  0.00  0.00    +0.040 A 
ATOM     15  C   UNL     1     -10.160   7.944  -1.798  0.00  0.00    +0.030 A 
ATOM     16  F   UNL     1     -12.919   6.547  -3.695  0.00  0.00    -0.205 F 
ENDBRANCH   7  10
ENDBRANCH   1   5
BRANCH   2  17
ATOM     17  C   UNL     1      -2.760   5.271  -0.693  0.00  0.00    +0.333 C 
ATOM     18  O   UNL     1      -1.810   5.899  -1.122  0.00  0.00    -0.246 OA
BRANCH  17  19
ATOM     19  O   UNL     1      -2.563   4.084  -0.081  0.00  0.00    -0.449 OA
BRANCH  19  20
ATOM     20  C   UNL     1      -1.214   3.626   0.028  0.00  0.00    +0.259 C 
ATOM     21  C   UNL     1      -0.606   4.137   1.335  0.00  0.00    +0.062 C 
BRANCH  20  22
ATOM     22  C   UNL     1      -1.194   2.119   0.019  0.00  0.00    +0.255 C 
ATOM     23  O   UNL     1      -2.236   1.498   0.021  0.00  0.00    -0.272 OA
ATOM     24  N   UNL     1      -0.018   1.461   0.010  0.00  0.00    -0.294 N 
ATOM     25  H   UNL     1       0.927   2.024   0.009  0.00  0.00    +0.150 HD
BRANCH  24  26
ATOM     26  C   UNL     1       0.002  -0.004   0.002  0.00  0.00    +0.121 C 
ATOM     27  C   UNL     1      -0.700  -0.530   1.255  0.00  0.00    +0.048 C 
BRANCH  26  28
ATOM     28  C   UNL     1       1.451  -0.494  -0.015  0.00  0.00    +0.020 C 
ATOM     29  C   UNL     1       2.142  -0.087   1.289  0.00  0.00    +0.010 C 
ATOM     30  C   UNL     1       1.473  -2.018  -0.149  0.00  0.00    +0.010 C 
ENDBRANCH  26  28
BRANCH  26  31
ATOM     31  C   UNL     1      -0.697  -0.498  -1.196  0.00  0.00    +0.088 C 
ATOM     32  N   UNL     1      -1.236  -0.879  -2.120  0.00  0.00    -0.194 NA
ENDBRANCH  26  31
ENDBRANCH  24  26
ENDBRANCH  20  22
ENDBRANCH  19  20
ENDBRANCH  17  19
ENDBRANCH   2  17
TORSDOF 9
