REMARK  Name = ZINC09596759
REMARK  7 active torsions:
REMARK  status: ('A' for Active; 'I' for Inactive)
REMARK    1  A    between atoms: C_1  and  C_2
REMARK    2  A    between atoms: C_6  and  O_8
REMARK    3  A    between atoms: O_8  and  C_9
REMARK    4  A    between atoms: C_12  and  N_15
REMARK    5  A    between atoms: C_16  and  C_18
REMARK    6  A    between atoms: C_18  and  N_19
REMARK    7  A    between atoms: C_27  and  C_29
REMARK                            x       y       z     vdW  Elec       q    Type
REMARK                         _______ _______ _______ _____ _____    ______ ____
ROOT
ATOM      1  N   UNL     1       6.923   0.830  -0.423  0.00  0.00    -0.284 N 
ATOM      2  C   UNL     1       6.837  -0.500  -0.626  0.00  0.00    +0.235 C 
ATOM      3  O   UNL     1       5.753  -1.044  -0.626  0.00  0.00    -0.274 OA
ATOM      4  H   UNL     1       7.792   1.256  -0.364  0.00  0.00    +0.155 HD
ENDROOT
BRANCH   1   8
ATOM      5  C   UNL     1       3.453   3.111  -0.048  0.00  0.00    +0.129 A 
ATOM      6  C   UNL     1       4.567   3.643  -0.680  0.00  0.00    +0.048 A 
ATOM      7  C   UNL     1       5.718   2.890  -0.800  0.00  0.00    +0.027 A 
ATOM      8  C   UNL     1       5.757   1.596  -0.297  0.00  0.00    +0.034 A 
ATOM      9  C   UNL     1       4.639   1.062   0.331  0.00  0.00    +0.027 A 
ATOM     10  C   UNL     1       3.490   1.818   0.455  0.00  0.00    +0.048 A 
BRANCH   5  11
ATOM     11  O   UNL     1       2.321   3.854   0.073  0.00  0.00    -0.456 OA
BRANCH  11  17
ATOM     12  C   UNL     1       2.146   8.719   0.425  0.00  0.00    +0.044 C 
ATOM     13  C   UNL     1       2.200   7.459  -0.400  0.00  0.00    -0.047 A 
ATOM     14  C   UNL     1       2.221   7.538  -1.781  0.00  0.00    +0.003 A 
ATOM     15  C   UNL     1       2.266   6.384  -2.541  0.00  0.00    +0.004 A 
ATOM     16  C   UNL     1       2.301   5.149  -1.922  0.00  0.00    +0.046 A 
ATOM     17  C   UNL     1       2.286   5.067  -0.537  0.00  0.00    +0.129 A 
ATOM     18  C   UNL     1       2.235   6.227   0.223  0.00  0.00    +0.049 A 
ENDBRANCH  11  17
ENDBRANCH   5  11
ENDBRANCH   1   8
BRANCH   2  19
ATOM     19  C   UNL     1       8.087  -1.310  -0.853  0.00  0.00    +0.214 C 
BRANCH  19  20
ATOM     20  N   UNL     1       7.728  -2.717  -1.047  0.00  0.00    -0.215 N 
ATOM     21  C   UNL     1       7.456  -3.272  -2.247  0.00  0.00    +0.247 C 
ATOM     22  O   UNL     1       7.461  -2.723  -3.327  0.00  0.00    -0.273 OA
ATOM     23  C   UNL     1       7.144  -4.723  -1.959  0.00  0.00    +0.115 C 
ATOM     24  C   UNL     1       5.717  -5.053  -2.384  0.00  0.00    +0.035 C 
ATOM     25  C   UNL     1       5.583  -4.888  -3.900  0.00  0.00    +0.003 C 
ATOM     26  C   UNL     1       6.572  -5.821  -4.602  0.00  0.00    +0.000 C 
ATOM     27  C   UNL     1       7.999  -5.465  -4.183  0.00  0.00    +0.006 C 
ATOM     28  C   UNL     1       8.142  -5.631  -2.667  0.00  0.00    +0.018 C 
ATOM     29  C   UNL     1       9.563  -5.255  -2.244  0.00  0.00    +0.010 C 
ATOM     30  N   UNL     1       7.287  -4.836  -0.502  0.00  0.00    -0.285 N 
ATOM     31  C   UNL     1       7.636  -3.614  -0.057  0.00  0.00    +0.310 C 
ATOM     32  O   UNL     1       7.841  -3.353   1.112  0.00  0.00    -0.252 OA
ATOM     33  H   UNL     1       7.159  -5.635   0.034  0.00  0.00    +0.151 HD
ENDBRANCH  19  20
ENDBRANCH   2  19
TORSDOF 5
