REMARK  Name = ZINC58009431
REMARK  7 active torsions:
REMARK  status: ('A' for Active; 'I' for Inactive)
REMARK    1  A    between atoms: C_1  and  C_2
REMARK    2  A    between atoms: C_5  and  S_8
REMARK    3  A    between atoms: S_8  and  N_11
REMARK    4  A    between atoms: N_11  and  C_12
REMARK    5  A    between atoms: C_14  and  C_30
REMARK    6  A    between atoms: C_17  and  N_18
REMARK    7  A    between atoms: N_21  and  C_24
REMARK                            x       y       z     vdW  Elec       q    Type
REMARK                         _______ _______ _______ _____ _____    ______ ____
ROOT
ATOM      1  C   UNL     1       2.500  -4.622   1.014  0.00  0.00    +0.070 A 
ATOM      2  C   UNL     1       2.040  -4.639   2.316  0.00  0.00    +0.041 A 
ATOM      3  C   UNL     1       2.892  -4.261   3.360  0.00  0.00    +0.065 A 
ATOM      4  C   UNL     1       4.205  -3.868   3.081  0.00  0.00    +0.017 A 
ATOM      5  C   UNL     1       4.658  -3.852   1.781  0.00  0.00    +0.026 A 
ATOM      6  C   UNL     1       3.815  -4.232   0.743  0.00  0.00    +0.052 A 
ENDROOT
BRANCH   6   7
ATOM      7  N   UNL     1       4.280  -4.220  -0.569  0.00  0.00    -0.332 N 
ATOM      8  C   UNL     1       4.158  -3.015  -1.404  0.00  0.00    +0.086 C 
ATOM      9  C   UNL     1       5.526  -2.713  -2.023  0.00  0.00    -0.059 C 
ATOM     10  N   UNL     1       6.011  -3.900  -2.740  0.00  0.00    +0.384 N 
ATOM     11  C   UNL     1       6.240  -4.997  -1.791  0.00  0.00    -0.059 C 
ATOM     12  C   UNL     1       4.912  -5.411  -1.158  0.00  0.00    +0.086 C 
ATOM     13  H   UNL     1       5.323  -4.184  -3.421  0.00  0.00    -0.081 HD
BRANCH  10  14
ATOM     14  C   UNL     1       7.269  -3.576  -3.425  0.00  0.00    -0.068 C 
ATOM     15  C   UNL     1       7.030  -2.440  -4.421  0.00  0.00    -0.015 C 
ATOM     16  C   UNL     1       8.341  -2.103  -5.135  0.00  0.00    -0.002 C 
ATOM     17  C   UNL     1       8.847  -3.339  -5.882  0.00  0.00    -0.000 C 
ATOM     18  C   UNL     1       9.087  -4.475  -4.885  0.00  0.00    -0.002 C 
ATOM     19  C   UNL     1       7.776  -4.812  -4.172  0.00  0.00    -0.015 C 
ENDBRANCH  10  14
ENDBRANCH   6   7
BRANCH   3  20
ATOM     20  C   UNL     1       2.407  -4.277   4.750  0.00  0.00    +0.387 C 
ATOM     21  O   UNL     1       1.258  -4.622   4.992  0.00  0.00    -0.241 OA
ATOM     22  O   UNL     1       3.152  -3.947   5.662  0.00  0.00    -0.241 OA
ENDBRANCH   3  20
BRANCH   1  23
ATOM     23  N   UNL     1       1.651  -4.999  -0.034  0.00  0.00    -0.214 N 
ATOM     24  H   UNL     1       2.008  -5.477  -0.800  0.00  0.00    +0.174 HD
BRANCH  23  25
ATOM     25  S   UNL     1       0.038  -4.631   0.033  0.00  0.00    +0.072 S 
ATOM     26  O   UNL     1      -0.442  -5.135   1.272  0.00  0.00    -0.150 OA
ATOM     27  O   UNL     1      -0.520  -5.021  -1.214  0.00  0.00    -0.150 OA
BRANCH  25  32
ATOM     28  C   UNL     1      -0.414   1.378   0.324  0.00  0.00    +0.044 C 
ATOM     29  C   UNL     1      -0.301  -0.123   0.251  0.00  0.00    -0.050 A 
ATOM     30  C   UNL     1      -0.286  -0.756  -0.978  0.00  0.00    +0.005 A 
ATOM     31  C   UNL     1      -0.182  -2.133  -1.044  0.00  0.00    +0.029 A 
ATOM     32  C   UNL     1      -0.093  -2.876   0.118  0.00  0.00    +0.109 A 
ATOM     33  C   UNL     1      -0.108  -2.243   1.347  0.00  0.00    +0.029 A 
ATOM     34  C   UNL     1      -0.207  -0.866   1.413  0.00  0.00    +0.005 A 
ENDBRANCH  25  32
ENDBRANCH  23  25
ENDBRANCH   1  23
TORSDOF 6
