REMARK  Name = ZINC58044354
REMARK  9 active torsions:
REMARK  status: ('A' for Active; 'I' for Inactive)
REMARK    1  A    between atoms: C_1  and  C_2
REMARK    2  A    between atoms: C_2  and  C_3
REMARK    3  A    between atoms: C_3  and  C_5
REMARK    4  A    between atoms: C_3  and  C_6
REMARK    5  A    between atoms: C_9  and  S_12
REMARK    6  A    between atoms: S_12  and  N_15
REMARK    7  A    between atoms: N_18  and  C_21
REMARK    8  A    between atoms: C_21  and  C_22
REMARK    9  A    between atoms: C_22  and  C_24
REMARK                            x       y       z     vdW  Elec       q    Type
REMARK                         _______ _______ _______ _____ _____    ______ ____
ROOT
ATOM      1  S   UNL     1       0.400  -6.531   1.466  0.00  0.00    +0.061 S 
ATOM      2  O   UNL     1      -0.692  -6.843   2.320  0.00  0.00    -0.153 OA
ATOM      3  O   UNL     1       0.474  -6.992   0.124  0.00  0.00    -0.153 OA
ENDROOT
BRANCH   1   7
ATOM      4  C   UNL     1       0.657  -2.014   1.298  0.00  0.00    -0.044 A 
ATOM      5  C   UNL     1       1.179  -2.775   0.269  0.00  0.00    +0.006 A 
ATOM      6  C   UNL     1       1.101  -4.154   0.320  0.00  0.00    +0.029 A 
ATOM      7  C   UNL     1       0.500  -4.773   1.401  0.00  0.00    +0.105 A 
ATOM      8  C   UNL     1      -0.021  -4.012   2.431  0.00  0.00    +0.029 A 
ATOM      9  C   UNL     1       0.061  -2.633   2.381  0.00  0.00    +0.006 A 
BRANCH   4  10
ATOM     10  C   UNL     1       0.742  -0.511   1.242  0.00  0.00    +0.016 C 
ATOM     11  C   UNL     1       2.210  -0.086   1.169  0.00  0.00    +0.012 C 
BRANCH  10  13
ATOM     12  C   UNL     1      -0.019   1.526   0.010  0.00  0.00    +0.004 C 
ATOM     13  C   UNL     1       0.002  -0.004   0.002  0.00  0.00    +0.004 C 
ENDBRANCH  10  13
ENDBRANCH   4  10
ENDBRANCH   1   7
BRANCH   1  14
ATOM     14  N   UNL     1       1.767  -7.072   2.229  0.00  0.00    -0.174 NA
ATOM     15  C   UNL     1       2.983  -7.388   1.464  0.00  0.00    +0.125 C 
ATOM     16  C   UNL     1       4.165  -6.654   2.105  0.00  0.00    +0.102 C 
ATOM     17  N   UNL     1       4.227  -6.986   3.534  0.00  0.00    -0.296 NA
ATOM     18  C   UNL     1       3.026  -6.520   4.242  0.00  0.00    +0.102 C 
ATOM     19  C   UNL     1       1.799  -7.243   3.689  0.00  0.00    +0.125 C 
BRANCH  17  20
ATOM     20  C   UNL     1       5.444  -6.441   4.150  0.00  0.00    +0.114 C 
BRANCH  20  21
ATOM     21  C   UNL     1       5.599  -7.001   5.540  0.00  0.00    -0.066 C 
ATOM     22  C   UNL     1       6.346  -8.058   5.741  0.00  0.00    +0.008 C 
ATOM     23  C   UNL     1       4.894  -6.345   6.699  0.00  0.00    +0.040 C 
ENDBRANCH  20  21
ENDBRANCH  17  20
ENDBRANCH   1  14
TORSDOF 6
