REMARK  Name = ZINC64155612
REMARK  7 active torsions:
REMARK  status: ('A' for Active; 'I' for Inactive)
REMARK    1  A    between atoms: C_1  and  C_2
REMARK    2  A    between atoms: C_4  and  C_25
REMARK    3  A    between atoms: C_5  and  N_9
REMARK    4  A    between atoms: N_9  and  C_10
REMARK    5  A    between atoms: C_10  and  N_12
REMARK    6  A    between atoms: N_12  and  N_13
REMARK    7  A    between atoms: C_14  and  C_16
REMARK                            x       y       z     vdW  Elec       q    Type
REMARK                         _______ _______ _______ _____ _____    ______ ____
ROOT
ATOM      1  N   UNL     1       0.476  -5.736   2.329  0.00  0.00    -0.245 N 
ATOM      2  H   UNL     1       0.684  -5.988   3.243  0.00  0.00    +0.172 HD
ENDROOT
BRANCH   1   3
ATOM      3  N   UNL     1       0.304  -6.725   1.351  0.00  0.00    -0.231 N 
ATOM      4  C   UNL     1       0.427  -8.026   1.680  0.00  0.00    +0.258 C 
ATOM      5  O   UNL     1       0.687  -8.342   2.826  0.00  0.00    -0.269 OA
ATOM      6  H   UNL     1       0.097  -6.473   0.438  0.00  0.00    +0.173 HD
BRANCH   4   7
ATOM      7  C   UNL     1       0.247  -9.061   0.657  0.00  0.00    +0.044 C 
ATOM      8  C   UNL     1       0.333 -10.425   0.828  0.00  0.00    +0.008 A 
ATOM      9  C   UNL     1       0.603 -11.239   1.958  0.00  0.00    +0.010 A 
ATOM     10  C   UNL     1       0.626 -12.584   1.837  0.00  0.00    +0.001 A 
ATOM     11  C   UNL     1       0.389 -13.235   0.615  0.00  0.00    +0.002 A 
ATOM     12  C   UNL     1       0.122 -12.553  -0.519  0.00  0.00    +0.026 A 
ATOM     13  C   UNL     1       0.078 -11.083  -0.477  0.00  0.00    +0.043 A 
ATOM     14  N   UNL     1      -0.150 -10.192  -1.400  0.00  0.00    -0.380 N 
ATOM     15  C   UNL     1      -0.078  -8.853  -0.806  0.00  0.00    +0.154 C 
ATOM     16  H   UNL     1      -0.342 -10.384  -2.331  0.00  0.00    +0.160 HD
ENDBRANCH   4   7
ENDBRANCH   1   3
BRANCH   1  17
ATOM     17  C   UNL     1       0.354  -4.435   2.001  0.00  0.00    +0.151 C 
ATOM     18  S   UNL     1       0.564  -3.227   3.196  0.00  0.00    -0.017 S 
BRANCH  17  19
ATOM     19  N   UNL     1       0.065  -4.085   0.732  0.00  0.00    -0.294 N 
ATOM     20  H   UNL     1      -0.119  -4.769   0.070  0.00  0.00    +0.154 HD
BRANCH  19  25
ATOM     21  C   UNL     1      -0.069   1.394  -0.739  0.00  0.00    +0.044 C 
ATOM     22  C   UNL     1      -0.034  -0.061  -0.349  0.00  0.00    -0.049 A 
ATOM     23  C   UNL     1       1.180  -0.690  -0.140  0.00  0.00    +0.008 A 
ATOM     24  C   UNL     1       1.216  -2.024   0.218  0.00  0.00    -0.028 A 
ATOM     25  C   UNL     1       0.032  -2.733   0.369  0.00  0.00    +0.054 A 
ATOM     26  C   UNL     1      -1.186  -2.099   0.159  0.00  0.00    +0.063 A 
ATOM     27  C   UNL     1      -1.215  -0.762  -0.194  0.00  0.00    +0.025 A 
ATOM     28 CL   UNL     1      -2.670  -2.981   0.346  0.00  0.00    -0.082 Cl
ATOM     29  C   UNL     1       2.539  -2.708   0.445  0.00  0.00    +0.046 C 
ENDBRANCH  19  25
ENDBRANCH  17  19
ENDBRANCH   1  17
TORSDOF 5
