REMARK  Name = ZINC12372346
REMARK  4 active torsions:
REMARK  status: ('A' for Active; 'I' for Inactive)
REMARK    1  A    between atoms: C_1  and  C_2
REMARK    2  A    between atoms: C_3  and  C_12
REMARK    3  A    between atoms: N_13  and  N_14
REMARK    4  A    between atoms: C_15  and  C_17
REMARK                            x       y       z     vdW  Elec       q    Type
REMARK                         _______ _______ _______ _____ _____    ______ ____
ROOT
ATOM      1  C   UNL     1       1.612   4.288  -0.194  0.00  0.00    +0.140 C 
ATOM      2  N   UNL     1       2.900   4.119  -0.223  0.00  0.00    -0.188 NA
ENDROOT
BRANCH   1   5
ATOM      3  C   UNL     1      -0.650   3.880  -2.287  0.00  0.00    +0.064 C 
ATOM      4  C   UNL     1      -0.280   2.925  -1.181  0.00  0.00    +0.023 A 
ATOM      5  C   UNL     1       0.715   3.124  -0.275  0.00  0.00    +0.023 A 
ATOM      6  C   UNL     1       0.719   1.946   0.610  0.00  0.00    +0.009 A 
ATOM      7  C   UNL     1       1.487   1.564   1.709  0.00  0.00    +0.010 A 
ATOM      8  C   UNL     1       1.232   0.364   2.335  0.00  0.00    +0.001 A 
ATOM      9  C   UNL     1       0.216  -0.463   1.877  0.00  0.00    +0.002 A 
ATOM     10  C   UNL     1      -0.551  -0.099   0.793  0.00  0.00    +0.026 A 
ATOM     11  C   UNL     1      -0.313   1.111   0.149  0.00  0.00    +0.047 A 
ATOM     12  N   UNL     1      -0.892   1.732  -0.937  0.00  0.00    -0.358 N 
ATOM     13  H   UNL     1      -1.632   1.373  -1.452  0.00  0.00    +0.166 HD
ENDBRANCH   1   5
BRANCH   2  14
ATOM     14  N   UNL     1       3.434   2.844  -0.454  0.00  0.00    -0.207 N 
ATOM     15  C   UNL     1       4.767   2.684  -0.575  0.00  0.00    +0.236 C 
ATOM     16  O   UNL     1       5.504   3.643  -0.484  0.00  0.00    -0.274 OA
ATOM     17  H   UNL     1       2.845   2.077  -0.527  0.00  0.00    +0.177 HD
BRANCH  15  18
ATOM     18  C   UNL     1       5.341   1.313  -0.824  0.00  0.00    +0.083 C 
ATOM     19  C   UNL     1       4.895   0.576  -2.097  0.00  0.00    +0.005 C 
ATOM     20  C   UNL     1       6.299   1.154  -1.998  0.00  0.00    +0.005 C 
ATOM     21  C   UNL     1       6.683   2.366  -2.831  0.00  0.00    +0.004 C 
ATOM     22  C   UNL     1       5.436   3.143  -3.254  0.00  0.00    +0.000 C 
ATOM     23  C   UNL     1       4.484   2.182  -3.976  0.00  0.00    +0.000 C 
ATOM     24  C   UNL     1       3.827   1.274  -2.936  0.00  0.00    +0.004 C 
ENDBRANCH  15  18
ENDBRANCH   2  14
TORSDOF 3
