REMARK  Name = ZINC02185664
REMARK  9 active torsions:
REMARK  status: ('A' for Active; 'I' for Inactive)
REMARK    1  A    between atoms: C_1  and  C_2
REMARK    2  A    between atoms: C_3  and  C_30
REMARK    3  A    between atoms: C_4  and  C_21
REMARK    4  A    between atoms: C_10  and  C_15
REMARK    5  A    between atoms: C_30  and  O_32
REMARK    6  A    between atoms: O_32  and  C_33
REMARK    7  A    between atoms: C_33  and  C_34
REMARK    8  A    between atoms: C_34  and  O_35
REMARK    9  A    between atoms: O_35  and  C_36
REMARK                            x       y       z     vdW  Elec       q    Type
REMARK                         _______ _______ _______ _____ _____    ______ ____
ROOT
ATOM      1  C   UNL     1       0.882   0.205   4.767  0.00  0.00    +0.061 C 
ATOM      2  C   UNL     1      -0.287   1.156   4.749  0.00  0.00    +0.016 C 
ATOM      3  C   UNL     1      -0.623   1.778   3.606  0.00  0.00    +0.065 C 
ATOM      4  C   UNL     1      -1.783   2.729   3.550  0.00  0.00    +0.092 C 
ATOM      5  C   UNL     1      -2.186   3.177   4.931  0.00  0.00    +0.024 C 
ATOM      6  C   UNL     1      -1.780   2.496   6.023  0.00  0.00    +0.016 C 
ATOM      7  N   UNL     1      -0.998   1.380   5.895  0.00  0.00    -0.321 N 
ATOM      8  C   UNL     1      -2.172   2.945   7.409  0.00  0.00    +0.059 C 
ATOM      9  C   UNL     1      -3.538   3.633   7.359  0.00  0.00    +0.032 C 
ATOM     10  C   UNL     1      -3.449   4.820   6.393  0.00  0.00    +0.088 C 
ATOM     11  C   UNL     1      -2.992   4.323   5.048  0.00  0.00    +0.162 C 
ATOM     12  O   UNL     1      -3.326   4.923   4.046  0.00  0.00    -0.292 OA
ATOM     13  H   UNL     1      -0.944   0.660   6.725  0.00  0.00    +0.152 HD
ENDROOT
BRANCH   4  14
ATOM     14  C   UNL     1      -2.954   2.043   2.896  0.00  0.00    -0.032 A 
ATOM     15  C   UNL     1      -3.479   0.893   3.455  0.00  0.00    +0.008 A 
ATOM     16  C   UNL     1      -4.557   0.262   2.861  0.00  0.00    +0.050 A 
ATOM     17  C   UNL     1      -5.107   0.777   1.698  0.00  0.00    +0.166 A 
ATOM     18  C   UNL     1      -4.574   1.933   1.133  0.00  0.00    +0.167 A 
ATOM     19  C   UNL     1      -3.498   2.562   1.736  0.00  0.00    +0.054 A 
ATOM     20  O   UNL     1      -5.282   2.233   0.005  0.00  0.00    -0.453 OA
ATOM     21  C   UNL     1      -6.508   1.484   0.110  0.00  0.00    +0.466 C 
ATOM     22  O   UNL     1      -6.149   0.353   0.925  0.00  0.00    -0.453 OA
ENDBRANCH   4  14
BRANCH   9  23
ATOM     23  C   UNL     1      -3.907   4.127   8.734  0.00  0.00    -0.044 A 
ATOM     24  C   UNL     1      -3.084   5.022   9.391  0.00  0.00    +0.004 A 
ATOM     25  C   UNL     1      -3.425   5.478  10.651  0.00  0.00    +0.000 A 
ATOM     26  C   UNL     1      -4.584   5.031  11.257  0.00  0.00    +0.000 A 
ATOM     27  C   UNL     1      -5.405   4.132  10.602  0.00  0.00    +0.000 A 
ATOM     28  C   UNL     1      -5.066   3.680   9.341  0.00  0.00    +0.004 A 
ENDBRANCH   9  23
BRANCH   3  29
ATOM     29  C   UNL     1       0.133   1.537   2.436  0.00  0.00    +0.338 C 
ATOM     30  O   UNL     1       1.149   0.870   2.495  0.00  0.00    -0.245 OA
BRANCH  29  31
ATOM     31  O   UNL     1      -0.272   2.047   1.254  0.00  0.00    -0.459 OA
BRANCH  31  32
ATOM     32  C   UNL     1       0.540   1.763   0.113  0.00  0.00    +0.260 C 
BRANCH  32  33
ATOM     33  C   UNL     1      -0.073   2.419  -1.126  0.00  0.00    +0.200 C 
BRANCH  33  34
ATOM     34  O   UNL     1      -0.037   3.840  -0.980  0.00  0.00    -0.380 OA
ATOM     35  C   UNL     1      -0.589   4.553  -2.088  0.00  0.00    +0.194 C 
ENDBRANCH  33  34
ENDBRANCH  32  33
ENDBRANCH  31  32
ENDBRANCH  29  31
ENDBRANCH   3  29
TORSDOF 7
