REMARK  Name = ZINC67103352
REMARK  7 active torsions:
REMARK  status: ('A' for Active; 'I' for Inactive)
REMARK    1  A    between atoms: C_1  and  C_2
REMARK    2  A    between atoms: C_2  and  C_3
REMARK    3  A    between atoms: C_3  and  C_5
REMARK    4  A    between atoms: C_3  and  N_15
REMARK    5  A    between atoms: N_18  and  N_19
REMARK    6  A    between atoms: C_20  and  C_22
REMARK    7  A    between atoms: C_22  and  C_23
REMARK                            x       y       z     vdW  Elec       q    Type
REMARK                         _______ _______ _______ _____ _____    ______ ____
ROOT
ATOM      1  N   UNL     1      -2.082  -0.162   1.273  0.00  0.00    -0.288 N 
ATOM      2  C   UNL     1      -2.664   1.047   1.400  0.00  0.00    +0.317 C 
ATOM      3  O   UNL     1      -2.651   1.829   0.469  0.00  0.00    -0.251 OA
ATOM      4  N   UNL     1      -3.260   1.389   2.559  0.00  0.00    -0.218 N 
ATOM      5  H   UNL     1      -2.092  -0.785   2.016  0.00  0.00    +0.151 HD
ATOM      6  H   UNL     1      -3.679   2.259   2.651  0.00  0.00    +0.174 HD
ENDROOT
BRANCH   4   7
ATOM      7  N   UNL     1      -3.275   0.488   3.632  0.00  0.00    -0.233 N 
ATOM      8  C   UNL     1      -3.871   0.830   4.791  0.00  0.00    +0.229 C 
ATOM      9  O   UNL     1      -4.395   1.918   4.906  0.00  0.00    -0.274 OA
ATOM     10  H   UNL     1      -2.856  -0.382   3.541  0.00  0.00    +0.173 HD
BRANCH   8  11
ATOM     11  C   UNL     1      -3.887  -0.139   5.945  0.00  0.00    +0.101 C 
BRANCH  11  12
ATOM     12  C   UNL     1      -4.620   0.492   7.131  0.00  0.00    -0.002 C 
ATOM     13  C   UNL     1      -3.833   1.704   7.631  0.00  0.00    +0.004 C 
ATOM     14  C   UNL     1      -4.567   2.335   8.817  0.00  0.00    +0.000 C 
ATOM     15  C   UNL     1      -4.692   1.308   9.944  0.00  0.00    +0.000 C 
ATOM     16  C   UNL     1      -5.479   0.095   9.443  0.00  0.00    +0.000 C 
ATOM     17  C   UNL     1      -4.746  -0.536   8.258  0.00  0.00    +0.004 C 
ENDBRANCH  11  12
ENDBRANCH   8  11
ENDBRANCH   4   7
BRANCH   1  18
ATOM     18  C   UNL     1      -1.433  -0.534   0.013  0.00  0.00    +0.140 C 
BRANCH  18  19
ATOM     19  C   UNL     1      -1.416  -2.035  -0.119  0.00  0.00    +0.129 A 
ATOM     20  N   UNL     1      -2.014  -2.900   0.743  0.00  0.00    -0.340 N 
ATOM     21  H   UNL     1      -2.518  -2.663   1.538  0.00  0.00    +0.167 HD
ATOM     22  C   UNL     1      -1.771  -4.177   0.279  0.00  0.00    +0.066 A 
ATOM     23  C   UNL     1      -2.115  -5.448   0.719  0.00  0.00    +0.028 A 
ATOM     24  C   UNL     1      -1.702  -6.553   0.006  0.00  0.00    +0.002 A 
ATOM     25  C   UNL     1      -0.947  -6.402  -1.149  0.00  0.00    +0.002 A 
ATOM     26  C   UNL     1      -0.599  -5.160  -1.597  0.00  0.00    +0.030 A 
ATOM     27  C   UNL     1      -1.007  -4.025  -0.890  0.00  0.00    +0.089 A 
ATOM     28  N   UNL     1      -0.831  -2.692  -1.078  0.00  0.00    -0.231 NA
ENDBRANCH  18  19
BRANCH  18  30
ATOM     29  C   UNL     1      -0.019   1.526   0.010  0.00  0.00    +0.006 C 
ATOM     30  C   UNL     1       0.002  -0.004   0.002  0.00  0.00    +0.027 C 
ENDBRANCH  18  30
ENDBRANCH   1  18
TORSDOF 6
