REMARK  Name = ZINC12734804
REMARK  8 active torsions:
REMARK  status: ('A' for Active; 'I' for Inactive)
REMARK    1  A    between atoms: C_1  and  O_2
REMARK    2  A    between atoms: O_2  and  C_3
REMARK    3  A    between atoms: N_15  and  C_19
REMARK    4  A    between atoms: C_19  and  C_20
REMARK    5  A    between atoms: C_20  and  C_22
REMARK    6  A    between atoms: C_20  and  O_34
REMARK    7  A    between atoms: C_22  and  O_23
REMARK    8  A    between atoms: O_23  and  C_24
REMARK                            x       y       z     vdW  Elec       q    Type
REMARK                         _______ _______ _______ _____ _____    ______ ____
ROOT
ATOM      1  C   UNL     1     -13.672   3.395   2.855  0.00  0.00    +0.120 A 
ATOM      2  C   UNL     1     -12.688   4.201   2.300  0.00  0.00    +0.046 A 
ATOM      3  C   UNL     1     -11.556   3.626   1.763  0.00  0.00    +0.010 A 
ATOM      4  C   UNL     1     -11.391   2.246   1.773  0.00  0.00    -0.012 A 
ATOM      5  C   UNL     1     -12.365   1.444   2.329  0.00  0.00    -0.038 A 
ATOM      6  C   UNL     1     -13.507   2.021   2.866  0.00  0.00    +0.049 A 
ATOM      7  C   UNL     1     -12.239  -0.055   2.388  0.00  0.00    +0.036 C 
ATOM      8  C   UNL     1     -11.192  -0.551   1.394  0.00  0.00    +0.008 C 
ATOM      9  C   UNL     1      -9.899   0.245   1.613  0.00  0.00    +0.040 C 
ATOM     10  C   UNL     1     -10.137   1.682   1.165  0.00  0.00    +0.138 C 
ATOM     11  C   UNL     1      -8.949   2.547   1.521  0.00  0.00    +0.251 C 
ATOM     12  O   UNL     1      -8.516   2.778   2.630  0.00  0.00    -0.272 OA
ATOM     13  N   UNL     1      -8.472   3.007   0.346  0.00  0.00    -0.221 N 
ATOM     14  C   UNL     1      -9.193   2.558  -0.688  0.00  0.00    +0.310 C 
ATOM     15  O   UNL     1      -8.960   2.840  -1.847  0.00  0.00    -0.252 OA
ATOM     16  N   UNL     1     -10.204   1.757  -0.301  0.00  0.00    -0.281 N 
ATOM     17  H   UNL     1     -10.850   1.319  -0.876  0.00  0.00    +0.152 HD
ENDROOT
BRANCH   1  19
ATOM     18  C   UNL     1     -14.895   5.377   3.334  0.00  0.00    +0.277 C 
ATOM     19  O   UNL     1     -14.794   3.953   3.383  0.00  0.00    -0.495 OA
ENDBRANCH   1  19
BRANCH  13  20
ATOM     20  C   UNL     1      -7.311   3.892   0.219  0.00  0.00    +0.152 C 
BRANCH  20  21
ATOM     21  C   UNL     1      -6.041   3.050   0.077  0.00  0.00    +0.170 C 
BRANCH  21  22
ATOM     22  O   UNL     1      -6.092   2.315  -1.147  0.00  0.00    -0.387 OA
ATOM     23  H   UNL     1      -6.157   2.869  -1.937  0.00  0.00    +0.210 HD
ENDBRANCH  21  22
BRANCH  21  24
ATOM     24  C   UNL     1      -4.819   3.970   0.069  0.00  0.00    +0.262 C 
BRANCH  24  25
ATOM     25  O   UNL     1      -3.628   3.179   0.053  0.00  0.00    -0.489 OA
BRANCH  25  26
ATOM     26  C   UNL     1      -2.445   3.846   0.044  0.00  0.00    +0.128 A 
ATOM     27  C   UNL     1      -2.426   5.213   0.050  0.00  0.00    +0.046 A 
ATOM     28  C   UNL     1      -1.222   5.911   0.042  0.00  0.00    +0.004 A 
ATOM     29  C   UNL     1      -0.029   5.255   0.028  0.00  0.00    +0.009 A 
ATOM     30  C   UNL     1      -0.006   3.850   0.021  0.00  0.00    -0.014 A 
ATOM     31  C   UNL     1      -1.229   3.134   0.030  0.00  0.00    +0.024 A 
ATOM     32  C   UNL     1      -1.206   1.730   0.017  0.00  0.00    +0.012 A 
ATOM     33  C   UNL     1      -0.013   1.076   0.008  0.00  0.00    +0.001 A 
ATOM     34  C   UNL     1       1.191   1.779   0.000  0.00  0.00    +0.001 A 
ATOM     35  C   UNL     1       1.207   3.140   0.006  0.00  0.00    +0.008 A 
ENDBRANCH  25  26
ENDBRANCH  24  25
ENDBRANCH  21  24
ENDBRANCH  20  21
ENDBRANCH  13  20
TORSDOF 7
