REMARK  Name = ZINC10144106
REMARK  8 active torsions:
REMARK  status: ('A' for Active; 'I' for Inactive)
REMARK    1  A    between atoms: C_1  and  C_2
REMARK    2  A    between atoms: C_2  and  C_4
REMARK    3  A    between atoms: C_2  and  S_11
REMARK    4  A    between atoms: N_9  and  C_10
REMARK    5  A    between atoms: S_11  and  C_12
REMARK    6  A    between atoms: C_15  and  C_23
REMARK    7  A    between atoms: N_16  and  C_17
REMARK    8  A    between atoms: C_17  and  C_18
REMARK                            x       y       z     vdW  Elec       q    Type
REMARK                         _______ _______ _______ _____ _____    ______ ____
ROOT
ATOM      1  C   UNL     1      -2.383  -0.686   2.246  0.00  0.00    +0.193 A 
ATOM      2  N   UNL     1      -2.395  -1.395   3.353  0.00  0.00    -0.122 NA
ATOM      3  N   UNL     1      -1.563  -2.370   3.262  0.00  0.00    -0.128 NA
ATOM      4  C   UNL     1      -0.973  -2.347   2.089  0.00  0.00    +0.165 A 
ATOM      5  N   UNL     1      -1.475  -1.264   1.405  0.00  0.00    -0.295 N 
ENDROOT
BRANCH   4   6
ATOM      6  C   UNL     1       0.043  -3.303   1.598  0.00  0.00    +0.019 A 
ATOM      7  C   UNL     1       0.839  -2.977   0.499  0.00  0.00    +0.013 A 
ATOM      8  C   UNL     1       1.788  -3.870   0.050  0.00  0.00    +0.021 A 
ATOM      9  C   UNL     1       1.944  -5.094   0.678  0.00  0.00    +0.041 A 
ATOM     10  C   UNL     1       1.153  -5.426   1.766  0.00  0.00    +0.021 A 
ATOM     11  C   UNL     1       0.205  -4.538   2.228  0.00  0.00    +0.013 A 
ATOM     12 CL   UNL     1       3.136  -6.217   0.102  0.00  0.00    -0.084 Cl
ENDBRANCH   4   6
BRANCH   1  13
ATOM     13  S   UNL     1      -3.355   0.745   1.909  0.00  0.00    -0.073 S 
BRANCH  13  15
ATOM     14  C   UNL     1      -5.190  -0.345   3.615  0.00  0.00    +0.029 C 
ATOM     15  C   UNL     1      -4.275   0.872   3.463  0.00  0.00    +0.137 C 
BRANCH  15  16
ATOM     16  C   UNL     1      -5.107   2.128   3.453  0.00  0.00    +0.233 C 
ATOM     17  O   UNL     1      -5.452   2.618   2.399  0.00  0.00    -0.274 OA
ATOM     18  N   UNL     1      -5.469   2.706   4.615  0.00  0.00    -0.239 N 
ATOM     19  C   UNL     1      -6.213   3.830   4.606  0.00  0.00    +0.306 C 
ATOM     20  O   UNL     1      -6.559   4.321   3.549  0.00  0.00    -0.252 OA
ATOM     21  N   UNL     1      -6.574   4.408   5.768  0.00  0.00    -0.302 N 
ATOM     22  C   UNL     1      -7.384   5.630   5.758  0.00  0.00    +0.129 C 
ATOM     23  H   UNL     1      -5.193   2.314   5.458  0.00  0.00    +0.159 HD
ATOM     24  H   UNL     1      -6.299   4.016   6.612  0.00  0.00    +0.150 HD
ENDBRANCH  15  16
ENDBRANCH  13  15
ENDBRANCH   1  13
BRANCH   5  25
ATOM     25  C   UNL     1      -1.116  -0.827   0.054  0.00  0.00    +0.200 C 
BRANCH  25  26
ATOM     26  C   UNL     1      -0.086   0.270   0.138  0.00  0.00    +0.125 A 
ATOM     27  C   UNL     1       1.241   0.094   0.270  0.00  0.00    +0.046 A 
ATOM     28  C   UNL     1       1.823   1.382   0.307  0.00  0.00    +0.041 A 
ATOM     29  C   UNL     1       0.817   2.268   0.195  0.00  0.00    +0.195 A 
ATOM     30  O   UNL     1      -0.337   1.588   0.093  0.00  0.00    -0.466 OA
ENDBRANCH  25  26
ENDBRANCH   5  25
TORSDOF 6
