REMARK  Name = ZINC34757736
REMARK  11 active torsions:
REMARK  status: ('A' for Active; 'I' for Inactive)
REMARK    1  A    between atoms: C_1  and  C_2
REMARK    2  A    between atoms: C_2  and  N_3
REMARK    3  A    between atoms: N_3  and  C_4
REMARK    4  A    between atoms: C_4  and  C_5
REMARK    5  A    between atoms: C_6  and  C_8
REMARK    6  A    between atoms: C_8  and  N_9
REMARK    7  A    between atoms: C_22  and  S_24
REMARK    8  A    between atoms: S_24  and  C_25
REMARK    9  A    between atoms: C_25  and  C_26
REMARK   10  A    between atoms: N_28  and  C_29
REMARK   11  A    between atoms: N_28  and  C_30
REMARK                            x       y       z     vdW  Elec       q    Type
REMARK                         _______ _______ _______ _____ _____    ______ ____
ROOT
ATOM      1  N   UNL     1      -3.991  -1.402   2.554  0.00  0.00    +0.387 N 
ATOM      2  C   UNL     1      -3.207  -2.543   3.042  0.00  0.00    -0.059 C 
ATOM      3  C   UNL     1      -3.432  -2.709   4.549  0.00  0.00    +0.088 C 
ATOM      4  N   UNL     1      -4.879  -2.817   4.795  0.00  0.00    -0.318 N 
ATOM      5  C   UNL     1      -5.760  -1.800   4.200  0.00  0.00    +0.088 C 
ATOM      6  C   UNL     1      -5.425  -1.677   2.711  0.00  0.00    -0.059 C 
ATOM      7  C   UNL     1      -5.395  -3.845   5.562  0.00  0.00    +0.134 A 
ATOM      8  C   UNL     1      -5.622  -3.660   6.955  0.00  0.00    +0.051 A 
ATOM      9  C   UNL     1      -5.375  -2.458   7.769  0.00  0.00    -0.025 A 
ATOM     10  C   UNL     1      -5.675  -2.538   9.075  0.00  0.00    -0.004 A 
ATOM     11  S   UNL     1      -6.298  -4.188   9.307  0.00  0.00    -0.073 S 
ATOM     12  C   UNL     1      -6.150  -4.769   7.640  0.00  0.00    +0.115 A 
ATOM     13  N   UNL     1      -6.413  -5.904   7.019  0.00  0.00    -0.214 NA
ATOM     14  C   UNL     1      -6.182  -6.021   5.718  0.00  0.00    +0.191 A 
ATOM     15  N   UNL     1      -5.689  -5.010   5.011  0.00  0.00    -0.206 NA
ATOM     16  C   UNL     1      -5.378  -1.256   9.806  0.00  0.00    +0.043 C 
ATOM     17  C   UNL     1      -4.438  -0.478   8.859  0.00  0.00    +0.010 C 
ATOM     18  C   UNL     1      -4.834  -1.054   7.485  0.00  0.00    +0.037 C 
ATOM     19  H   UNL     1      -3.748  -0.579   3.083  0.00  0.00    -0.081 HD
ENDROOT
BRANCH   1  20
ATOM     20  C   UNL     1      -3.690  -1.176   1.134  0.00  0.00    +0.019 C 
BRANCH  20  22
ATOM     21  N   UNL     1      -1.742  -0.513  -0.239  0.00  0.00    -0.304 N 
ATOM     22  C   UNL     1      -2.246  -0.773   0.984  0.00  0.00    +0.199 C 
ATOM     23  O   UNL     1      -1.537  -0.684   1.964  0.00  0.00    -0.278 OA
BRANCH  21  25
ATOM     24  C   UNL     1      -0.220   1.401  -0.292  0.00  0.00    +0.024 C 
ATOM     25  C   UNL     1      -0.338  -0.122  -0.384  0.00  0.00    +0.104 C 
ENDBRANCH  21  25
BRANCH  21  26
ATOM     26  C   UNL     1      -2.599  -0.621  -1.422  0.00  0.00    +0.104 C 
ATOM     27  C   UNL     1      -2.525  -2.045  -1.976  0.00  0.00    +0.024 C 
ENDBRANCH  21  26
ENDBRANCH  20  22
ENDBRANCH   1  20
BRANCH  14  28
ATOM     28  S   UNL     1      -6.542  -7.545   4.911  0.00  0.00    -0.077 S 
BRANCH  28  29
ATOM     29  C   UNL     1      -7.185  -8.603   6.237  0.00  0.00    +0.173 C 
BRANCH  29  30
ATOM     30  C   UNL     1      -7.536  -9.956   5.674  0.00  0.00    +0.225 C 
ATOM     31  O   UNL     1      -7.369 -10.184   4.495  0.00  0.00    -0.275 OA
ATOM     32  N   UNL     1      -8.036 -10.912   6.482  0.00  0.00    -0.307 N 
ATOM     33  C   UNL     1      -8.377 -12.228   5.935  0.00  0.00    +0.131 C 
ATOM     34  C   UNL     1      -8.238 -10.636   7.906  0.00  0.00    +0.131 C 
ENDBRANCH  29  30
ENDBRANCH  28  29
ENDBRANCH  14  28
TORSDOF 7
