REMARK  Name = ZINC39673437
REMARK  6 active torsions:
REMARK  status: ('A' for Active; 'I' for Inactive)
REMARK    1  A    between atoms: C_3  and  O_33
REMARK    2  A    between atoms: C_6  and  C_7
REMARK    3  A    between atoms: C_7  and  N_8
REMARK    4  A    between atoms: C_9  and  C_11
REMARK    5  A    between atoms: C_22  and  C_24
REMARK    6  A    between atoms: O_33  and  C_34
REMARK                            x       y       z     vdW  Elec       q    Type
REMARK                         _______ _______ _______ _____ _____    ______ ____
ROOT
ATOM      1  C   UNL     1      -3.314  -1.941  -3.024  0.00  0.00    +0.100 C 
ATOM      2  C   UNL     1      -2.226  -2.714  -3.802  0.00  0.00    +0.121 C 
ATOM      3  N   UNL     1      -2.625  -4.136  -3.691  0.00  0.00    -0.296 N 
ATOM      4  C   UNL     1      -4.102  -4.116  -3.825  0.00  0.00    +0.115 C 
ATOM      5  C   UNL     1      -4.545  -2.863  -3.044  0.00  0.00    -0.004 C 
ATOM      6  C   UNL     1      -4.944  -3.243  -1.622  0.00  0.00    -0.010 C 
ATOM      7  C   UNL     1      -6.202  -4.114  -1.665  0.00  0.00    -0.082 C 
ATOM      8  N   UNL     1      -7.289  -3.374  -2.318  0.00  0.00    +0.379 N 
ATOM      9  C   UNL     1      -6.935  -3.093  -3.715  0.00  0.00    -0.082 C 
ATOM     10  C   UNL     1      -5.707  -2.179  -3.758  0.00  0.00    -0.010 C 
ATOM     11  C   UNL     1      -1.827  -5.207  -3.510  0.00  0.00    +0.252 C 
ATOM     12  O   UNL     1      -2.309  -6.320  -3.438  0.00  0.00    -0.270 OA
ATOM     13  H   UNL     1      -8.133  -3.926  -2.291  0.00  0.00    -0.086 HD
ATOM     14  H   UNL     1      -7.443  -2.505  -1.830  0.00  0.00    -0.086 HD
ENDROOT
BRANCH  11  15
ATOM     15  C   UNL     1      -0.366  -5.027  -3.397  0.00  0.00    +0.108 A 
ATOM     16  C   UNL     1       0.223  -4.824  -2.144  0.00  0.00    +0.138 A 
ATOM     17  C   UNL     1       1.591  -4.657  -2.047  0.00  0.00    +0.041 A 
ATOM     18  C   UNL     1       2.378  -4.690  -3.184  0.00  0.00    +0.026 A 
ATOM     19  C   UNL     1       1.804  -4.890  -4.427  0.00  0.00    +0.077 A 
ATOM     20  C   UNL     1       0.437  -5.065  -4.541  0.00  0.00    +0.156 A 
ATOM     21  F   UNL     1      -0.122  -5.266  -5.755  0.00  0.00    -0.203 F 
ATOM     22 CL   UNL     1       2.804  -4.929  -5.846  0.00  0.00    -0.081 Cl
ATOM     23  F   UNL     1      -0.544  -4.791  -1.032  0.00  0.00    -0.205 F 
ENDBRANCH  11  15
BRANCH   1  25
ATOM     24  N   UNL     1      -3.327  -0.617  -0.935  0.00  0.00    -0.311 N 
ATOM     25  C   UNL     1      -2.868  -1.692  -1.606  0.00  0.00    +0.218 C 
ATOM     26  O   UNL     1      -2.097  -2.458  -1.070  0.00  0.00    -0.275 OA
ATOM     27  H   UNL     1      -3.943  -0.004  -1.364  0.00  0.00    +0.149 HD
BRANCH  24  28
ATOM     28  C   UNL     1      -2.893  -0.375   0.444  0.00  0.00    +0.139 C 
BRANCH  28  34
ATOM     29  C   UNL     1      -4.768   0.810   1.604  0.00  0.00    +0.009 A 
ATOM     30  C   UNL     1      -5.367   1.959   2.080  0.00  0.00    +0.046 A 
ATOM     31  C   UNL     1      -4.742   3.186   1.915  0.00  0.00    +0.127 A 
ATOM     32  C   UNL     1      -3.515   3.255   1.270  0.00  0.00    +0.046 A 
ATOM     33  C   UNL     1      -2.920   2.103   0.796  0.00  0.00    +0.009 A 
ATOM     34  C   UNL     1      -3.545   0.881   0.962  0.00  0.00    -0.030 A 
BRANCH  31  35
ATOM     35  O   UNL     1      -5.330   4.319   2.382  0.00  0.00    -0.434 OA
BRANCH  35  36
ATOM     36  C   UNL     1      -4.628   5.547   2.176  0.00  0.00    +0.541 C 
ATOM     37  F   UNL     1      -3.381   5.483   2.807  0.00  0.00    -0.166 F 
ATOM     38  F   UNL     1      -4.447   5.756   0.805  0.00  0.00    -0.166 F 
ENDBRANCH  35  36
ENDBRANCH  31  35
ENDBRANCH  28  34
ENDBRANCH  24  28
ENDBRANCH   1  25
TORSDOF 6
