REMARK  Name = ZINC60298358
REMARK  11 active torsions:
REMARK  status: ('A' for Active; 'I' for Inactive)
REMARK    1  A    between atoms: C_1  and  C_2
REMARK    2  A    between atoms: C_6  and  C_12
REMARK    3  A    between atoms: N_10  and  C_11
REMARK    4  A    between atoms: N_14  and  C_15
REMARK    5  A    between atoms: N_14  and  C_16
REMARK    6  A    between atoms: C_16  and  C_17
REMARK    7  A    between atoms: C_17  and  C_18
REMARK    8  A    between atoms: C_18  and  C_19
REMARK    9  A    between atoms: C_19  and  C_20
REMARK   10  A    between atoms: C_20  and  C_21
REMARK   11  A    between atoms: C_23  and  C_27
REMARK                            x       y       z     vdW  Elec       q    Type
REMARK                         _______ _______ _______ _____ _____    ______ ____
ROOT
ATOM      1  C   UNL     1       2.026  -8.162  -1.902  0.00  0.00    +0.019 C 
ENDROOT
BRANCH   1   2
ATOM      2  C   UNL     1       0.519  -8.111  -1.639  0.00  0.00    +0.108 C 
BRANCH   2   5
ATOM      3  C   UNL     1      -0.106  -5.759  -1.527  0.00  0.00    +0.246 C 
ATOM      4  O   UNL     1      -0.199  -5.754  -2.739  0.00  0.00    -0.270 OA
ATOM      5  N   UNL     1       0.197  -6.901  -0.879  0.00  0.00    -0.301 N 
ATOM      6  C   UNL     1       0.204  -6.932   0.586  0.00  0.00    +0.132 C 
BRANCH   3  12
ATOM      7  C   UNL     1      -2.317  -1.108   3.775  0.00  0.00    +0.086 C 
ATOM      8  C   UNL     1      -1.749  -1.804   2.564  0.00  0.00    +0.107 A 
ATOM      9  N   UNL     1      -1.834  -3.080   2.330  0.00  0.00    -0.233 NA
ATOM     10  C   UNL     1      -1.218  -3.370   1.155  0.00  0.00    +0.090 A 
ATOM     11  C   UNL     1      -1.015  -4.551   0.442  0.00  0.00    +0.043 A 
ATOM     12  C   UNL     1      -0.325  -4.513  -0.765  0.00  0.00    +0.039 A 
ATOM     13  C   UNL     1       0.163  -3.296  -1.260  0.00  0.00    +0.015 A 
ATOM     14  C   UNL     1      -0.033  -2.139  -0.565  0.00  0.00    +0.029 A 
ATOM     15  C   UNL     1      -0.721  -2.157   0.643  0.00  0.00    +0.069 A 
ATOM     16  N   UNL     1      -1.078  -1.187   1.554  0.00  0.00    -0.331 N 
ATOM     17  C   UNL     1      -0.786   0.246   1.455  0.00  0.00    +0.150 C 
ENDBRANCH   3  12
ENDBRANCH   2   5
ENDBRANCH   1   2
BRANCH   1  18
ATOM     18  C   UNL     1       2.362  -9.426  -2.696  0.00  0.00    +0.002 C 
BRANCH  18  19
ATOM     19  C   UNL     1       3.868  -9.477  -2.960  0.00  0.00    +0.006 C 
BRANCH  19  20
ATOM     20  C   UNL     1       4.205 -10.741  -3.753  0.00  0.00    +0.055 C 
BRANCH  20  21
ATOM     21  C   UNL     1       5.688 -10.791  -4.013  0.00  0.00    +0.037 A 
ATOM     22  C   UNL     1       6.337 -10.185  -5.031  0.00  0.00    +0.052 A 
ATOM     23  C   UNL     1       7.708 -10.483  -4.907  0.00  0.00    +0.093 A 
ATOM     24  N   UNL     1       7.863 -11.245  -3.845  0.00  0.00    -0.174 NA
ATOM     25  N   UNL     1       6.603 -11.445  -3.266  0.00  0.00    -0.281 N 
ATOM     26  H   UNL     1       6.420 -11.965  -2.468  0.00  0.00    +0.189 HD
BRANCH  23  27
ATOM     27  C   UNL     1       8.788 -10.021  -5.815  0.00  0.00    +0.002 A 
ATOM     28  C   UNL     1       8.483  -9.210  -6.906  0.00  0.00    +0.013 A 
ATOM     29  C   UNL     1       9.490  -8.783  -7.747  0.00  0.00    +0.039 A 
ATOM     30  C   UNL     1      10.802  -9.159  -7.508  0.00  0.00    +0.123 A 
ATOM     31  C   UNL     1      11.109  -9.966  -6.425  0.00  0.00    +0.039 A 
ATOM     32  C   UNL     1      10.109 -10.392  -5.575  0.00  0.00    +0.013 A 
ATOM     33  F   UNL     1      11.784  -8.738  -8.335  0.00  0.00    -0.205 F 
ENDBRANCH  23  27
ENDBRANCH  20  21
ENDBRANCH  19  20
ENDBRANCH  18  19
ENDBRANCH   1  18
TORSDOF 8
