REMARK  Name = ZINC64178802
REMARK  8 active torsions:
REMARK  status: ('A' for Active; 'I' for Inactive)
REMARK    1  A    between atoms: C_1  and  N_2
REMARK    2  A    between atoms: C_6  and  C_7
REMARK    3  A    between atoms: C_7  and  C_9
REMARK    4  A    between atoms: C_7  and  N_15
REMARK    5  A    between atoms: C_16  and  C_18
REMARK    6  A    between atoms: C_18  and  S_19
REMARK    7  A    between atoms: S_19  and  C_20
REMARK    8  A    between atoms: C_24  and  C_26
REMARK                            x       y       z     vdW  Elec       q    Type
REMARK                         _______ _______ _______ _____ _____    ______ ____
ROOT
ATOM      1  N   UNL     1       0.741  -1.194   3.388  0.00  0.00    -0.301 N 
ATOM      2  C   UNL     1       2.083  -1.127   3.495  0.00  0.00    +0.224 C 
ATOM      3  O   UNL     1       2.701  -0.297   2.863  0.00  0.00    -0.275 OA
ATOM      4  H   UNL     1       0.246  -1.857   3.894  0.00  0.00    +0.150 HD
ENDROOT
BRANCH   1   5
ATOM      5  C   UNL     1       0.029  -0.264   2.508  0.00  0.00    +0.165 C 
BRANCH   5  11
ATOM      6  C   UNL     1      -0.018   1.461   0.010  0.00  0.00    +0.130 C 
ATOM      7  N   UNL     1       0.002  -0.004   0.002  0.00  0.00    -0.320 N 
ATOM      8  C   UNL     1       0.009  -0.860  -1.197  0.00  0.00    +0.127 C 
ATOM      9  C   UNL     1       0.032  -2.285  -0.608  0.00  0.00    +0.132 C 
ATOM     10  N   UNL     1       0.035  -2.064   0.846  0.00  0.00    -0.373 N 
ATOM     11  C   UNL     1       0.023  -0.808   1.103  0.00  0.00    +0.096 C 
ATOM     12  H   UNL     1       0.048  -2.767   1.514  0.00  0.00    +0.161 HD
ENDBRANCH   5  11
BRANCH   5  13
ATOM     13  C   UNL     1      -1.390  -0.102   2.990  0.00  0.00    -0.020 A 
ATOM     14  C   UNL     1      -2.089  -1.198   3.459  0.00  0.00    +0.006 A 
ATOM     15  C   UNL     1      -3.391  -1.050   3.901  0.00  0.00    +0.000 A 
ATOM     16  C   UNL     1      -3.992   0.194   3.874  0.00  0.00    +0.000 A 
ATOM     17  C   UNL     1      -3.292   1.290   3.405  0.00  0.00    +0.000 A 
ATOM     18  C   UNL     1      -1.990   1.143   2.967  0.00  0.00    +0.006 A 
ENDBRANCH   5  13
ENDBRANCH   1   5
BRANCH   2  19
ATOM     19  C   UNL     1       2.815  -2.083   4.401  0.00  0.00    +0.173 C 
BRANCH  19  20
ATOM     20  S   UNL     1       4.595  -1.743   4.328  0.00  0.00    -0.077 S 
BRANCH  20  21
ATOM     21  C   UNL     1       5.301  -2.927   5.425  0.00  0.00    +0.185 A 
ATOM     22  N   UNL     1       6.616  -3.062   5.708  0.00  0.00    -0.253 N 
ATOM     23  H   UNL     1       7.344  -2.531   5.350  0.00  0.00    +0.191 HD
ATOM     24  N   UNL     1       6.720  -4.122   6.623  0.00  0.00    -0.152 NA
ATOM     25  C   UNL     1       5.501  -4.561   6.840  0.00  0.00    +0.182 A 
ATOM     26  N   UNL     1       4.641  -3.830   6.116  0.00  0.00    -0.201 NA
BRANCH  25  27
ATOM     27  C   UNL     1       5.134  -5.680   7.743  0.00  0.00    +0.021 A 
ATOM     28  C   UNL     1       3.800  -6.056   7.884  0.00  0.00    +0.013 A 
ATOM     29  C   UNL     1       3.465  -7.098   8.725  0.00  0.00    +0.021 A 
ATOM     30  C   UNL     1       4.451  -7.768   9.428  0.00  0.00    +0.041 A 
ATOM     31  C   UNL     1       5.778  -7.398   9.291  0.00  0.00    +0.021 A 
ATOM     32  C   UNL     1       6.124  -6.362   8.449  0.00  0.00    +0.013 A 
ATOM     33 CL   UNL     1       4.023  -9.077  10.485  0.00  0.00    -0.084 Cl
ENDBRANCH  25  27
ENDBRANCH  20  21
ENDBRANCH  19  20
ENDBRANCH   2  19
TORSDOF 7
