REMARK  Name = ZINC67400854
REMARK  8 active torsions:
REMARK  status: ('A' for Active; 'I' for Inactive)
REMARK    1  A    between atoms: C_1  and  C_2
REMARK    2  A    between atoms: C_2  and  C_3
REMARK    3  A    between atoms: C_3  and  C_5
REMARK    4  A    between atoms: C_3  and  N_14
REMARK    5  A    between atoms: C_10  and  C_13
REMARK    6  A    between atoms: C_17  and  C_20
REMARK    7  A    between atoms: C_20  and  C_22
REMARK    8  A    between atoms: C_20  and  O_29
REMARK                            x       y       z     vdW  Elec       q    Type
REMARK                         _______ _______ _______ _____ _____    ______ ____
ROOT
ATOM      1  N   UNL     1      -0.227   0.182  -2.283  0.00  0.00    +0.387 N 
ATOM      2  C   UNL     1      -0.359   1.584  -1.868  0.00  0.00    -0.077 C 
ATOM      3  C   UNL     1      -1.390   2.287  -2.753  0.00  0.00    -0.012 C 
ATOM      4  C   UNL     1      -0.929   2.227  -4.212  0.00  0.00    +0.019 C 
ATOM      5  C   UNL     1      -0.723   0.762  -4.611  0.00  0.00    -0.012 C 
ATOM      6  C   UNL     1       0.283   0.116  -3.657  0.00  0.00    -0.077 C 
ATOM      7  H   UNL     1      -1.130  -0.266  -2.238  0.00  0.00    -0.081 HD
ENDROOT
BRANCH   1   8
ATOM      8  C   UNL     1       0.705  -0.508  -1.381  0.00  0.00    +0.019 C 
BRANCH   8   9
ATOM      9  C   UNL     1       2.014   0.238  -1.346  0.00  0.00    +0.205 C 
ATOM     10  O   UNL     1       2.263   1.067  -2.195  0.00  0.00    -0.277 OA
ATOM     11  N   UNL     1       2.909  -0.018  -0.370  0.00  0.00    -0.269 N 
ATOM     12  C   UNL     1       4.120   0.673  -0.337  0.00  0.00    +0.168 A 
ATOM     13  C   UNL     1       4.538   1.664  -1.253  0.00  0.00    +0.091 A 
ATOM     14  C   UNL     1       5.760   2.086  -0.883  0.00  0.00    +0.136 A 
ATOM     15  O   UNL     1       6.122   1.407   0.217  0.00  0.00    -0.358 OA
ATOM     16  N   UNL     1       5.069   0.521   0.551  0.00  0.00    -0.063 NA
ATOM     17  C   UNL     1       6.580   3.140  -1.581  0.00  0.00    +0.089 C 
ATOM     18  H   UNL     1       2.710  -0.681   0.309  0.00  0.00    +0.156 HD
ENDBRANCH   8   9
BRANCH   8  20
ATOM     19  C   UNL     1      -0.375  -2.708  -1.865  0.00  0.00    +0.002 C 
ATOM     20  C   UNL     1       0.943  -1.932  -1.887  0.00  0.00    -0.010 C 
ENDBRANCH   8  20
ENDBRANCH   1   8
BRANCH   4  21
ATOM     21  C   UNL     1      -1.993   2.858  -5.112  0.00  0.00    +0.147 C 
BRANCH  21  22
ATOM     22  C   UNL     1      -1.538   2.797  -6.547  0.00  0.00    -0.019 A 
ATOM     23  C   UNL     1      -0.628   3.723  -7.023  0.00  0.00    +0.007 A 
ATOM     24  C   UNL     1      -0.210   3.668  -8.339  0.00  0.00    +0.020 A 
ATOM     25  C   UNL     1      -0.702   2.686  -9.180  0.00  0.00    +0.041 A 
ATOM     26  C   UNL     1      -1.612   1.760  -8.704  0.00  0.00    +0.020 A 
ATOM     27  C   UNL     1      -2.025   1.812  -7.386  0.00  0.00    +0.007 A 
ATOM     28 CL   UNL     1      -0.177   2.616 -10.834  0.00  0.00    -0.084 Cl
ENDBRANCH  21  22
BRANCH  21  29
ATOM     29  O   UNL     1      -2.191   4.221  -4.732  0.00  0.00    -0.387 OA
ATOM     30  H   UNL     1      -1.396   4.768  -4.802  0.00  0.00    +0.210 HD
ENDBRANCH  21  29
ENDBRANCH   4  21
TORSDOF 6
