REMARK  Name = ZINC14991465
REMARK  9 active torsions:
REMARK  status: ('A' for Active; 'I' for Inactive)
REMARK    1  A    between atoms: C_1  and  C_2
REMARK    2  A    between atoms: C_2  and  C_3
REMARK    3  A    between atoms: C_2  and  O_4
REMARK    4  A    between atoms: O_4  and  C_5
REMARK    5  A    between atoms: C_5  and  C_6
REMARK    6  A    between atoms: C_6  and  C_7
REMARK    7  A    between atoms: C_7  and  N_61
REMARK    8  A    between atoms: C_8  and  N_61
REMARK    9  A    between atoms: N_19  and  C_22
REMARK                            x       y       z     vdW  Elec       q    Type
REMARK                         _______ _______ _______ _____ _____    ______ ____
ROOT
ATOM      1  C   UNL     1     -11.225   2.226  -1.183  0.00  0.00    -0.067 C 
ATOM      2  C   UNL     1     -10.239   3.092  -1.974  0.00  0.00    -0.011 C 
ATOM      3  C   UNL     1      -8.813   2.589  -1.753  0.00  0.00    +0.035 C 
ATOM      4  C   UNL     1      -8.550   2.497  -0.252  0.00  0.00    -0.023 A 
ATOM      5  C   UNL     1      -9.575   2.466   0.626  0.00  0.00    -0.006 A 
ATOM      6  S   UNL     1      -8.809   2.360   2.221  0.00  0.00    -0.073 S 
ATOM      7  C   UNL     1      -7.112   2.358   1.702  0.00  0.00    +0.116 A 
ATOM      8  C   UNL     1      -7.199   2.440   0.303  0.00  0.00    +0.076 A 
ATOM      9  C   UNL     1      -5.947   2.462  -0.396  0.00  0.00    +0.263 A 
ATOM     10  O   UNL     1      -5.918   2.536  -1.612  0.00  0.00    -0.267 OA
ATOM     11  N   UNL     1      -4.805   2.396   0.313  0.00  0.00    -0.295 N 
ATOM     12  C   UNL     1      -4.819   2.318   1.669  0.00  0.00    +0.203 A 
ATOM     13  N   UNL     1      -5.943   2.301   2.334  0.00  0.00    -0.230 NA
ATOM     14  C   UNL     1     -11.039   2.511   0.314  0.00  0.00    +0.027 C 
ENDROOT
BRANCH  11  15
ATOM     15  C   UNL     1      -3.521   2.413  -0.392  0.00  0.00    +0.100 C 
ATOM     16  C   UNL     1      -2.640   1.220   0.034  0.00  0.00    +0.061 C 
ATOM     17  C   UNL     1      -1.222   1.750   0.017  0.00  0.00    -0.042 A 
ATOM     18  C   UNL     1      -0.013   1.076   0.008  0.00  0.00    +0.004 A 
ATOM     19  C   UNL     1       1.175   1.780   0.000  0.00  0.00    +0.000 A 
ATOM     20  C   UNL     1       1.157   3.163   0.008  0.00  0.00    +0.000 A 
ATOM     21  C   UNL     1      -0.048   3.836   0.023  0.00  0.00    +0.004 A 
ATOM     22  C   UNL     1      -1.240   3.132   0.030  0.00  0.00    -0.042 A 
ATOM     23  C   UNL     1      -2.671   3.625   0.046  0.00  0.00    +0.061 C 
ENDBRANCH  11  15
BRANCH   1  24
ATOM     24  N   UNL     1     -12.603   2.566  -1.585  0.00  0.00    +0.381 N 
ATOM     25  H   UNL     1     -12.924   3.376  -1.042  0.00  0.00    -0.086 HD
ATOM     26  H   UNL     1     -12.617   2.797  -2.586  0.00  0.00    -0.086 HD
BRANCH  24  27
ATOM     27  C   UNL     1     -13.504   1.425  -1.337  0.00  0.00    -0.080 C 
BRANCH  27  28
ATOM     28  C   UNL     1     -14.924   1.806  -1.763  0.00  0.00    +0.009 C 
BRANCH  28  29
ATOM     29  C   UNL     1     -15.866   0.627  -1.508  0.00  0.00    +0.158 C 
BRANCH  29  30
ATOM     30  O   UNL     1     -17.192   0.983  -1.906  0.00  0.00    -0.377 OA
BRANCH  30  32
ATOM     31  C   UNL     1     -18.764   0.075  -0.311  0.00  0.00    +0.037 C 
ATOM     32  C   UNL     1     -18.155  -0.053  -1.709  0.00  0.00    +0.112 C 
ATOM     33  C   UNL     1     -19.261   0.071  -2.760  0.00  0.00    +0.037 C 
ENDBRANCH  30  32
ENDBRANCH  29  30
ENDBRANCH  28  29
ENDBRANCH  27  28
ENDBRANCH  24  27
ENDBRANCH   1  24
TORSDOF 7
