REMARK  Name = ZINC16434446
REMARK  19 active torsions:
REMARK  status: ('A' for Active; 'I' for Inactive)
REMARK    1  A    between atoms: C_1  and  C_2
REMARK    2  A    between atoms: C_2  and  C_3
REMARK    3  A    between atoms: C_2  and  C_4
REMARK    4  A    between atoms: C_4  and  N_5
REMARK    5  A    between atoms: N_5  and  C_6
REMARK    6  A    between atoms: C_6  and  C_7
REMARK    7  A    between atoms: N_9  and  C_10
REMARK    8  A    between atoms: C_12  and  C_21
REMARK    9  A    between atoms: N_14  and  C_15
REMARK   10  A    between atoms: C_21  and  C_22
REMARK   11  A    between atoms: C_21  and  C_23
REMARK   12  A    between atoms: C_21  and  C_24
REMARK   13  A    between atoms: N_27  and  C_28
REMARK   14  A    between atoms: C_29  and  C_37
REMARK   15  A    between atoms: C_33  and  C_34
REMARK   16  A    between atoms: C_34  and  C_35
REMARK   17  A    between atoms: C_34  and  C_36
REMARK   18  A    between atoms: C_37  and  C_38
REMARK   19  A    between atoms: C_37  and  C_39
REMARK                            x       y       z     vdW  Elec       q    Type
REMARK                         _______ _______ _______ _____ _____    ______ ____
ROOT
ATOM      1  N   UNL     1      -5.148   2.393   2.222  0.00  0.00    -0.276 N 
ATOM      2  C   UNL     1      -4.129   3.235   1.958  0.00  0.00    +0.307 C 
ATOM      3  O   UNL     1      -4.300   4.437   2.025  0.00  0.00    -0.252 OA
ATOM      4  N   UNL     1      -2.920   2.744   1.622  0.00  0.00    -0.269 N 
ATOM      5  H   UNL     1      -2.794   1.786   1.528  0.00  0.00    +0.156 HD
ENDROOT
BRANCH   4   6
ATOM      6  C   UNL     1      -1.845   3.615   1.408  0.00  0.00    +0.042 A 
ATOM      7  C   UNL     1      -1.134   3.562   0.217  0.00  0.00    -0.023 A 
ATOM      8  C   UNL     1      -0.074   4.424   0.009  0.00  0.00    +0.006 A 
ATOM      9  C   UNL     1       0.278   5.337   0.985  0.00  0.00    +0.001 A 
ATOM     10  C   UNL     1      -0.432   5.395   2.170  0.00  0.00    +0.006 A 
ATOM     11  C   UNL     1      -1.489   4.533   2.387  0.00  0.00    -0.023 A 
BRANCH  11  12
ATOM     12  C   UNL     1      -2.259   4.593   3.681  0.00  0.00    +0.015 C 
ATOM     13  C   UNL     1      -1.363   4.125   4.829  0.00  0.00    +0.012 C 
ATOM     14  C   UNL     1      -2.709   6.032   3.939  0.00  0.00    +0.012 C 
ENDBRANCH  11  12
BRANCH   7  15
ATOM     15  C   UNL     1      -1.517   2.567  -0.848  0.00  0.00    +0.015 C 
ATOM     16  C   UNL     1      -1.830   3.309  -2.150  0.00  0.00    +0.012 C 
ATOM     17  C   UNL     1      -0.358   1.596  -1.080  0.00  0.00    +0.012 C 
ENDBRANCH   7  15
ENDBRANCH   4   6
BRANCH   1  18
ATOM     18  C   UNL     1      -4.942   0.945   2.142  0.00  0.00    +0.113 C 
BRANCH  18  20
ATOM     19  C   UNL     1      -5.618   0.612   4.524  0.00  0.00    +0.009 C 
ATOM     20  C   UNL     1      -4.492   0.418   3.506  0.00  0.00    +0.000 C 
ATOM     21  C   UNL     1      -4.157  -1.070   3.393  0.00  0.00    +0.009 C 
ENDBRANCH  18  20
ENDBRANCH   1  18
BRANCH   1  22
ATOM     22  C   UNL     1      -6.462   2.927   2.588  0.00  0.00    +0.205 C 
BRANCH  22  23
ATOM     23  C   UNL     1      -7.286   3.133   1.342  0.00  0.00    +0.236 C 
ATOM     24  O   UNL     1      -6.820   2.860   0.256  0.00  0.00    -0.274 OA
ATOM     25  N   UNL     1      -8.539   3.620   1.436  0.00  0.00    -0.269 N 
ATOM     26  H   UNL     1      -8.911   3.838   2.304  0.00  0.00    +0.156 HD
BRANCH  25  27
ATOM     27  C   UNL     1      -9.301   3.810   0.283  0.00  0.00    +0.129 A 
ATOM     28  C   UNL     1      -8.909   3.548  -0.994  0.00  0.00    +0.069 A 
ATOM     29  C   UNL     1      -9.968   3.878  -1.844  0.00  0.00    +0.071 A 
ATOM     30  N   UNL     1     -10.961   4.322  -1.117  0.00  0.00    -0.169 NA
ATOM     31  N   UNL     1     -10.575   4.286   0.229  0.00  0.00    -0.218 N 
BRANCH  31  32
ATOM     32  C   UNL     1     -11.359   4.673   1.324  0.00  0.00    +0.067 A 
ATOM     33  C   UNL     1     -11.256   3.991   2.530  0.00  0.00    +0.028 A 
ATOM     34  C   UNL     1     -12.025   4.379   3.609  0.00  0.00    +0.002 A 
ATOM     35  C   UNL     1     -12.906   5.438   3.486  0.00  0.00    +0.000 A 
ATOM     36  C   UNL     1     -13.015   6.115   2.286  0.00  0.00    +0.002 A 
ATOM     37  C   UNL     1     -12.244   5.736   1.205  0.00  0.00    +0.028 A 
ENDBRANCH  31  32
BRANCH  29  38
ATOM     38  C   UNL     1      -9.966   3.745  -3.345  0.00  0.00    +0.006 C 
ATOM     39  C   UNL     1     -10.113   2.271  -3.727  0.00  0.00    +0.017 C 
ATOM     40  C   UNL     1     -11.134   4.542  -3.929  0.00  0.00    +0.017 C 
ATOM     41  C   UNL     1      -8.649   4.287  -3.904  0.00  0.00    +0.017 C 
ENDBRANCH  29  38
ENDBRANCH  25  27
ENDBRANCH  22  23
ENDBRANCH   1  22
TORSDOF 10
