REMARK  Name = ZINC37323903
REMARK  5 active torsions:
REMARK  status: ('A' for Active; 'I' for Inactive)
REMARK    1  A    between atoms: C_1  and  C_2
REMARK    2  A    between atoms: C_2  and  C_4
REMARK    3  A    between atoms: C_2  and  N_12
REMARK    4  A    between atoms: N_12  and  C_13
REMARK    5  A    between atoms: CA_17  and  C_19
REMARK                            x       y       z     vdW  Elec       q    Type
REMARK                         _______ _______ _______ _____ _____    ______ ____
ROOT
ATOM      1  N   UNL     1       0.595  -0.479   1.255  0.00  0.00    -0.337 N 
ATOM      2  H   UNL     1       1.548  -0.651   1.306  0.00  0.00    +0.147 HD
ENDROOT
BRANCH   1   3
ATOM      3  C   UNL     1      -0.210  -0.682   2.372  0.00  0.00    +0.031 A 
ATOM      4  C   UNL     1      -1.583  -0.445   2.317  0.00  0.00    +0.040 A 
ATOM      5  C   UNL     1      -2.352  -0.657   3.447  0.00  0.00    +0.085 A 
ATOM      6  N   UNL     1      -1.807  -1.078   4.568  0.00  0.00    -0.355 N 
ATOM      7  CA  UNL     1      -0.504  -1.317   4.668  0.00  0.00    +0.130 A 
ATOM      8  C   UNL     1       0.336  -1.133   3.574  0.00  0.00    +0.056 A 
ATOM      9  H   UNL     1      -2.373  -1.218   5.344  0.00  0.00    +0.166 HD
BRANCH   7  10
ATOM     10  C   UNL     1       0.059  -1.789   5.953  0.00  0.00    +0.402 C 
ATOM     11  O   UNL     1      -0.675  -1.957   6.916  0.00  0.00    -0.239 OA
ATOM     12  OXT UNL     1       1.257  -2.010   6.051  0.00  0.00    -0.239 OA
ENDBRANCH   7  10
ENDBRANCH   1   3
BRANCH   1  14
ATOM     13  C   UNL     1      -0.072   1.524   0.020  0.00  0.00    +0.033 C 
ATOM     14  C   UNL     1       0.002  -0.004   0.002  0.00  0.00    +0.099 C 
BRANCH  14  15
ATOM     15  C   UNL     1       0.854  -0.452  -1.158  0.00  0.00    -0.009 A 
ATOM     16  C   UNL     1       2.206  -0.673  -0.977  0.00  0.00    +0.008 A 
ATOM     17  C   UNL     1       2.988  -1.084  -2.040  0.00  0.00    +0.020 A 
ATOM     18  C   UNL     1       2.417  -1.275  -3.286  0.00  0.00    +0.042 A 
ATOM     19  C   UNL     1       1.063  -1.055  -3.467  0.00  0.00    +0.040 A 
ATOM     20  C   UNL     1       0.281  -0.648  -2.401  0.00  0.00    +0.047 A 
ATOM     21 CL   UNL     1      -1.419  -0.377  -2.627  0.00  0.00    -0.083 Cl
ATOM     22 CL   UNL     1       3.399  -1.791  -4.622  0.00  0.00    -0.083 Cl
ENDBRANCH  14  15
ENDBRANCH   1  14
TORSDOF 4
