REMARK  Name = ZINC21523711
REMARK  7 active torsions:
REMARK  status: ('A' for Active; 'I' for Inactive)
REMARK    1  A    between atoms: C_1  and  C_2
REMARK    2  A    between atoms: C_2  and  O_3
REMARK    3  A    between atoms: O_3  and  C_4
REMARK    4  A    between atoms: C_7  and  C_10
REMARK    5  A    between atoms: C_13  and  C_30
REMARK    6  A    between atoms: C_24  and  C_29
REMARK    7  A    between atoms: C_26  and  C_28
REMARK                            x       y       z     vdW  Elec       q    Type
REMARK                         _______ _______ _______ _____ _____    ______ ____
ROOT
ATOM      1  C   UNL     1      -2.604   2.138   0.086  0.00  0.00    +0.112 C 
ATOM      2  C   UNL     1      -3.224   1.692   1.374  0.00  0.00    +0.038 A 
ATOM      3  C   UNL     1      -2.450   1.471   2.545  0.00  0.00    +0.100 A 
ATOM      4  N   UNL     1      -3.250   1.092   3.509  0.00  0.00    -0.162 NA
ATOM      5  N   UNL     1      -4.550   1.056   3.004  0.00  0.00    -0.183 N 
ATOM      6  C   UNL     1      -4.512   1.432   1.677  0.00  0.00    +0.137 A 
ATOM      7  N   UNL     1      -5.658   1.482   0.922  0.00  0.00    -0.269 N 
ATOM      8  C   UNL     1      -5.942   1.828  -0.298  0.00  0.00    +0.228 C 
ATOM      9  O   UNL     1      -7.125   1.829  -0.566  0.00  0.00    -0.275 OA
ATOM     10  C   UNL     1      -5.052   2.224  -1.410  0.00  0.00    +0.166 C 
ATOM     11  S   UNL     1      -3.661   3.228  -0.871  0.00  0.00    -0.138 S 
ATOM     12  C   UNL     1      -5.692   0.701   3.718  0.00  0.00    +0.253 A 
ATOM     13  N   UNL     1      -6.847   0.600   3.080  0.00  0.00    -0.216 NA
ATOM     14  C   UNL     1      -7.950   0.260   3.726  0.00  0.00    +0.044 A 
ATOM     15  C   UNL     1      -7.887   0.019   5.090  0.00  0.00    +0.046 A 
ATOM     16  C   UNL     1      -6.662   0.138   5.727  0.00  0.00    +0.044 A 
ATOM     17  N   UNL     1      -5.597   0.477   5.019  0.00  0.00    -0.216 NA
ATOM     18  C   UNL     1      -6.544  -0.115   7.208  0.00  0.00    +0.066 C 
ATOM     19  C   UNL     1      -9.260   0.142   2.990  0.00  0.00    +0.066 C 
ATOM     20  H   UNL     1      -6.620   1.176   1.361  0.00  0.00    +0.156 HD
ENDROOT
BRANCH   1  24
ATOM     21  C   UNL     1       1.044   4.188   0.953  0.00  0.00    +0.121 A 
ATOM     22  C   UNL     1       1.036   3.137   0.048  0.00  0.00    +0.046 A 
ATOM     23  C   UNL     1      -0.144   2.473  -0.228  0.00  0.00    +0.008 A 
ATOM     24  C   UNL     1      -1.317   2.860   0.394  0.00  0.00    -0.030 A 
ATOM     25  C   UNL     1      -1.311   3.903   1.301  0.00  0.00    +0.008 A 
ATOM     26  C   UNL     1      -0.134   4.570   1.580  0.00  0.00    +0.046 A 
BRANCH  21  27
ATOM     27  O   UNL     1       2.203   4.843   1.226  0.00  0.00    -0.492 OA
BRANCH  27  29
ATOM     28  C   UNL     1       3.528   6.527   2.344  0.00  0.00    +0.048 C 
ATOM     29  C   UNL     1       2.137   5.915   2.168  0.00  0.00    +0.225 C 
ENDBRANCH  27  29
ENDBRANCH  21  27
ENDBRANCH   1  24
BRANCH   3  30
ATOM     30  C   UNL     1      -0.979   1.639   2.656  0.00  0.00    +0.002 A 
ATOM     31  C   UNL     1      -0.129   0.944   1.798  0.00  0.00    +0.010 A 
ATOM     32  C   UNL     1       1.237   1.109   1.902  0.00  0.00    +0.001 A 
ATOM     33  C   UNL     1       1.764   1.953   2.862  0.00  0.00    +0.000 A 
ATOM     34  C   UNL     1       0.925   2.641   3.721  0.00  0.00    +0.001 A 
ATOM     35  C   UNL     1      -0.444   2.488   3.622  0.00  0.00    +0.010 A 
ENDBRANCH   3  30
TORSDOF 4
