REMARK  Name = ZINC49519681
REMARK  5 active torsions:
REMARK  status: ('A' for Active; 'I' for Inactive)
REMARK    1  A    between atoms: C_1  and  C_2
REMARK    2  A    between atoms: C_2  and  C_3
REMARK    3  A    between atoms: C_2  and  C_4
REMARK    4  A    between atoms: C_8  and  C_9
REMARK    5  A    between atoms: C_15  and  N_18
REMARK                            x       y       z     vdW  Elec       q    Type
REMARK                         _______ _______ _______ _____ _____    ______ ____
ROOT
ATOM      1  C   UNL     1      -1.238  -1.808  -2.214  0.00  0.00    +0.254 C 
ATOM      2  O   UNL     1      -0.115  -1.422  -2.481  0.00  0.00    -0.269 OA
ATOM      3  N   UNL     1      -1.869  -2.667  -3.039  0.00  0.00    -0.295 N 
ATOM      4  C   UNL     1      -3.270  -3.040  -2.801  0.00  0.00    +0.108 C 
ATOM      5  C   UNL     1      -4.074  -2.779  -4.079  0.00  0.00    +0.021 C 
ATOM      6  C   UNL     1      -3.417  -3.514  -5.249  0.00  0.00    +0.025 C 
ATOM      7  C   UNL     1      -1.997  -2.984  -5.455  0.00  0.00    +0.092 C 
ATOM      8  C   UNL     1      -1.171  -3.243  -4.197  0.00  0.00    +0.130 C 
ENDROOT
BRANCH   7   9
ATOM      9  N   UNL     1      -1.380  -3.666  -6.596  0.00  0.00    -0.295 N 
ATOM     10  C   UNL     1      -0.387  -3.067  -7.282  0.00  0.00    +0.297 C 
ATOM     11  O   UNL     1      -0.002  -1.962  -6.955  0.00  0.00    -0.253 OA
ATOM     12  N   UNL     1       0.180  -3.695  -8.332  0.00  0.00    -0.313 N 
ATOM     13  H   UNL     1      -1.687  -4.548  -6.857  0.00  0.00    +0.151 HD
ATOM     14  H   UNL     1      -0.127  -4.577  -8.593  0.00  0.00    +0.146 HD
ATOM     15  H   UNL     1       0.895  -3.264  -8.826  0.00  0.00    +0.146 HD
ENDBRANCH   7   9
BRANCH   1  20
ATOM     16  C   UNL     1      -1.843  -0.092  -0.391  0.00  0.00    -0.026 A 
ATOM     17  C   UNL     1      -2.590   0.054   0.753  0.00  0.00    +0.012 A 
ATOM     18  C   UNL     1      -3.313  -1.000   1.207  0.00  0.00    +0.046 A 
ATOM     19  S   UNL     1      -3.002  -2.221   0.096  0.00  0.00    -0.092 S 
ATOM     20  C   UNL     1      -1.904  -1.338  -0.996  0.00  0.00    +0.077 A 
BRANCH  16  22
ATOM     21  C   UNL     1      -1.924   2.220  -1.286  0.00  0.00    +0.012 C 
ATOM     22  C   UNL     1      -1.015   1.034  -0.957  0.00  0.00    +0.014 C 
ATOM     23  C   UNL     1       0.032   1.464   0.073  0.00  0.00    +0.012 C 
ENDBRANCH  16  22
ENDBRANCH   1  20
TORSDOF 3
