REMARK  Name = ZINC64677857
REMARK  9 active torsions:
REMARK  status: ('A' for Active; 'I' for Inactive)
REMARK    1  A    between atoms: C_1  and  C_2
REMARK    2  A    between atoms: C_2  and  N_3
REMARK    3  A    between atoms: N_3  and  C_4
REMARK    4  A    between atoms: N_3  and  S_6
REMARK    5  A    between atoms: C_4  and  C_5
REMARK    6  A    between atoms: S_6  and  C_9
REMARK    7  A    between atoms: N_14  and  C_16
REMARK    8  A    between atoms: C_16  and  C_17
REMARK    9  A    between atoms: C_22  and  C_25
REMARK                            x       y       z     vdW  Elec       q    Type
REMARK                         _______ _______ _______ _____ _____    ______ ____
ROOT
ATOM      1  C   UNL     1      -6.843   2.308   1.252  0.00  0.00    +0.239 C 
ATOM      2  O   UNL     1      -6.050   2.646   0.399  0.00  0.00    -0.273 OA
ATOM      3  N   UNL     1      -8.166   2.445   1.035  0.00  0.00    -0.263 N 
ATOM      4  C   UNL     1      -8.621   2.973  -0.164  0.00  0.00    +0.165 A 
ATOM      5  N   UNL     1      -9.859   3.187  -0.555  0.00  0.00    -0.225 NA
ATOM      6  C   UNL     1     -10.065   3.712  -1.769  0.00  0.00    +0.079 A 
ATOM      7  C   UNL     1      -8.957   4.004  -2.555  0.00  0.00    +0.076 A 
ATOM      8  S   UNL     1      -7.677   3.542  -1.566  0.00  0.00    -0.060 S 
ATOM      9  H   UNL     1      -8.800   2.174   1.718  0.00  0.00    +0.157 HD
ENDROOT
BRANCH   6  10
ATOM     10  C   UNL     1     -11.372   3.962  -2.238  0.00  0.00    +0.007 C 
ATOM     11  C   UNL     1     -12.567   3.727  -1.564  0.00  0.00    +0.005 A 
ATOM     12  C   UNL     1     -12.853   3.201  -0.284  0.00  0.00    +0.010 A 
ATOM     13  C   UNL     1     -14.142   3.082   0.122  0.00  0.00    +0.001 A 
ATOM     14  C   UNL     1     -15.206   3.469  -0.696  0.00  0.00    +0.002 A 
ATOM     15  C   UNL     1     -15.006   3.981  -1.935  0.00  0.00    +0.026 A 
ATOM     16  C   UNL     1     -13.685   4.135  -2.430  0.00  0.00    +0.043 A 
ATOM     17  N   UNL     1     -13.232   4.599  -3.578  0.00  0.00    -0.380 N 
ATOM     18  C   UNL     1     -11.767   4.546  -3.576  0.00  0.00    +0.151 C 
ATOM     19  H   UNL     1     -13.782   4.927  -4.307  0.00  0.00    +0.160 HD
ENDBRANCH   6  10
BRANCH   1  20
ATOM     20  C   UNL     1      -6.348   1.734   2.555  0.00  0.00    +0.220 C 
BRANCH  20  26
ATOM     21  C   UNL     1      -2.898   0.520   2.058  0.00  0.00    +0.122 A 
ATOM     22  C   UNL     1      -2.139   1.602   2.525  0.00  0.00    +0.035 A 
ATOM     23  C   UNL     1      -2.778   2.712   2.995  0.00  0.00    +0.072 A 
ATOM     24  C   UNL     1      -4.183   2.745   3.001  0.00  0.00    +0.252 A 
ATOM     25  O   UNL     1      -4.768   3.732   3.418  0.00  0.00    -0.268 OA
ATOM     26  N   UNL     1      -4.884   1.690   2.545  0.00  0.00    -0.305 N 
ATOM     27  C   UNL     1      -4.249   0.587   2.071  0.00  0.00    +0.118 A 
BRANCH  21  28
ATOM     28  S   UNL     1      -2.092  -0.923   1.446  0.00  0.00    +0.062 S 
ATOM     29  O   UNL     1      -3.116  -1.857   1.133  0.00  0.00    -0.153 OA
ATOM     30  O   UNL     1      -1.043  -1.219   2.357  0.00  0.00    -0.153 OA
BRANCH  28  31
ATOM     31  N   UNL     1      -1.372  -0.511   0.012  0.00  0.00    -0.177 NA
BRANCH  31  33
ATOM     32  C   UNL     1      -0.019   1.526   0.010  0.00  0.00    +0.022 C 
ATOM     33  C   UNL     1       0.002  -0.004   0.002  0.00  0.00    +0.106 C 
ENDBRANCH  31  33
BRANCH  31  34
ATOM     34  C   UNL     1      -2.110  -0.654  -1.245  0.00  0.00    +0.106 C 
ATOM     35  C   UNL     1      -1.773  -2.003  -1.884  0.00  0.00    +0.022 C 
ENDBRANCH  31  34
ENDBRANCH  28  31
ENDBRANCH  21  28
ENDBRANCH  20  26
ENDBRANCH   1  20
TORSDOF 7
