REMARK  Name = ZINC06601387
REMARK  16 active torsions:
REMARK  status: ('A' for Active; 'I' for Inactive)
REMARK    1  A    between atoms: C_1  and  C_2
REMARK    2  A    between atoms: C_2  and  O_3
REMARK    3  A    between atoms: O_3  and  C_4
REMARK    4  A    between atoms: C_7  and  C_10
REMARK    5  A    between atoms: C_10  and  C_12
REMARK    6  A    between atoms: C_10  and  N_20
REMARK    7  A    between atoms: N_14  and  C_15
REMARK    8  A    between atoms: C_15  and  C_16
REMARK    9  A    between atoms: C_16  and  C_17
REMARK   10  A    between atoms: C_17  and  C_18
REMARK   11  A    between atoms: C_17  and  C_19
REMARK   12  A    between atoms: N_20  and  C_21
REMARK   13  A    between atoms: C_21  and  C_22
REMARK   14  A    between atoms: C_27  and  C_29
REMARK   15  A    between atoms: C_30  and  N_37
REMARK   16  A    between atoms: C_31  and  C_34
REMARK                            x       y       z     vdW  Elec       q    Type
REMARK                         _______ _______ _______ _____ _____    ______ ____
ROOT
ATOM      1  N   UNL     1      -4.373   2.147   0.213  0.00  0.00    -0.277 N 
ATOM      2  C   UNL     1      -5.675   2.454   0.382  0.00  0.00    +0.258 C 
ATOM      3  O   UNL     1      -6.514   1.573   0.371  0.00  0.00    -0.269 OA
ENDROOT
BRANCH   2   4
ATOM      4  C   UNL     1      -6.079   3.848   0.579  0.00  0.00    +0.115 A 
ATOM      5  C   UNL     1      -7.335   4.369   0.893  0.00  0.00    +0.076 A 
ATOM      6  C   UNL     1      -7.325   5.760   1.000  0.00  0.00    +0.155 A 
ATOM      7  N   UNL     1      -6.200   6.411   0.806  0.00  0.00    -0.203 NA
ATOM      8  S   UNL     1      -5.097   5.331   0.490  0.00  0.00    +0.019 S 
BRANCH   6   9
ATOM      9  C   UNL     1      -8.563   6.491   1.326  0.00  0.00    +0.262 C 
ATOM     10  O   UNL     1      -9.601   5.881   1.503  0.00  0.00    -0.269 OA
ATOM     11  N   UNL     1      -8.546   7.835   1.427  0.00  0.00    -0.324 N 
ATOM     12  H   UNL     1      -7.718   8.321   1.286  0.00  0.00    +0.145 HD
ATOM     13  H   UNL     1      -9.360   8.316   1.642  0.00  0.00    +0.145 HD
ENDBRANCH   6   9
BRANCH   5  14
ATOM     14  N   UNL     1      -8.469   3.589   1.078  0.00  0.00    -0.355 N 
ATOM     15  H   UNL     1      -8.415   2.625   0.990  0.00  0.00    +0.142 HD
ATOM     16  H   UNL     1      -9.316   4.009   1.295  0.00  0.00    +0.142 HD
ENDBRANCH   5  14
ENDBRANCH   2   4
BRANCH   1  17
ATOM     17  C   UNL     1      -3.978   0.766  -0.072  0.00  0.00    +0.193 C 
BRANCH  17  21
ATOM     18  C   UNL     1      -3.338   0.306  -4.272  0.00  0.00    +0.121 A 
ATOM     19  C   UNL     1      -4.078  -0.637  -3.575  0.00  0.00    +0.046 A 
ATOM     20  C   UNL     1      -4.283  -0.487  -2.217  0.00  0.00    +0.009 A 
ATOM     21  C   UNL     1      -3.752   0.604  -1.553  0.00  0.00    -0.018 A 
ATOM     22  C   UNL     1      -3.018   1.548  -2.247  0.00  0.00    +0.009 A 
ATOM     23  C   UNL     1      -2.805   1.399  -3.603  0.00  0.00    +0.046 A 
BRANCH  18  24
ATOM     24  O   UNL     1      -3.135   0.160  -5.608  0.00  0.00    -0.492 OA
BRANCH  24  26
ATOM     25  C   UNL     1      -2.243   0.837  -7.749  0.00  0.00    +0.048 C 
ATOM     26  C   UNL     1      -2.363   1.170  -6.261  0.00  0.00    +0.225 C 
ENDBRANCH  24  26
ENDBRANCH  18  24
ENDBRANCH  17  21
BRANCH  17  27
ATOM     27  C   UNL     1      -2.705   0.445   0.668  0.00  0.00    +0.238 C 
ATOM     28  O   UNL     1      -1.830   1.280   0.761  0.00  0.00    -0.273 OA
ATOM     29  N   UNL     1      -2.538  -0.770   1.227  0.00  0.00    -0.313 N 
ATOM     30  H   UNL     1      -3.238  -1.438   1.153  0.00  0.00    +0.149 HD
BRANCH  29  31
ATOM     31  C   UNL     1      -1.298  -1.084   1.942  0.00  0.00    +0.104 C 
BRANCH  31  32
ATOM     32  C   UNL     1      -1.363  -2.519   2.469  0.00  0.00    +0.022 C 
BRANCH  32  33
ATOM     33  C   UNL     1      -0.068  -2.847   3.215  0.00  0.00    -0.016 C 
ATOM     34  C   UNL     1       0.041  -1.963   4.459  0.00  0.00    +0.007 C 
ATOM     35  C   UNL     1      -0.080  -4.318   3.635  0.00  0.00    +0.007 C 
ENDBRANCH  32  33
ENDBRANCH  31  32
ENDBRANCH  29  31
ENDBRANCH  17  27
ENDBRANCH   1  17
BRANCH   1  36
ATOM     36  C   UNL     1      -3.354   3.195   0.316  0.00  0.00    +0.151 C 
BRANCH  36  37
ATOM     37  C   UNL     1      -3.017   3.428   1.766  0.00  0.00    +0.007 A 
ATOM     38  C   UNL     1      -1.800   3.477   2.362  0.00  0.00    +0.013 A 
ATOM     39  C   UNL     1      -1.730   3.707   3.723  0.00  0.00    +0.008 A 
ATOM     40  C   UNL     1      -2.879   3.876   4.421  0.00  0.00    +0.045 A 
ATOM     41  S   UNL     1      -4.115   3.718   3.143  0.00  0.00    -0.100 S 
ENDBRANCH  36  37
ENDBRANCH   1  36
TORSDOF 13
