REMARK  Name = ZINC39630742
REMARK  11 active torsions:
REMARK  status: ('A' for Active; 'I' for Inactive)
REMARK    1  A    between atoms: C_1  and  C_2
REMARK    2  A    between atoms: C_2  and  C_3
REMARK    3  A    between atoms: C_2  and  C_4
REMARK    4  A    between atoms: C_2  and  C_29
REMARK    5  A    between atoms: C_4  and  N_5
REMARK    6  A    between atoms: C_6  and  C_8
REMARK    7  A    between atoms: C_19  and  C_21
REMARK    8  A    between atoms: C_21  and  C_22
REMARK    9  A    between atoms: C_29  and  N_30
REMARK   10  A    between atoms: N_30  and  C_31
REMARK   11  A    between atoms: N_30  and  C_32
REMARK                            x       y       z     vdW  Elec       q    Type
REMARK                         _______ _______ _______ _____ _____    ______ ____
ROOT
ATOM      1  C   UNL     1      -6.268   0.208   1.333  0.00  0.00    +0.100 C 
ATOM      2  C   UNL     1      -6.114   0.083   2.866  0.00  0.00    +0.121 C 
ATOM      3  N   UNL     1      -7.457  -0.319   3.346  0.00  0.00    -0.300 N 
ATOM      4  C   UNL     1      -7.940  -1.280   2.326  0.00  0.00    +0.115 C 
ATOM      5  C   UNL     1      -7.468  -0.689   0.983  0.00  0.00    -0.004 C 
ATOM      6  C   UNL     1      -7.034  -1.806   0.039  0.00  0.00    -0.010 C 
ATOM      7  C   UNL     1      -8.255  -2.649  -0.341  0.00  0.00    -0.082 C 
ATOM      8  N   UNL     1      -9.258  -1.796  -0.988  0.00  0.00    +0.379 N 
ATOM      9  C   UNL     1      -9.738  -0.781  -0.043  0.00  0.00    -0.082 C 
ATOM     10  C   UNL     1      -8.580   0.141   0.350  0.00  0.00    -0.010 C 
ATOM     11  C   UNL     1      -8.094   0.096   4.459  0.00  0.00    +0.220 C 
ATOM     12  O   UNL     1      -9.200  -0.329   4.718  0.00  0.00    -0.275 OA
ATOM     13  H   UNL     1      -8.845  -1.340  -1.788  0.00  0.00    -0.086 HD
ATOM     14  H   UNL     1     -10.035  -2.364  -1.292  0.00  0.00    -0.086 HD
ENDROOT
BRANCH   1  16
ATOM     15  N   UNL     1      -4.659   0.247  -0.545  0.00  0.00    -0.315 N 
ATOM     16  C   UNL     1      -5.024  -0.284   0.639  0.00  0.00    +0.218 C 
ATOM     17  O   UNL     1      -4.353  -1.158   1.145  0.00  0.00    -0.275 OA
ATOM     18  H   UNL     1      -5.196   0.945  -0.950  0.00  0.00    +0.149 HD
BRANCH  15  19
ATOM     19  C   UNL     1      -3.450  -0.232  -1.220  0.00  0.00    +0.108 C 
BRANCH  19  21
ATOM     20  C   UNL     1      -4.479   0.295  -3.435  0.00  0.00    +0.010 C 
ATOM     21  C   UNL     1      -3.264   0.530  -2.534  0.00  0.00    -0.034 C 
ATOM     22  C   UNL     1      -3.127   2.025  -2.242  0.00  0.00    +0.010 C 
BRANCH  21  23
ATOM     23  C   UNL     1      -2.002   0.030  -3.239  0.00  0.00    -0.072 C 
BRANCH  23  24
ATOM     24  N   UNL     1      -1.773   0.824  -4.454  0.00  0.00    +0.376 N 
ATOM     25  C   UNL     1      -1.001   2.027  -4.114  0.00  0.00    -0.097 C 
ATOM     26  C   UNL     1      -1.024   0.021  -5.429  0.00  0.00    -0.097 C 
ATOM     27  H   UNL     1      -2.660   1.094  -4.851  0.00  0.00    -0.083 HD
ENDBRANCH  23  24
ENDBRANCH  21  23
ENDBRANCH  19  21
ENDBRANCH  15  19
ENDBRANCH   1  16
BRANCH  11  28
ATOM     28  C   UNL     1      -7.433   1.088   5.380  0.00  0.00    +0.131 C 
BRANCH  28  29
ATOM     29  C   UNL     1      -8.349   1.384   6.540  0.00  0.00    -0.039 A 
ATOM     30  C   UNL     1      -9.264   2.417   6.452  0.00  0.00    +0.005 A 
ATOM     31  C   UNL     1     -10.104   2.689   7.516  0.00  0.00    +0.020 A 
ATOM     32  C   UNL     1     -10.030   1.927   8.668  0.00  0.00    +0.041 A 
ATOM     33  C   UNL     1      -9.114   0.893   8.755  0.00  0.00    +0.020 A 
ATOM     34  C   UNL     1      -8.278   0.619   7.689  0.00  0.00    +0.005 A 
ATOM     35 CL   UNL     1     -11.084   2.268  10.004  0.00  0.00    -0.084 Cl
ENDBRANCH  28  29
ENDBRANCH  11  28
TORSDOF 7
