REMARK  Name = ZINC34750218
REMARK  9 active torsions:
REMARK  status: ('A' for Active; 'I' for Inactive)
REMARK    1  A    between atoms: C_1  and  C_2
REMARK    2  A    between atoms: C_2  and  C_3
REMARK    3  A    between atoms: C_2  and  C_4
REMARK    4  A    between atoms: C_4  and  N_5
REMARK    5  A    between atoms: C_18  and  S_20
REMARK    6  A    between atoms: S_20  and  C_21
REMARK    7  A    between atoms: C_21  and  C_22
REMARK    8  A    between atoms: C_32  and  C_34
REMARK    9  A    between atoms: C_32  and  C_35
REMARK                            x       y       z     vdW  Elec       q    Type
REMARK                         _______ _______ _______ _____ _____    ______ ____
ROOT
ATOM      1  N   UNL     1      -0.223  -2.643  -0.186  0.00  0.00    +0.382 N 
ATOM      2  C   UNL     1       0.100  -4.075  -0.155  0.00  0.00    -0.060 C 
ATOM      3  C   UNL     1      -1.198  -4.889  -0.096  0.00  0.00    +0.088 C 
ATOM      4  N   UNL     1      -2.054  -4.483  -1.222  0.00  0.00    -0.318 N 
ATOM      5  C   UNL     1      -2.297  -3.047  -1.425  0.00  0.00    +0.088 C 
ATOM      6  C   UNL     1      -0.948  -2.320  -1.421  0.00  0.00    -0.060 C 
ATOM      7  C   UNL     1      -2.614  -5.426  -2.065  0.00  0.00    +0.134 A 
ATOM      8  C   UNL     1      -3.837  -6.066  -1.717  0.00  0.00    +0.051 A 
ATOM      9  C   UNL     1      -4.662  -5.880  -0.525  0.00  0.00    -0.020 A 
ATOM     10  C   UNL     1      -5.788  -6.619  -0.436  0.00  0.00    +0.021 A 
ATOM     11  S   UNL     1      -5.820  -7.593  -1.913  0.00  0.00    -0.071 S 
ATOM     12  C   UNL     1      -4.316  -7.007  -2.651  0.00  0.00    +0.115 A 
ATOM     13  N   UNL     1      -3.662  -7.268  -3.767  0.00  0.00    -0.214 NA
ATOM     14  C   UNL     1      -2.526  -6.641  -4.038  0.00  0.00    +0.191 A 
ATOM     15  N   UNL     1      -2.022  -5.738  -3.205  0.00  0.00    -0.206 NA
ATOM     16  C   UNL     1      -6.777  -6.595   0.689  0.00  0.00    +0.203 C 
ATOM     17  O   UNL     1      -6.173  -5.903   1.793  0.00  0.00    -0.368 OA
ATOM     18  C   UNL     1      -5.574  -4.658   1.425  0.00  0.00    +0.068 C 
ATOM     19  C   UNL     1      -4.309  -4.906   0.597  0.00  0.00    +0.071 C 
ATOM     20  C   UNL     1      -6.568  -3.840   0.599  0.00  0.00    +0.041 C 
ATOM     21  C   UNL     1      -5.207  -3.878   2.689  0.00  0.00    +0.041 C 
ATOM     22  H   UNL     1      -0.798  -2.413   0.610  0.00  0.00    -0.082 HD
ENDROOT
BRANCH   1  23
ATOM     23  C   UNL     1       1.020  -1.862  -0.132  0.00  0.00    -0.076 C 
BRANCH  23  25
ATOM     24  C   UNL     1       3.069  -1.389   1.218  0.00  0.00    +0.005 C 
ATOM     25  C   UNL     1       1.715  -2.102   1.210  0.00  0.00    -0.034 C 
ATOM     26  C   UNL     1       0.843  -1.555   2.341  0.00  0.00    +0.005 C 
ENDBRANCH  23  25
ENDBRANCH   1  23
BRANCH  14  27
ATOM     27  S   UNL     1      -1.672  -7.008  -5.535  0.00  0.00    -0.077 S 
BRANCH  27  28
ATOM     28  C   UNL     1      -2.711  -8.261  -6.337  0.00  0.00    +0.173 C 
BRANCH  28  29
ATOM     29  C   UNL     1      -2.086  -8.668  -7.647  0.00  0.00    +0.226 C 
ATOM     30  O   UNL     1      -1.043  -8.162  -8.004  0.00  0.00    -0.275 OA
ATOM     31  N   UNL     1      -2.687  -9.593  -8.421  0.00  0.00    -0.296 N 
ATOM     32  C   UNL     1      -3.956 -10.215  -8.011  0.00  0.00    +0.136 C 
ATOM     33  C   UNL     1      -4.943 -10.114  -9.179  0.00  0.00    +0.179 C 
ATOM     34  O   UNL     1      -4.331 -10.638 -10.360  0.00  0.00    -0.377 OA
ATOM     35  C   UNL     1      -3.171  -9.919 -10.787  0.00  0.00    +0.179 C 
ATOM     36  C   UNL     1      -2.096 -10.006  -9.704  0.00  0.00    +0.136 C 
ENDBRANCH  28  29
ENDBRANCH  27  28
ENDBRANCH  14  27
TORSDOF 5
