REMARK  Name = ZINC63472728
REMARK  3 active torsions:
REMARK  status: ('A' for Active; 'I' for Inactive)
REMARK    1  A    between atoms: C_7  and  C_10
REMARK    2  A    between atoms: C_10  and  C_11
REMARK    3  A    between atoms: N_19  and  C_22
REMARK                            x       y       z     vdW  Elec       q    Type
REMARK                         _______ _______ _______ _____ _____    ______ ____
ROOT
ATOM      1  C   UNL     1       0.457  -3.653  -1.462  0.00  0.00    +0.072 C 
ATOM      2  C   UNL     1      -0.435  -4.913  -1.478  0.00  0.00    +0.107 C 
ATOM      3  C   UNL     1      -1.353  -4.736  -2.720  0.00  0.00    +0.122 C 
ATOM      4  C   UNL     1      -2.734  -4.611  -2.117  0.00  0.00    +0.228 C 
ATOM      5  O   UNL     1      -3.761  -4.465  -2.744  0.00  0.00    -0.275 OA
ATOM      6  N   UNL     1      -2.646  -4.688  -0.784  0.00  0.00    -0.238 N 
ATOM      7  C   UNL     1      -1.392  -4.863  -0.308  0.00  0.00    +0.227 C 
ATOM      8  O   UNL     1      -1.077  -4.963   0.858  0.00  0.00    -0.275 OA
ATOM      9  C   UNL     1      -0.920  -3.398  -3.332  0.00  0.00    +0.136 C 
ATOM     10  N   UNL     1      -0.310  -2.630  -2.221  0.00  0.00    -0.295 NA
ATOM     11  C   UNL     1      -2.087  -2.658  -3.922  0.00  0.00    +0.006 A 
ATOM     12  C   UNL     1      -3.271  -2.185  -3.402  0.00  0.00    +0.046 A 
ATOM     13  C   UNL     1      -4.172  -1.522  -4.220  0.00  0.00    +0.124 A 
ATOM     14  C   UNL     1      -3.877  -1.338  -5.560  0.00  0.00    +0.040 A 
ATOM     15  C   UNL     1      -2.692  -1.811  -6.084  0.00  0.00    +0.026 A 
ATOM     16  C   UNL     1      -1.781  -2.478  -5.268  0.00  0.00    +0.039 A 
ATOM     17  N   UNL     1      -0.534  -3.039  -5.560  0.00  0.00    -0.283 N 
ATOM     18  C   UNL     1       0.036  -3.599  -4.476  0.00  0.00    +0.243 C 
ATOM     19  O   UNL     1       1.112  -4.157  -4.430  0.00  0.00    -0.273 OA
ATOM     20  F   UNL     1      -5.334  -1.057  -3.711  0.00  0.00    -0.205 F 
ATOM     21  H   UNL     1      -1.013  -2.199  -1.638  0.00  0.00    +0.124 HD
ATOM     22  H   UNL     1      -0.128  -3.027  -6.440  0.00  0.00    +0.155 HD
ENDROOT
BRANCH   6  23
ATOM     23  C   UNL     1      -3.815  -4.596   0.093  0.00  0.00    +0.084 C 
ATOM     24  C   UNL     1      -3.652  -3.403   1.037  0.00  0.00    +0.023 C 
ATOM     25  C   UNL     1      -4.873  -3.307   1.954  0.00  0.00    +0.002 C 
ATOM     26  C   UNL     1      -4.998  -4.592   2.774  0.00  0.00    +0.000 C 
ATOM     27  C   UNL     1      -5.161  -5.785   1.830  0.00  0.00    +0.002 C 
ATOM     28  C   UNL     1      -3.940  -5.881   0.914  0.00  0.00    +0.023 C 
ENDBRANCH   6  23
BRANCH   1  29
ATOM     29  C   UNL     1       0.691  -3.186  -0.024  0.00  0.00    +0.052 C 
BRANCH  29  36
ATOM     30  C   UNL     1      -0.016   1.348   0.009  0.00  0.00    +0.001 A 
ATOM     31  C   UNL     1       1.166   2.101   0.002  0.00  0.00    +0.002 A 
ATOM     32  C   UNL     1       2.391   1.535  -0.013  0.00  0.00    +0.026 A 
ATOM     33  C   UNL     1       2.529   0.120  -0.022  0.00  0.00    +0.043 A 
ATOM     34  N   UNL     1       3.587  -0.654  -0.037  0.00  0.00    -0.380 N 
ATOM     35  C   UNL     1       3.143  -2.053  -0.041  0.00  0.00    +0.144 C 
ATOM     36  C   UNL     1       1.631  -2.008  -0.025  0.00  0.00    -0.040 C 
ATOM     37  C   UNL     1       1.295  -0.698  -0.014  0.00  0.00    -0.001 A 
ATOM     38  C   UNL     1       0.002  -0.004   0.002  0.00  0.00    +0.010 A 
ATOM     39  H   UNL     1       4.509  -0.353  -0.045  0.00  0.00    +0.160 HD
ENDBRANCH  29  36
ENDBRANCH   1  29
TORSDOF 3
