REMARK  Name = ZINC34773331
REMARK  6 active torsions:
REMARK  status: ('A' for Active; 'I' for Inactive)
REMARK    1  A    between atoms: C_1  and  C_2
REMARK    2  A    between atoms: C_7  and  N_8
REMARK    3  A    between atoms: N_11  and  C_12
REMARK    4  A    between atoms: C_16  and  C_17
REMARK    5  A    between atoms: C_17  and  O_19
REMARK    6  A    between atoms: O_19  and  C_20
REMARK                            x       y       z     vdW  Elec       q    Type
REMARK                         _______ _______ _______ _____ _____    ______ ____
ROOT
ATOM      1  N   UNL     1       1.574   1.950   3.792  0.00  0.00    -0.269 N 
ATOM      2  C   UNL     1       1.408   1.191   4.893  0.00  0.00    +0.308 C 
ATOM      3  O   UNL     1       1.901   1.536   5.950  0.00  0.00    -0.252 OA
ATOM      4  N   UNL     1       0.695   0.049   4.823  0.00  0.00    -0.268 N 
ATOM      5  H   UNL     1       1.129   1.709   2.965  0.00  0.00    +0.156 HD
ATOM      6  H   UNL     1       0.337  -0.247   3.972  0.00  0.00    +0.156 HD
ENDROOT
BRANCH   4   7
ATOM      7  C   UNL     1       0.472  -0.705   5.975  0.00  0.00    +0.059 A 
ATOM      8  C   UNL     1       0.107  -0.112   7.181  0.00  0.00    -0.015 A 
ATOM      9  C   UNL     1      -0.084  -0.946   8.241  0.00  0.00    -0.004 A 
ATOM     10  S   UNL     1       0.206  -2.489   7.671  0.00  0.00    -0.085 S 
ATOM     11  C   UNL     1       0.596  -2.091   5.977  0.00  0.00    +0.118 A 
ATOM     12  C   UNL     1      -0.476  -0.551   9.634  0.00  0.00    +0.043 C 
ATOM     13  C   UNL     1      -0.263   0.961   9.789  0.00  0.00    +0.005 C 
ATOM     14  C   UNL     1      -0.896   1.673   8.589  0.00  0.00    +0.005 C 
ATOM     15  C   UNL     1      -0.074   1.397   7.330  0.00  0.00    +0.038 C 
BRANCH  11  16
ATOM     16  C   UNL     1       0.944  -2.958   4.915  0.00  0.00    +0.347 C 
ATOM     17  O   UNL     1       1.076  -2.517   3.788  0.00  0.00    -0.244 OA
BRANCH  16  18
ATOM     18  O   UNL     1       1.128  -4.274   5.150  0.00  0.00    -0.464 OA
ATOM     19  C   UNL     1       1.478  -5.091   4.031  0.00  0.00    +0.280 C 
ENDBRANCH  16  18
ENDBRANCH  11  16
ENDBRANCH   4   7
BRANCH   1  26
ATOM     20  C   UNL     1       2.908   2.754   1.410  0.00  0.00    +0.045 C 
ATOM     21  C   UNL     1       3.058   3.514   2.703  0.00  0.00    -0.029 A 
ATOM     22  C   UNL     1       3.858   4.639   2.755  0.00  0.00    +0.005 A 
ATOM     23  C   UNL     1       3.997   5.337   3.940  0.00  0.00    +0.000 A 
ATOM     24  C   UNL     1       3.336   4.910   5.078  0.00  0.00    +0.002 A 
ATOM     25  C   UNL     1       2.536   3.786   5.033  0.00  0.00    +0.023 A 
ATOM     26  C   UNL     1       2.389   3.087   3.842  0.00  0.00    +0.038 A 
ENDBRANCH   1  26
TORSDOF 4
