REMARK  Name = ZINC13501889
REMARK  12 active torsions:
REMARK  status: ('A' for Active; 'I' for Inactive)
REMARK    1  A    between atoms: C_1  and  C_2
REMARK    2  A    between atoms: C_5  and  C_8
REMARK    3  A    between atoms: C_8  and  C_10
REMARK    4  A    between atoms: C_8  and  N_17
REMARK    5  A    between atoms: N_12  and  C_13
REMARK    6  A    between atoms: C_13  and  C_14
REMARK    7  A    between atoms: C_14  and  O_15
REMARK    8  A    between atoms: O_15  and  C_16
REMARK    9  A    between atoms: N_17  and  C_18
REMARK   10  A    between atoms: C_24  and  C_26
REMARK   11  A    between atoms: C_26  and  C_27
REMARK   12  A    between atoms: C_27  and  C_28
REMARK                            x       y       z     vdW  Elec       q    Type
REMARK                         _______ _______ _______ _____ _____    ______ ____
ROOT
ATOM      1  N   UNL     1      -3.507   1.537  -1.262  0.00  0.00    -0.283 N 
ATOM      2  C   UNL     1      -4.107   0.554  -1.962  0.00  0.00    +0.217 C 
ATOM      3  O   UNL     1      -3.705  -0.586  -1.873  0.00  0.00    -0.276 OA
ENDROOT
BRANCH   1   4
ATOM      4  C   UNL     1      -3.926   2.929  -1.446  0.00  0.00    +0.077 C 
ATOM      5  C   UNL     1      -2.969   3.854  -0.691  0.00  0.00    +0.022 C 
ATOM      6  C   UNL     1      -3.407   5.307  -0.884  0.00  0.00    +0.002 C 
ATOM      7  C   UNL     1      -4.826   5.489  -0.341  0.00  0.00    +0.000 C 
ATOM      8  C   UNL     1      -5.783   4.564  -1.097  0.00  0.00    +0.002 C 
ATOM      9  C   UNL     1      -5.345   3.110  -0.904  0.00  0.00    +0.022 C 
ENDBRANCH   1   4
BRANCH   1  10
ATOM     10  C   UNL     1      -2.436   1.214  -0.317  0.00  0.00    +0.192 C 
BRANCH  10  15
ATOM     11  C   UNL     1       2.337   4.138  -1.755  0.00  0.00    +0.044 C 
ATOM     12  C   UNL     1       1.094   3.373  -1.379  0.00  0.00    -0.050 A 
ATOM     13  C   UNL     1       0.364   2.719  -2.354  0.00  0.00    +0.004 A 
ATOM     14  C   UNL     1      -0.776   2.017  -2.010  0.00  0.00    +0.006 A 
ATOM     15  C   UNL     1      -1.189   1.974  -0.691  0.00  0.00    -0.018 A 
ATOM     16  C   UNL     1      -0.456   2.623   0.284  0.00  0.00    +0.006 A 
ATOM     17  C   UNL     1       0.684   3.325  -0.060  0.00  0.00    +0.004 A 
ENDBRANCH  10  15
BRANCH  10  18
ATOM     18  C   UNL     1      -2.860   1.601   1.076  0.00  0.00    +0.238 C 
ATOM     19  O   UNL     1      -3.902   2.198   1.248  0.00  0.00    -0.273 OA
ATOM     20  N   UNL     1      -2.083   1.286   2.131  0.00  0.00    -0.311 N 
ATOM     21  H   UNL     1      -1.249   0.809   1.993  0.00  0.00    +0.149 HD
BRANCH  20  22
ATOM     22  C   UNL     1      -2.496   1.662   3.485  0.00  0.00    +0.132 C 
BRANCH  22  23
ATOM     23  C   UNL     1      -1.443   1.189   4.489  0.00  0.00    +0.178 C 
BRANCH  23  24
ATOM     24  O   UNL     1      -0.218   1.887   4.260  0.00  0.00    -0.381 OA
ATOM     25  C   UNL     1       0.837   1.517   5.150  0.00  0.00    +0.194 C 
ENDBRANCH  23  24
ENDBRANCH  22  23
ENDBRANCH  20  22
ENDBRANCH  10  18
ENDBRANCH   1  10
BRANCH   2  26
ATOM     26  C   UNL     1      -5.279   0.873  -2.855  0.00  0.00    +0.105 C 
BRANCH  26  27
ATOM     27  C   UNL     1      -5.649  -0.367  -3.671  0.00  0.00    +0.105 C 
BRANCH  27  28
ATOM     28  C   UNL     1      -6.821  -0.049  -4.564  0.00  0.00    +0.219 C 
ATOM     29  O   UNL     1      -7.311   1.061  -4.550  0.00  0.00    -0.275 OA
ATOM     30  N   UNL     1      -7.324  -0.997  -5.380  0.00  0.00    -0.265 N 
ATOM     31  C   UNL     1      -8.404  -0.703  -6.204  0.00  0.00    +0.164 A 
ATOM     32  N   UNL     1      -9.070   0.429  -6.325  0.00  0.00    -0.233 NA
ATOM     33  C   UNL     1     -10.079   0.541  -7.167  0.00  0.00    +0.120 A 
ATOM     34  C   UNL     1     -10.430  -0.542  -7.903  0.00  0.00    +0.068 A 
ATOM     35  S   UNL     1      -9.228  -1.735  -7.331  0.00  0.00    -0.061 S 
ATOM     36  H   UNL     1      -6.932  -1.884  -5.391  0.00  0.00    +0.157 HD
ENDBRANCH  27  28
ENDBRANCH  26  27
ENDBRANCH   2  26
TORSDOF 10
