REMARK  Name = ZINC05299811
REMARK  3 active torsions:
REMARK  status: ('A' for Active; 'I' for Inactive)
REMARK    1  A    between atoms: C_1  and  C_2
REMARK    2  A    between atoms: C_5  and  C_23
REMARK    3  A    between atoms: N_12  and  C_13
REMARK                            x       y       z     vdW  Elec       q    Type
REMARK                         _______ _______ _______ _____ _____    ______ ____
ROOT
ATOM      1  C   UNL     1       1.039   3.757   2.357  0.00  0.00    +0.009 C 
ATOM      2  C   UNL     1       1.691   4.131   1.025  0.00  0.00    +0.004 C 
ATOM      3  C   UNL     1       3.141   3.643   1.011  0.00  0.00    +0.009 C 
ATOM      4  C   UNL     1       3.173   2.128   1.218  0.00  0.00    +0.004 C 
ATOM      5  C   UNL     1       2.422   1.443   0.072  0.00  0.00    +0.112 C 
ATOM      6  N   UNL     1       1.070   2.012  -0.013  0.00  0.00    -0.285 N 
ATOM      7  C   UNL     1       0.922   3.469  -0.129  0.00  0.00    +0.112 C 
ATOM      8  C   UNL     1      -0.014   1.212   0.009  0.00  0.00    +0.307 C 
ATOM      9  O   UNL     1      -1.129   1.698   0.033  0.00  0.00    -0.252 OA
ATOM     10  N   UNL     1       0.136  -0.127   0.009  0.00  0.00    -0.267 N 
ATOM     11  C   UNL     1       4.625   1.645   1.237  0.00  0.00    +0.009 C 
ATOM     12  H   UNL     1       1.024  -0.516   0.065  0.00  0.00    +0.156 HD
ENDROOT
BRANCH  10  13
ATOM     13  C   UNL     1      -0.994  -0.963  -0.071  0.00  0.00    +0.060 A 
ATOM     14  C   UNL     1      -2.278  -0.568  -0.154  0.00  0.00    +0.107 A 
ATOM     15  N   UNL     1      -3.100  -1.667  -0.215  0.00  0.00    -0.359 N 
ATOM     16  H   UNL     1      -4.067  -1.637  -0.279  0.00  0.00    +0.165 HD
ATOM     17  C   UNL     1      -2.345  -2.818  -0.173  0.00  0.00    +0.048 A 
ATOM     18  C   UNL     1      -0.995  -2.430  -0.088  0.00  0.00    +0.021 A 
ATOM     19  C   UNL     1       0.005  -3.401  -0.021  0.00  0.00    +0.012 A 
ATOM     20  C   UNL     1      -0.331  -4.725  -0.053  0.00  0.00    +0.001 A 
ATOM     21  C   UNL     1      -1.660  -5.114  -0.144  0.00  0.00    +0.002 A 
ATOM     22  C   UNL     1      -2.664  -4.172  -0.203  0.00  0.00    +0.026 A 
ENDBRANCH  10  13
TORSDOF 1
