REMARK  Name = ZINC20563793
REMARK  11 active torsions:
REMARK  status: ('A' for Active; 'I' for Inactive)
REMARK    1  A    between atoms: C_1  and  C_2
REMARK    2  A    between atoms: C_2  and  C_3
REMARK    3  A    between atoms: C_3  and  C_5
REMARK    4  A    between atoms: C_3  and  N_16
REMARK    5  A    between atoms: N_7  and  C_8
REMARK    6  A    between atoms: C_12  and  S_14
REMARK    7  A    between atoms: S_14  and  C_15
REMARK    8  A    between atoms: C_21  and  C_23
REMARK    9  A    between atoms: C_24  and  C_34
REMARK   10  A    between atoms: N_25  and  C_27
REMARK   11  A    between atoms: C_30  and  C_33
REMARK                            x       y       z     vdW  Elec       q    Type
REMARK                         _______ _______ _______ _____ _____    ______ ____
ROOT
ATOM      1  N   UNL     1      -1.856   1.093   3.273  0.00  0.00    -0.215 N 
ATOM      2  C   UNL     1      -2.054   2.383   3.615  0.00  0.00    +0.296 A 
ATOM      3  O   UNL     1      -2.631   2.670   4.649  0.00  0.00    -0.264 OA
ATOM      4  C   UNL     1      -1.560   3.433   2.718  0.00  0.00    +0.161 A 
ATOM      5  C   UNL     1      -0.867   3.001   1.489  0.00  0.00    +0.051 A 
ATOM      6  C   UNL     1      -0.728   1.568   1.243  0.00  0.00    +0.070 A 
ATOM      7  N   UNL     1      -1.202   0.717   2.103  0.00  0.00    -0.172 NA
ATOM      8  C   UNL     1      -0.033   1.078  -0.001  0.00  0.00    +0.068 C 
ATOM      9  C   UNL     1      -0.528   4.170   0.855  0.00  0.00    +0.052 A 
ATOM     10  N   UNL     1      -0.969   5.179   1.636  0.00  0.00    -0.236 N 
ATOM     11  N   UNL     1      -1.555   4.743   2.694  0.00  0.00    -0.161 NA
ATOM     12  C   UNL     1       0.201   4.301  -0.457  0.00  0.00    +0.066 C 
ENDROOT
BRANCH  10  13
ATOM     13  C   UNL     1      -0.807   6.537   1.330  0.00  0.00    +0.066 A 
ATOM     14  C   UNL     1       0.343   6.972   0.685  0.00  0.00    +0.028 A 
ATOM     15  C   UNL     1       0.497   8.310   0.380  0.00  0.00    +0.005 A 
ATOM     16  C   UNL     1      -0.488   9.218   0.725  0.00  0.00    -0.050 A 
ATOM     17  C   UNL     1      -1.632   8.788   1.373  0.00  0.00    +0.005 A 
ATOM     18  C   UNL     1      -1.794   7.450   1.676  0.00  0.00    +0.028 A 
ATOM     19  C   UNL     1      -0.314  10.678   0.397  0.00  0.00    +0.044 C 
ENDBRANCH  10  13
BRANCH   1  20
ATOM     20  C   UNL     1      -2.349   0.045   4.170  0.00  0.00    +0.196 C 
BRANCH  20  21
ATOM     21  C   UNL     1      -1.194  -0.805   4.634  0.00  0.00    +0.242 C 
ATOM     22  O   UNL     1      -0.069  -0.558   4.252  0.00  0.00    -0.273 OA
ATOM     23  N   UNL     1      -1.410  -1.837   5.472  0.00  0.00    -0.284 N 
ATOM     24  H   UNL     1      -2.417  -2.015   5.878  0.00  0.00    +0.155 HD
BRANCH  23  25
ATOM     25  C   UNL     1      -0.354  -2.684   5.826  0.00  0.00    +0.034 A 
ATOM     26  C   UNL     1       0.928  -2.171   5.978  0.00  0.00    +0.023 A 
ATOM     27  C   UNL     1       1.972  -3.006   6.328  0.00  0.00    +0.003 A 
ATOM     28  C   UNL     1       1.745  -4.354   6.527  0.00  0.00    +0.015 A 
ATOM     29  C   UNL     1       0.465  -4.875   6.376  0.00  0.00    +0.009 A 
ATOM     30  C   UNL     1      -0.587  -4.036   6.030  0.00  0.00    +0.038 A 
BRANCH  29  31
ATOM     31  S   UNL     1       0.175  -6.594   6.632  0.00  0.00    -0.129 S 
ATOM     32  C   UNL     1       1.809  -7.254   7.064  0.00  0.00    +0.090 C 
ENDBRANCH  29  31
ENDBRANCH  23  25
ENDBRANCH  20  21
BRANCH  20  34
ATOM     33  C   UNL     1      -4.589   0.004   3.064  0.00  0.00    +0.006 C 
ATOM     34  C   UNL     1      -3.359  -0.831   3.425  0.00  0.00    +0.033 C 
ENDBRANCH  20  34
ENDBRANCH   1  20
TORSDOF 6
