REMARK  Name = ZINC40403584
REMARK  13 active torsions:
REMARK  status: ('A' for Active; 'I' for Inactive)
REMARK    1  A    between atoms: C_1  and  C_2
REMARK    2  A    between atoms: C_2  and  N_3
REMARK    3  A    between atoms: N_3  and  C_4
REMARK    4  A    between atoms: N_3  and  C_6
REMARK    5  A    between atoms: C_4  and  C_5
REMARK    6  A    between atoms: C_6  and  C_7
REMARK    7  A    between atoms: C_7  and  C_8
REMARK    8  A    between atoms: C_8  and  N_9
REMARK    9  A    between atoms: C_13  and  C_33
REMARK   10  A    between atoms: C_17  and  C_18
REMARK   11  A    between atoms: C_18  and  C_20
REMARK   12  A    between atoms: C_18  and  S_26
REMARK   13  A    between atoms: S_26  and  C_27
REMARK                            x       y       z     vdW  Elec       q    Type
REMARK                         _______ _______ _______ _____ _____    ______ ____
ROOT
ATOM      1  N   UNL     1       2.352  -4.535   3.681  0.00  0.00    -0.326 N 
ATOM      2  C   UNL     1       3.703  -4.647   3.945  0.00  0.00    +0.069 A 
ATOM      3  C   UNL     1       4.856  -4.385   3.217  0.00  0.00    +0.028 A 
ATOM      4  C   UNL     1       6.090  -4.610   3.788  0.00  0.00    +0.014 A 
ATOM      5  C   UNL     1       6.187  -5.097   5.084  0.00  0.00    +0.057 A 
ATOM      6  C   UNL     1       5.064  -5.361   5.815  0.00  0.00    +0.042 A 
ATOM      7  C   UNL     1       3.802  -5.139   5.257  0.00  0.00    +0.090 A 
ATOM      8  N   UNL     1       2.534  -5.300   5.716  0.00  0.00    -0.231 NA
ATOM      9  C   UNL     1       1.687  -4.941   4.796  0.00  0.00    +0.129 A 
ENDROOT
BRANCH   5  10
ATOM     10  C   UNL     1       7.545  -5.338   5.690  0.00  0.00    +0.417 C 
ATOM     11  F   UNL     1       8.537  -5.000   4.763  0.00  0.00    -0.166 F 
ATOM     12  F   UNL     1       7.691  -4.549   6.837  0.00  0.00    -0.166 F 
ATOM     13  F   UNL     1       7.670  -6.688   6.035  0.00  0.00    -0.166 F 
ENDBRANCH   5  10
BRANCH   1  14
ATOM     14  C   UNL     1       1.748  -4.062   2.433  0.00  0.00    +0.122 C 
BRANCH  14  15
ATOM     15  C   UNL     1       1.558  -2.546   2.502  0.00  0.00    +0.003 C 
BRANCH  15  16
ATOM     16  C   UNL     1       0.926  -2.051   1.199  0.00  0.00    -0.077 C 
BRANCH  16  17
ATOM     17  N   UNL     1       0.643  -0.614   1.306  0.00  0.00    +0.379 N 
ATOM     18  H   UNL     1       0.074  -0.444   2.122  0.00  0.00    -0.082 HD
BRANCH  17  20
ATOM     19  C   UNL     1       1.607   1.609   1.663  0.00  0.00    -0.017 C 
ATOM     20  C   UNL     1       1.905   0.127   1.426  0.00  0.00    -0.082 C 
ENDBRANCH  17  20
BRANCH  17  21
ATOM     21  C   UNL     1      -0.076  -0.166   0.106  0.00  0.00    -0.082 C 
ATOM     22  C   UNL     1      -1.460  -0.817   0.068  0.00  0.00    -0.017 C 
ENDBRANCH  17  21
ENDBRANCH  16  17
ENDBRANCH  15  16
ENDBRANCH  14  15
ENDBRANCH   1  14
BRANCH   9  23
ATOM     23  C   UNL     1       0.188  -4.972   4.943  0.00  0.00    +0.147 C 
BRANCH  23  24
ATOM     24  C   UNL     1      -0.296  -6.397   4.856  0.00  0.00    -0.027 A 
ATOM     25  C   UNL     1       0.145  -7.334   5.772  0.00  0.00    +0.005 A 
ATOM     26  C   UNL     1      -0.298  -8.641   5.692  0.00  0.00    +0.000 A 
ATOM     27  C   UNL     1      -1.182  -9.011   4.696  0.00  0.00    +0.000 A 
ATOM     28  C   UNL     1      -1.624  -8.074   3.780  0.00  0.00    +0.000 A 
ATOM     29  C   UNL     1      -1.184  -6.766   3.862  0.00  0.00    +0.005 A 
ENDBRANCH  23  24
BRANCH  23  30
ATOM     30  S   UNL     1      -0.278  -4.274   6.551  0.00  0.00    -0.109 S 
BRANCH  30  31
ATOM     31  C   UNL     1      -2.039  -4.244   6.510  0.00  0.00    +0.009 A 
ATOM     32  C   UNL     1      -2.717  -4.710   5.390  0.00  0.00    +0.015 A 
ATOM     33  C   UNL     1      -4.098  -4.685   5.361  0.00  0.00    +0.001 A 
ATOM     34  C   UNL     1      -4.805  -4.198   6.445  0.00  0.00    +0.000 A 
ATOM     35  C   UNL     1      -4.133  -3.733   7.561  0.00  0.00    +0.001 A 
ATOM     36  C   UNL     1      -2.753  -3.760   7.599  0.00  0.00    +0.015 A 
ENDBRANCH  30  31
ENDBRANCH  23  30
ENDBRANCH   9  23
TORSDOF 11
