REMARK  Name = ZINC65182502
REMARK  10 active torsions:
REMARK  status: ('A' for Active; 'I' for Inactive)
REMARK    1  A    between atoms: C_1  and  C_2
REMARK    2  A    between atoms: C_2  and  C_3
REMARK    3  A    between atoms: C_6  and  C_34
REMARK    4  A    between atoms: C_11  and  C_13
REMARK    5  A    between atoms: C_16  and  C_19
REMARK    6  A    between atoms: C_19  and  C_20
REMARK    7  A    between atoms: C_20  and  N_21
REMARK    8  A    between atoms: N_21  and  C_22
REMARK    9  A    between atoms: C_23  and  C_25
REMARK   10  A    between atoms: C_25  and  C_28
REMARK                            x       y       z     vdW  Elec       q    Type
REMARK                         _______ _______ _______ _____ _____    ______ ____
ROOT
ATOM      1  C   UNL     1      -1.227  -3.505  -3.742  0.00  0.00    +0.318 C 
ATOM      2  N   UNL     1      -1.570  -4.919  -3.524  0.00  0.00    -0.291 N 
ATOM      3  C   UNL     1      -0.424  -5.545  -3.094  0.00  0.00    +0.139 C 
ATOM      4  N   UNL     1       0.561  -4.726  -3.018  0.00  0.00    -0.072 NA
ATOM      5  O   UNL     1       0.167  -3.419  -3.404  0.00  0.00    -0.367 OA
ATOM      6  H   UNL     1      -2.438  -5.330  -3.658  0.00  0.00    +0.151 HD
ENDROOT
BRANCH   1  15
ATOM      7  C   UNL     1      -1.755  -1.150  -3.109  0.00  0.00    -0.033 C 
ATOM      8  C   UNL     1      -2.923  -0.597  -3.509  0.00  0.00    -0.000 A 
ATOM      9  C   UNL     1      -3.288   0.762  -3.927  0.00  0.00    +0.013 A 
ATOM     10  C   UNL     1      -4.568   1.018  -4.278  0.00  0.00    -0.050 A 
ATOM     11  C   UNL     1      -5.553   0.021  -4.254  0.00  0.00    +0.005 A 
ATOM     12  C   UNL     1      -5.295  -1.250  -3.882  0.00  0.00    +0.026 A 
ATOM     13  C   UNL     1      -3.981  -1.632  -3.493  0.00  0.00    +0.043 A 
ATOM     14  N   UNL     1      -3.487  -2.780  -3.098  0.00  0.00    -0.373 N 
ATOM     15  C   UNL     1      -2.056  -2.605  -2.824  0.00  0.00    +0.169 C 
ATOM     16  C   UNL     1      -4.946   2.413  -4.707  0.00  0.00    +0.044 C 
ATOM     17  H   UNL     1      -3.983  -3.609  -3.005  0.00  0.00    +0.160 HD
BRANCH   7  19
ATOM     18  C   UNL     1      -0.572   1.013  -3.369  0.00  0.00    +0.008 C 
ATOM     19  C   UNL     1      -0.422  -0.459  -2.979  0.00  0.00    +0.030 C 
ENDBRANCH   7  19
ENDBRANCH   1  15
BRANCH   3  20
ATOM     20  C   UNL     1      -0.335  -7.011  -2.753  0.00  0.00    +0.094 C 
BRANCH  20  21
ATOM     21  C   UNL     1       1.091  -7.347  -2.313  0.00  0.00    +0.115 C 
BRANCH  21  22
ATOM     22  N   UNL     1       1.177  -8.771  -1.982  0.00  0.00    -0.303 N 
ATOM     23  C   UNL     1       1.529  -9.744  -3.019  0.00  0.00    +0.132 C 
ATOM     24  C   UNL     1       0.933  -9.186  -0.723  0.00  0.00    +0.226 C 
ATOM     25  O   UNL     1       0.553  -8.394   0.113  0.00  0.00    -0.275 OA
BRANCH  24  26
ATOM     26  C   UNL     1       1.131 -10.634  -0.355  0.00  0.00    +0.072 C 
ATOM     27  C   UNL     1       2.027 -10.941   0.846  0.00  0.00    +0.022 C 
ATOM     28  C   UNL     1       2.521 -11.234  -0.573  0.00  0.00    +0.022 C 
BRANCH  26  29
ATOM     29  C   UNL     1      -0.058 -11.531  -0.585  0.00  0.00    -0.032 A 
ATOM     30  C   UNL     1       0.043 -12.605  -1.449  0.00  0.00    +0.004 A 
ATOM     31  C   UNL     1      -1.048 -13.428  -1.659  0.00  0.00    +0.000 A 
ATOM     32  C   UNL     1      -2.239 -13.178  -1.005  0.00  0.00    +0.000 A 
ATOM     33  C   UNL     1      -2.340 -12.104  -0.140  0.00  0.00    +0.000 A 
ATOM     34  C   UNL     1      -1.248 -11.284   0.074  0.00  0.00    +0.004 A 
ENDBRANCH  26  29
ENDBRANCH  24  26
ENDBRANCH  21  22
ENDBRANCH  20  21
ENDBRANCH   3  20
TORSDOF 7
