REMARK  Name = ZINC45789076
REMARK  11 active torsions:
REMARK  status: ('A' for Active; 'I' for Inactive)
REMARK    1  A    between atoms: C_1  and  C_2
REMARK    2  A    between atoms: C_2  and  C_4
REMARK    3  A    between atoms: C_2  and  C_12
REMARK    4  A    between atoms: C_5  and  C_6
REMARK    5  A    between atoms: C_6  and  C_8
REMARK    6  A    between atoms: C_6  and  O_11
REMARK    7  A    between atoms: C_16  and  C_36
REMARK    8  A    between atoms: C_17  and  C_35
REMARK    9  A    between atoms: C_22  and  C_23
REMARK   10  A    between atoms: C_26  and  O_34
REMARK   11  A    between atoms: C_29  and  O_33
REMARK                            x       y       z     vdW  Elec       q    Type
REMARK                         _______ _______ _______ _____ _____    ______ ____
ROOT
ATOM      1  C   UNL     1       0.882  -0.811   1.272  0.00  0.00    +0.002 C 
ATOM      2  C   UNL     1       1.312  -2.299   1.365  0.00  0.00    +0.005 C 
ATOM      3  C   UNL     1       2.862  -2.300   1.478  0.00  0.00    +0.012 C 
ATOM      4  C   UNL     1       3.160  -0.914   2.055  0.00  0.00    -0.005 C 
ATOM      5  C   UNL     1       2.183  -0.024   1.232  0.00  0.00    -0.020 C 
ATOM      6  C   UNL     1       2.202   1.360   1.837  0.00  0.00    +0.008 C 
ATOM      7  C   UNL     1       3.590   1.966   1.565  0.00  0.00    +0.005 C 
ATOM      8  C   UNL     1       4.707   1.115   2.166  0.00  0.00    +0.031 C 
ATOM      9  C   UNL     1       4.527  -0.356   1.794  0.00  0.00    -0.063 C 
ATOM     10  C   UNL     1       5.512  -1.090   1.278  0.00  0.00    +0.000 C 
ATOM     11  C   UNL     1       2.678   0.062  -0.213  0.00  0.00    +0.012 C 
ATOM     12  C   UNL     1       2.832  -0.867   3.548  0.00  0.00    +0.016 C 
ENDROOT
BRANCH  10  13
ATOM     13  C   UNL     1       6.828  -0.491   1.045  0.00  0.00    +0.004 C 
ATOM     14  C   UNL     1       7.825  -1.235   0.522  0.00  0.00    -0.040 C 
ATOM     15  C   UNL     1       9.203  -0.654   0.272  0.00  0.00    +0.067 C 
ATOM     16  C   UNL     1      10.246  -1.637   0.811  0.00  0.00    +0.122 C 
ATOM     17  C   UNL     1      10.074  -2.998   0.135  0.00  0.00    +0.067 C 
ATOM     18  C   UNL     1       8.734  -3.616   0.547  0.00  0.00    +0.147 C 
ATOM     19  C   UNL     1       7.628  -2.656   0.170  0.00  0.00    -0.023 C 
ATOM     20  C   UNL     1       6.527  -3.076  -0.453  0.00  0.00    +0.015 C 
BRANCH  18  21
ATOM     21  O   UNL     1       8.549  -4.860  -0.132  0.00  0.00    -0.387 OA
ATOM     22  H   UNL     1       7.718  -5.306   0.084  0.00  0.00    +0.210 HD
ENDBRANCH  18  21
BRANCH  16  23
ATOM     23  O   UNL     1      11.556  -1.136   0.539  0.00  0.00    -0.391 OA
ATOM     24  H   UNL     1      11.739  -0.276   0.941  0.00  0.00    +0.210 HD
ENDBRANCH  16  23
ENDBRANCH  10  13
BRANCH   1  26
ATOM     25  C   UNL     1      -0.276   0.915  -0.114  0.00  0.00    +0.012 C 
ATOM     26  C   UNL     1       0.076  -0.570  -0.006  0.00  0.00    +0.012 C 
BRANCH  26  27
ATOM     27  C   UNL     1      -1.190  -1.385   0.037  0.00  0.00    -0.025 C 
ATOM     28  C   UNL     1      -1.423  -2.284  -0.887  0.00  0.00    +0.000 C 
BRANCH  28  29
ATOM     29  C   UNL     1      -2.690  -3.099  -0.844  0.00  0.00    +0.140 C 
BRANCH  29  30
ATOM     30  C   UNL     1      -3.435  -2.955  -2.172  0.00  0.00    +0.022 C 
ATOM     31  C   UNL     1      -4.761  -2.192  -2.160  0.00  0.00    +0.007 C 
ATOM     32  C   UNL     1      -4.755  -3.712  -2.327  0.00  0.00    +0.007 C 
ENDBRANCH  29  30
BRANCH  29  33
ATOM     33  O   UNL     1      -3.521  -2.632   0.221  0.00  0.00    -0.387 OA
ATOM     34  H   UNL     1      -3.781  -1.704   0.139  0.00  0.00    +0.210 HD
ENDBRANCH  29  33
ENDBRANCH  28  29
ENDBRANCH  26  27
ENDBRANCH   1  26
TORSDOF 8
