REMARK  Name = ZINC40327042
REMARK  4 active torsions:
REMARK  status: ('A' for Active; 'I' for Inactive)
REMARK    1  A    between atoms: C_1  and  C_2
REMARK    2  A    between atoms: C_4  and  C_13
REMARK    3  A    between atoms: C_5  and  C_7
REMARK    4  A    between atoms: C_22  and  C_26
REMARK                            x       y       z     vdW  Elec       q    Type
REMARK                         _______ _______ _______ _____ _____    ______ ____
ROOT
ATOM      1  C   UNL     1      -0.059  -3.071  -2.012  0.00  0.00    +0.269 C 
ATOM      2  O   UNL     1       0.055  -4.267  -1.822  0.00  0.00    -0.268 OA
ATOM      3  N   UNL     1      -0.227  -2.600  -3.264  0.00  0.00    -0.259 N 
ATOM      4  C   UNL     1      -0.271  -3.481  -4.337  0.00  0.00    +0.165 A 
ATOM      5  N   UNL     1      -0.172  -4.792  -4.322  0.00  0.00    -0.229 NA
ATOM      6  C   UNL     1      -0.231  -5.514  -5.438  0.00  0.00    +0.054 A 
ATOM      7  C   UNL     1      -0.400  -4.793  -6.576  0.00  0.00    +0.015 A 
ATOM      8  S   UNL     1      -0.470  -3.130  -5.973  0.00  0.00    -0.057 S 
ATOM      9  C   UNL     1      -0.501  -5.306  -7.973  0.00  0.00    +0.047 C 
ATOM     10  C   UNL     1      -0.019  -6.765  -7.985  0.00  0.00    -0.009 C 
ATOM     11  C   UNL     1      -0.689  -7.516  -6.830  0.00  0.00    +0.010 C 
ATOM     12  C   UNL     1      -0.126  -7.032  -5.491  0.00  0.00    +0.056 C 
ATOM     13  C   UNL     1      -0.400  -7.420  -9.314  0.00  0.00    +0.008 C 
ATOM     14  H   UNL     1      -0.318  -1.647  -3.415  0.00  0.00    +0.157 HD
ENDROOT
BRANCH   1  18
ATOM     15  C   UNL     1      -0.437   1.467  -0.002  0.00  0.00    +0.073 C 
ATOM     16  C   UNL     1      -0.201  -0.021  -0.004  0.00  0.00    +0.077 A 
ATOM     17  N   UNL     1      -0.244  -0.840  -1.019  0.00  0.00    -0.239 NA
ATOM     18  C   UNL     1      -0.013  -2.139  -0.877  0.00  0.00    +0.141 A 
ATOM     19  C   UNL     1       0.275  -2.563   0.425  0.00  0.00    +0.051 A 
ATOM     20  S   UNL     1       0.185  -1.010   1.301  0.00  0.00    -0.072 S 
BRANCH  19  21
ATOM     21  C   UNL     1       0.576  -3.917   0.932  0.00  0.00    -0.009 A 
ATOM     22  C   UNL     1      -0.150  -4.443   2.002  0.00  0.00    +0.009 A 
ATOM     23  C   UNL     1       0.136  -5.709   2.470  0.00  0.00    +0.001 A 
ATOM     24  C   UNL     1       1.141  -6.457   1.882  0.00  0.00    +0.000 A 
ATOM     25  C   UNL     1       1.865  -5.942   0.821  0.00  0.00    +0.001 A 
ATOM     26  C   UNL     1       1.585  -4.680   0.339  0.00  0.00    +0.009 A 
ENDBRANCH  19  21
ENDBRANCH   1  18
TORSDOF 2
