REMARK  Name = ZINC16770037
REMARK  10 active torsions:
REMARK  status: ('A' for Active; 'I' for Inactive)
REMARK    1  A    between atoms: C_1  and  C_2
REMARK    2  A    between atoms: C_5  and  C_8
REMARK    3  A    between atoms: C_8  and  N_9
REMARK    4  A    between atoms: C_10  and  C_12
REMARK    5  A    between atoms: C_12  and  C_14
REMARK    6  A    between atoms: C_12  and  S_15
REMARK    7  A    between atoms: S_15  and  C_16
REMARK    8  A    between atoms: C_19  and  C_22
REMARK    9  A    between atoms: N_20  and  N_21
REMARK   10  A    between atoms: C_25  and  C_28
REMARK                            x       y       z     vdW  Elec       q    Type
REMARK                         _______ _______ _______ _____ _____    ______ ____
ROOT
ATOM      1  S   UNL     1       3.197  -8.271   0.524  0.00  0.00    -0.072 S 
ENDROOT
BRANCH   1   2
ATOM      2  C   UNL     1       4.919  -8.637   0.596  0.00  0.00    +0.209 A 
ATOM      3  N   UNL     1       5.903  -7.818   0.298  0.00  0.00    -0.121 NA
ATOM      4  N   UNL     1       7.033  -8.408   0.461  0.00  0.00    -0.127 NA
ATOM      5  C   UNL     1       6.840  -9.640   0.872  0.00  0.00    +0.182 A 
ATOM      6  N   UNL     1       5.480  -9.822   0.977  0.00  0.00    -0.224 N 
BRANCH   5   7
ATOM      7  C   UNL     1       7.886 -10.640   1.173  0.00  0.00    +0.021 A 
ATOM      8  C   UNL     1       7.552 -11.990   1.292  0.00  0.00    +0.012 A 
ATOM      9  C   UNL     1       8.533 -12.918   1.571  0.00  0.00    +0.004 A 
ATOM     10  C   UNL     1       9.846 -12.514   1.734  0.00  0.00    -0.050 A 
ATOM     11  C   UNL     1      10.184 -11.177   1.617  0.00  0.00    +0.004 A 
ATOM     12  C   UNL     1       9.214 -10.239   1.332  0.00  0.00    +0.012 A 
ATOM     13  C   UNL     1      10.913 -13.534   2.039  0.00  0.00    +0.044 C 
ENDBRANCH   5   7
BRANCH   6  14
ATOM     14  N   UNL     1       4.828 -10.953   1.377  0.00  0.00    -0.295 N 
ATOM     15  H   UNL     1       4.628 -11.553   0.590  0.00  0.00    +0.163 HD
ATOM     16  H   UNL     1       5.356 -11.445   2.082  0.00  0.00    +0.163 HD
ENDBRANCH   6  14
ENDBRANCH   1   2
BRANCH   1  17
ATOM     17  C   UNL     1       3.137  -6.551  -0.051  0.00  0.00    +0.137 C 
ATOM     18  C   UNL     1       3.693  -6.470  -1.474  0.00  0.00    +0.029 C 
BRANCH  17  20
ATOM     19  N   UNL     1       1.447  -4.746  -0.032  0.00  0.00    -0.310 N 
ATOM     20  C   UNL     1       1.710  -6.067  -0.040  0.00  0.00    +0.226 C 
ATOM     21  O   UNL     1       0.799  -6.867  -0.040  0.00  0.00    -0.275 OA
ATOM     22  H   UNL     1       2.176  -4.106  -0.032  0.00  0.00    +0.149 HD
BRANCH  19  23
ATOM     23  C   UNL     1       0.059  -4.275  -0.021  0.00  0.00    +0.139 C 
BRANCH  23  28
ATOM     24  C   UNL     1      -0.018   1.503   0.010  0.00  0.00    +0.044 C 
ATOM     25  C   UNL     1       0.002  -0.004   0.002  0.00  0.00    -0.050 A 
ATOM     26  C   UNL     1       0.006  -0.689  -1.199  0.00  0.00    +0.003 A 
ATOM     27  C   UNL     1       0.025  -2.071  -1.206  0.00  0.00    +0.005 A 
ATOM     28  C   UNL     1       0.040  -2.768  -0.013  0.00  0.00    -0.030 A 
ATOM     29  C   UNL     1       0.037  -2.084   1.188  0.00  0.00    +0.005 A 
ATOM     30  C   UNL     1       0.023  -0.702   1.195  0.00  0.00    +0.003 A 
ENDBRANCH  23  28
ENDBRANCH  19  23
ENDBRANCH  17  20
ENDBRANCH   1  17
TORSDOF 7
