REMARK  Name = ZINC03451357
REMARK  7 active torsions:
REMARK  status: ('A' for Active; 'I' for Inactive)
REMARK    1  A    between atoms: C_1  and  C_2
REMARK    2  A    between atoms: C_8  and  N_10
REMARK    3  A    between atoms: C_11  and  C_13
REMARK    4  A    between atoms: C_13  and  O_14
REMARK    5  A    between atoms: O_14  and  C_15
REMARK    6  A    between atoms: C_15  and  C_17
REMARK    7  A    between atoms: C_21  and  N_23
REMARK                            x       y       z     vdW  Elec       q    Type
REMARK                         _______ _______ _______ _____ _____    ______ ____
ROOT
ATOM      1  O   UNL     1      -3.679   5.838   0.050  0.00  0.00    -0.452 OA
ENDROOT
BRANCH   1   2
ATOM      2  C   UNL     1      -2.499   5.187   0.041  0.00  0.00    +0.340 C 
ATOM      3  O   UNL     1      -1.459   5.814   0.039  0.00  0.00    -0.245 OA
BRANCH   2   4
ATOM      4  C   UNL     1      -2.471   3.710   0.033  0.00  0.00    +0.061 A 
ATOM      5  C   UNL     1      -3.665   2.987   0.035  0.00  0.00    +0.016 A 
ATOM      6  C   UNL     1      -3.636   1.608   0.028  0.00  0.00    +0.022 A 
ATOM      7  C   UNL     1      -2.426   0.936   0.019  0.00  0.00    +0.062 A 
ATOM      8  C   UNL     1      -1.231   1.648   0.017  0.00  0.00    +0.044 A 
ATOM      9  C   UNL     1      -1.250   3.034   0.030  0.00  0.00    +0.039 A 
ATOM     10 CL   UNL     1      -2.400  -0.799   0.010  0.00  0.00    -0.082 Cl
BRANCH   8  11
ATOM     11  N   UNL     1      -0.011   0.966   0.007  0.00  0.00    -0.357 N 
ATOM     12  H   UNL     1       0.002  -0.004   0.002  0.00  0.00    +0.142 HD
ATOM     13  H   UNL     1       0.822   1.462   0.002  0.00  0.00    +0.142 HD
ENDBRANCH   8  11
ENDBRANCH   2   4
ENDBRANCH   1   2
BRANCH   1  14
ATOM     14  C   UNL     1      -3.631   7.289   0.057  0.00  0.00    +0.328 C 
BRANCH  14  16
ATOM     15  N   UNL     1      -5.236   9.171   0.074  0.00  0.00    -0.309 N 
ATOM     16  C   UNL     1      -5.034   7.838   0.066  0.00  0.00    +0.251 C 
ATOM     17  O   UNL     1      -5.981   7.081   0.067  0.00  0.00    -0.272 OA
ATOM     18  H   UNL     1      -4.479   9.776   0.073  0.00  0.00    +0.149 HD
BRANCH  15  25
ATOM     19  C   UNL     1      -6.088  11.049  -1.959  0.00  0.00    +0.009 C 
ATOM     20  C   UNL     1      -6.602  11.111  -0.519  0.00  0.00    +0.006 C 
ATOM     21  C   UNL     1      -5.693  12.021   0.309  0.00  0.00    +0.005 C 
ATOM     22  C   UNL     1      -6.206  12.082   1.748  0.00  0.00    +0.000 C 
ATOM     23  C   UNL     1      -6.205  10.676   2.351  0.00  0.00    +0.002 C 
ATOM     24  C   UNL     1      -7.114   9.766   1.524  0.00  0.00    +0.022 C 
ATOM     25  C   UNL     1      -6.601   9.704   0.084  0.00  0.00    +0.076 C 
ENDBRANCH  15  25
ENDBRANCH  14  16
ENDBRANCH   1  14
TORSDOF 6
