REMARK  Name = ZINC39688773
REMARK  6 active torsions:
REMARK  status: ('A' for Active; 'I' for Inactive)
REMARK    1  A    between atoms: C_1  and  C_2
REMARK    2  A    between atoms: C_2  and  C_4
REMARK    3  A    between atoms: C_2  and  N_12
REMARK    4  A    between atoms: C_4  and  C_5
REMARK    5  A    between atoms: C_13  and  C_15
REMARK    6  A    between atoms: C_26  and  C_28
REMARK                            x       y       z     vdW  Elec       q    Type
REMARK                         _______ _______ _______ _____ _____    ______ ____
ROOT
ATOM      1  C   UNL     1      -3.528  -1.117   1.200  0.00  0.00    +0.100 C 
ATOM      2  C   UNL     1      -3.563  -2.613   0.817  0.00  0.00    +0.121 C 
ATOM      3  N   UNL     1      -3.561  -3.332   2.112  0.00  0.00    -0.295 N 
ATOM      4  C   UNL     1      -4.442  -2.521   2.986  0.00  0.00    +0.115 C 
ATOM      5  C   UNL     1      -4.109  -1.060   2.623  0.00  0.00    -0.004 C 
ATOM      6  C   UNL     1      -5.375  -0.208   2.643  0.00  0.00    -0.010 C 
ATOM      7  C   UNL     1      -5.902  -0.118   4.078  0.00  0.00    -0.082 C 
ATOM      8  N   UNL     1      -4.875   0.476   4.942  0.00  0.00    +0.379 N 
ATOM      9  C   UNL     1      -3.695  -0.397   4.990  0.00  0.00    -0.082 C 
ATOM     10  C   UNL     1      -3.075  -0.498   3.594  0.00  0.00    -0.010 C 
ATOM     11  C   UNL     1      -2.906  -4.467   2.426  0.00  0.00    +0.265 C 
ATOM     12  O   UNL     1      -2.140  -4.967   1.627  0.00  0.00    -0.268 OA
ATOM     13  H   UNL     1      -4.609   1.378   4.575  0.00  0.00    -0.086 HD
ATOM     14  H   UNL     1      -5.245   0.590   5.873  0.00  0.00    -0.086 HD
ENDROOT
BRANCH  11  15
ATOM     15  C   UNL     1      -3.119  -5.105   3.748  0.00  0.00    +0.126 A 
ATOM     16  C   UNL     1      -2.340  -6.215   4.106  0.00  0.00    +0.033 A 
ATOM     17  C   UNL     1      -2.526  -6.812   5.320  0.00  0.00    +0.012 A 
ATOM     18  C   UNL     1      -3.508  -6.282   6.178  0.00  0.00    +0.000 A 
ATOM     19  C   UNL     1      -3.753  -6.846   7.441  0.00  0.00    +0.010 A 
ATOM     20  C   UNL     1      -4.710  -6.306   8.245  0.00  0.00    +0.001 A 
ATOM     21  C   UNL     1      -5.453  -5.201   7.832  0.00  0.00    +0.002 A 
ATOM     22  C   UNL     1      -5.244  -4.629   6.616  0.00  0.00    +0.028 A 
ATOM     23  C   UNL     1      -4.263  -5.157   5.755  0.00  0.00    +0.072 A 
ATOM     24  N   UNL     1      -4.033  -4.613   4.561  0.00  0.00    -0.242 NA
ENDBRANCH  11  15
BRANCH   1  26
ATOM     25  N   UNL     1      -1.870   0.715   1.079  0.00  0.00    -0.312 N 
ATOM     26  C   UNL     1      -2.110  -0.606   1.192  0.00  0.00    +0.218 C 
ATOM     27  O   UNL     1      -1.185  -1.385   1.286  0.00  0.00    -0.275 OA
ATOM     28  H   UNL     1      -2.605   1.331   0.931  0.00  0.00    +0.149 HD
BRANCH  25  30
ATOM     29  C   UNL     1      -0.100   1.322   2.653  0.00  0.00    +0.028 C 
ATOM     30  C   UNL     1      -0.499   1.222   1.180  0.00  0.00    +0.074 C 
BRANCH  30  31
ATOM     31  C   UNL     1      -0.419   2.607   0.534  0.00  0.00    +0.057 C 
BRANCH  31  32
ATOM     32  C   UNL     1      -0.682   2.488  -0.945  0.00  0.00    -0.045 A 
ATOM     33  C   UNL     1       0.350   2.165  -1.806  0.00  0.00    +0.006 A 
ATOM     34  C   UNL     1       0.111   2.055  -3.163  0.00  0.00    +0.038 A 
ATOM     35  C   UNL     1      -1.164   2.268  -3.659  0.00  0.00    +0.123 A 
ATOM     36  C   UNL     1      -2.197   2.591  -2.796  0.00  0.00    +0.038 A 
ATOM     37  C   UNL     1      -1.956   2.695  -1.439  0.00  0.00    +0.006 A 
ATOM     38  F   UNL     1      -1.400   2.161  -4.985  0.00  0.00    -0.205 F 
ENDBRANCH  31  32
ENDBRANCH  30  31
ENDBRANCH  25  30
ENDBRANCH   1  26
TORSDOF 5
