REMARK  Name = ZINC64392061
REMARK  8 active torsions:
REMARK  status: ('A' for Active; 'I' for Inactive)
REMARK    1  A    between atoms: C_1  and  C_2
REMARK    2  A    between atoms: C_2  and  C_3
REMARK    3  A    between atoms: C_2  and  O_4
REMARK    4  A    between atoms: O_4  and  C_5
REMARK    5  A    between atoms: C_8  and  C_11
REMARK    6  A    between atoms: C_13  and  C_17
REMARK    7  A    between atoms: N_27  and  C_30
REMARK    8  A    between atoms: C_30  and  C_31
REMARK                            x       y       z     vdW  Elec       q    Type
REMARK                         _______ _______ _______ _____ _____    ______ ____
ROOT
ATOM      1  C   UNL     1       9.092  -1.861  -2.327  0.00  0.00    +0.006 A 
ATOM      2  C   UNL     1       8.319  -2.887  -2.849  0.00  0.00    +0.009 A 
ATOM      3  C   UNL     1       8.900  -3.885  -3.602  0.00  0.00    +0.016 A 
ATOM      4  C   UNL     1      10.273  -3.856  -3.837  0.00  0.00    +0.063 A 
ATOM      5  C   UNL     1      11.056  -2.816  -3.308  0.00  0.00    +0.056 A 
ATOM      6  C   UNL     1      10.453  -1.818  -2.557  0.00  0.00    +0.034 A 
ATOM      7  N   UNL     1      12.420  -2.812  -3.559  0.00  0.00    -0.307 N 
ATOM      8  H   UNL     1      12.973  -2.101  -3.200  0.00  0.00    +0.170 HD
ATOM      9  C   UNL     1      12.984  -3.786  -4.294  0.00  0.00    +0.330 A 
ATOM     10  O   UNL     1      14.183  -3.747  -4.490  0.00  0.00    -0.246 OA
ATOM     11  N   UNL     1      12.280  -4.800  -4.820  0.00  0.00    -0.256 N 
ATOM     12  C   UNL     1      10.945  -4.897  -4.636  0.00  0.00    +0.265 A 
ATOM     13  O   UNL     1      10.314  -5.819  -5.117  0.00  0.00    -0.267 OA
ENDROOT
BRANCH   1  16
ATOM     14  C   UNL     1       6.262  -0.829  -0.944  0.00  0.00    +0.134 C 
ATOM     15  N   UNL     1       7.053  -0.577  -1.942  0.00  0.00    -0.339 N 
ATOM     16  C   UNL     1       8.440  -0.779  -1.506  0.00  0.00    +0.274 C 
ATOM     17  O   UNL     1       8.353  -1.180  -0.130  0.00  0.00    -0.243 OA
ATOM     18  N   UNL     1       6.968  -1.191   0.176  0.00  0.00    -0.247 N 
ATOM     19  H   UNL     1       6.583  -1.419   1.036  0.00  0.00    +0.196 HD
ATOM     20  H   UNL     1       6.773  -0.300  -2.829  0.00  0.00    +0.164 HD
BRANCH  14  24
ATOM     21  C   UNL     1       2.025  -0.553  -1.118  0.00  0.00    +0.121 A 
ATOM     22  C   UNL     1       2.687  -0.308   0.078  0.00  0.00    +0.046 A 
ATOM     23  C   UNL     1       4.060  -0.397   0.138  0.00  0.00    +0.015 A 
ATOM     24  C   UNL     1       4.787  -0.733  -1.005  0.00  0.00    +0.017 A 
ATOM     25  C   UNL     1       4.119  -0.979  -2.205  0.00  0.00    +0.015 A 
ATOM     26  C   UNL     1       2.744  -0.893  -2.257  0.00  0.00    +0.046 A 
BRANCH  21  27
ATOM     27  O   UNL     1       0.671  -0.465  -1.174  0.00  0.00    -0.489 OA
BRANCH  27  29
ATOM     28  C   UNL     1      -0.044   1.273   0.346  0.00  0.00    +0.051 C 
ATOM     29  C   UNL     1      -0.015  -0.229   0.058  0.00  0.00    +0.167 C 
ATOM     30  C   UNL     1      -1.447  -0.756  -0.047  0.00  0.00    +0.051 C 
ENDBRANCH  27  29
ENDBRANCH  21  27
ENDBRANCH  14  24
ENDBRANCH   1  16
BRANCH  11  31
ATOM     31  C   UNL     1      12.972  -5.822  -5.610  0.00  0.00    +0.168 C 
BRANCH  31  32
ATOM     32  C   UNL     1      13.427  -6.935  -4.702  0.00  0.00    +0.008 A 
ATOM     33  C   UNL     1      14.740  -6.983  -4.272  0.00  0.00    +0.008 A 
ATOM     34  C   UNL     1      15.158  -8.004  -3.439  0.00  0.00    +0.000 A 
ATOM     35  C   UNL     1      14.264  -8.979  -3.037  0.00  0.00    +0.003 A 
ATOM     36  C   UNL     1      12.951  -8.933  -3.466  0.00  0.00    +0.039 A 
ATOM     37  C   UNL     1      12.530  -7.908  -4.295  0.00  0.00    +0.128 A 
ATOM     38  F   UNL     1      11.245  -7.859  -4.712  0.00  0.00    -0.205 F 
ENDBRANCH  31  32
ENDBRANCH  11  31
TORSDOF 6
