REMARK  Name = ZINC13063912
REMARK  15 active torsions:
REMARK  status: ('A' for Active; 'I' for Inactive)
REMARK    1  A    between atoms: C_1  and  C_2
REMARK    2  A    between atoms: C_2  and  C_3
REMARK    3  A    between atoms: C_3  and  C_5
REMARK    4  A    between atoms: C_3  and  N_71
REMARK    5  A    between atoms: N_9  and  C_10
REMARK    6  A    between atoms: C_10  and  C_11
REMARK    7  A    between atoms: C_10  and  C_12
REMARK    8  A    between atoms: C_10  and  C_13
REMARK    9  A    between atoms: C_13  and  C_14
REMARK   10  A    between atoms: C_15  and  C_16
REMARK   11  A    between atoms: C_15  and  N_71
REMARK   12  A    between atoms: C_19  and  C_22
REMARK   13  A    between atoms: C_23  and  C_24
REMARK   14  A    between atoms: C_23  and  N_71
REMARK   15  A    between atoms: C_29  and  C_36
REMARK                            x       y       z     vdW  Elec       q    Type
REMARK                         _______ _______ _______ _____ _____    ______ ____
ROOT
ATOM      1  N   UNL     1      -0.543  -0.306  -0.394  0.00  0.00    +0.392 N 
ATOM      2  H   UNL     1       0.102  -0.865   0.176  0.00  0.00    -0.080 HD
ENDROOT
BRANCH   1   3
ATOM      3  C   UNL     1      -1.928  -0.572   0.049  0.00  0.00    +0.003 C 
BRANCH   3   4
ATOM      4  C   UNL     1      -1.930  -0.744   1.546  0.00  0.00    +0.139 A 
ATOM      5  N   UNL     1      -1.292  -0.003   2.419  0.00  0.00    -0.115 NA
ATOM      6  N   UNL     1      -1.544  -0.467   3.595  0.00  0.00    -0.023 NA
ATOM      7  N   UNL     1      -2.326  -1.485   3.494  0.00  0.00    -0.043 NA
ATOM      8  N   UNL     1      -2.591  -1.684   2.247  0.00  0.00    -0.225 N 
BRANCH   8   9
ATOM      9  C   UNL     1      -3.448  -2.737   1.696  0.00  0.00    +0.061 C 
ATOM     10  C   UNL     1      -4.519  -2.108   0.803  0.00  0.00    +0.036 C 
ATOM     11  C   UNL     1      -2.599  -3.705   0.870  0.00  0.00    +0.036 C 
BRANCH   9  12
ATOM     12  C   UNL     1      -4.120  -3.498   2.841  0.00  0.00    +0.026 C 
ATOM     13  C   UNL     1      -5.015  -4.598   2.267  0.00  0.00    +0.006 C 
ENDBRANCH   9  12
ENDBRANCH   8   9
ENDBRANCH   3   4
BRANCH   3  15
ATOM     14  C   UNL     1      -2.901   0.720  -1.855  0.00  0.00    +0.002 C 
ATOM     15  C   UNL     1      -2.845   0.592  -0.332  0.00  0.00    -0.011 C 
ENDBRANCH   3  15
ENDBRANCH   1   3
BRANCH   1  16
ATOM     16  C   UNL     1      -0.223   1.126  -0.218  0.00  0.00    -0.042 C 
BRANCH  16  17
ATOM     17  C   UNL     1       1.270   1.305  -0.321  0.00  0.00    -0.064 A 
ATOM     18  C   UNL     1       2.069   1.092   0.786  0.00  0.00    +0.002 A 
ATOM     19  C   UNL     1       3.439   1.252   0.691  0.00  0.00    +0.003 A 
ATOM     20  C   UNL     1       4.008   1.633  -0.510  0.00  0.00    -0.050 A 
ATOM     21  C   UNL     1       3.208   1.850  -1.616  0.00  0.00    +0.003 A 
ATOM     22  C   UNL     1       1.839   1.686  -1.522  0.00  0.00    +0.002 A 
ATOM     23  C   UNL     1       5.501   1.811  -0.613  0.00  0.00    +0.044 C 
ENDBRANCH  16  17
ENDBRANCH   1  16
BRANCH   1  24
ATOM     24  C   UNL     1      -0.385  -0.688  -1.813  0.00  0.00    -0.036 C 
BRANCH  24  25
ATOM     25  C   UNL     1      -0.318  -2.191  -1.905  0.00  0.00    +0.001 A 
ATOM     26  C   UNL     1      -1.431  -2.899  -2.217  0.00  0.00    +0.017 A 
ATOM     27  C   UNL     1      -1.331  -4.358  -2.298  0.00  0.00    -0.001 A 
ATOM     28  C   UNL     1      -2.445  -5.142  -2.617  0.00  0.00    +0.010 A 
ATOM     29  C   UNL     1      -2.320  -6.500  -2.685  0.00  0.00    +0.004 A 
ATOM     30  C   UNL     1      -1.096  -7.110  -2.440  0.00  0.00    -0.048 A 
ATOM     31  C   UNL     1       0.014  -6.357  -2.125  0.00  0.00    +0.029 A 
ATOM     32  C   UNL     1      -0.090  -4.972  -2.050  0.00  0.00    +0.049 A 
ATOM     33  N   UNL     1       1.005  -4.194  -1.737  0.00  0.00    -0.322 N 
ATOM     34  H   UNL     1       1.860  -4.619  -1.566  0.00  0.00    +0.169 HD
ATOM     35  C   UNL     1       0.905  -2.855  -1.670  0.00  0.00    +0.251 A 
ATOM     36  O   UNL     1       1.895  -2.199  -1.395  0.00  0.00    -0.268 OA
ATOM     37  C   UNL     1      -0.982  -8.611  -2.521  0.00  0.00    +0.044 C 
ENDBRANCH  24  25
ENDBRANCH   1  24
TORSDOF 9
