REMARK  Name = ZINC39694427
REMARK  5 active torsions:
REMARK  status: ('A' for Active; 'I' for Inactive)
REMARK    1  A    between atoms: N_4  and  C_6
REMARK    2  A    between atoms: C_6  and  C_7
REMARK    3  A    between atoms: C_7  and  N_8
REMARK    4  A    between atoms: C_9  and  C_11
REMARK    5  A    between atoms: C_22  and  C_24
REMARK                            x       y       z     vdW  Elec       q    Type
REMARK                         _______ _______ _______ _____ _____    ______ ____
ROOT
ATOM      1  C   UNL     1       4.607  -5.860  -1.990  0.00  0.00    +0.100 C 
ATOM      2  C   UNL     1       3.237  -6.550  -2.180  0.00  0.00    +0.121 C 
ATOM      3  N   UNL     1       3.129  -6.770  -3.641  0.00  0.00    -0.296 N 
ATOM      4  C   UNL     1       4.495  -7.167  -4.057  0.00  0.00    +0.115 C 
ATOM      5  C   UNL     1       5.430  -6.270  -3.222  0.00  0.00    -0.004 C 
ATOM      6  C   UNL     1       5.832  -5.036  -4.024  0.00  0.00    -0.010 C 
ATOM      7  C   UNL     1       6.697  -5.465  -5.213  0.00  0.00    -0.082 C 
ATOM      8  N   UNL     1       7.891  -6.165  -4.723  0.00  0.00    +0.379 N 
ATOM      9  C   UNL     1       7.500  -7.399  -4.032  0.00  0.00    -0.082 C 
ATOM     10  C   UNL     1       6.669  -7.052  -2.794  0.00  0.00    -0.010 C 
ATOM     11  C   UNL     1       2.035  -6.638  -4.417  0.00  0.00    +0.247 C 
ATOM     12  O   UNL     1       1.010  -6.180  -3.950  0.00  0.00    -0.270 OA
ATOM     13  H   UNL     1       8.489  -6.393  -5.503  0.00  0.00    -0.086 HD
ATOM     14  H   UNL     1       8.391  -5.566  -4.083  0.00  0.00    -0.086 HD
ENDROOT
BRANCH  11  15
ATOM     15  C   UNL     1       2.081  -7.050  -5.836  0.00  0.00    +0.038 A 
ATOM     16  C   UNL     1       3.054  -7.950  -6.272  0.00  0.00    +0.014 A 
ATOM     17  C   UNL     1       3.093  -8.332  -7.597  0.00  0.00    +0.022 A 
ATOM     18  C   UNL     1       2.169  -7.823  -8.495  0.00  0.00    +0.059 A 
ATOM     19  C   UNL     1       1.200  -6.929  -8.068  0.00  0.00    +0.060 A 
ATOM     20  C   UNL     1       1.148  -6.545  -6.743  0.00  0.00    +0.034 A 
ATOM     21 CL   UNL     1       0.046  -6.296  -9.199  0.00  0.00    -0.082 Cl
ATOM     22 CL   UNL     1       2.225  -8.307 -10.161  0.00  0.00    -0.082 Cl
ENDBRANCH  11  15
BRANCH   1  24
ATOM     23  N   UNL     1       5.364  -3.599  -1.333  0.00  0.00    -0.313 N 
ATOM     24  C   UNL     1       4.439  -4.363  -1.946  0.00  0.00    +0.218 C 
ATOM     25  O   UNL     1       3.471  -3.846  -2.462  0.00  0.00    -0.275 OA
ATOM     26  H   UNL     1       6.139  -4.012  -0.920  0.00  0.00    +0.149 HD
BRANCH  23  27
ATOM     27  C   UNL     1       5.201  -2.143  -1.290  0.00  0.00    +0.127 C 
BRANCH  27  28
ATOM     28  C   UNL     1       6.381  -1.519  -0.542  0.00  0.00    +0.162 C 
BRANCH  28  32
ATOM     29  C   UNL     1       6.038   1.987   0.225  0.00  0.00    +0.041 A 
ATOM     30  C   UNL     1       5.927   2.006  -1.169  0.00  0.00    +0.134 A 
ATOM     31  N   UNL     1       6.034   0.777  -1.605  0.00  0.00    -0.180 NA
ATOM     32  N   UNL     1       6.217  -0.064  -0.500  0.00  0.00    -0.270 N 
ATOM     33  C   UNL     1       6.216   0.703   0.611  0.00  0.00    +0.108 A 
ENDBRANCH  28  32
ENDBRANCH  27  28
ENDBRANCH  23  27
ENDBRANCH   1  24
TORSDOF 5
