REMARK  Name = ZINC65260027
REMARK  3 active torsions:
REMARK  status: ('A' for Active; 'I' for Inactive)
REMARK    1  A    between atoms: N_12  and  S_14
REMARK    2  A    between atoms: S_14  and  C_17
REMARK    3  A    between atoms: N_25  and  C_26
REMARK                            x       y       z     vdW  Elec       q    Type
REMARK                         _______ _______ _______ _____ _____    ______ ____
ROOT
ATOM      1  C   UNL     1      -0.017   1.378   0.010  0.00  0.00    +0.002 A 
ATOM      2  C   UNL     1       1.168   2.091   0.002  0.00  0.00    +0.002 A 
ATOM      3  C   UNL     1       2.380   1.425  -0.017  0.00  0.00    +0.025 A 
ATOM      4  C   UNL     1       2.407   0.039  -0.026  0.00  0.00    +0.053 A 
ATOM      5  C   UNL     1       1.213  -0.680  -0.012  0.00  0.00    +0.049 A 
ATOM      6  C   UNL     1       0.002  -0.004   0.002  0.00  0.00    +0.025 A 
ATOM      7  N   UNL     1       1.229  -2.083  -0.001  0.00  0.00    -0.329 N 
ATOM      8  C   UNL     1       2.464  -2.779  -0.383  0.00  0.00    +0.100 C 
ATOM      9  C   UNL     1       2.464  -4.194   0.192  0.00  0.00    +0.036 C 
ATOM     10  C   UNL     1       1.270  -4.975  -0.363  0.00  0.00    +0.020 C 
ATOM     11  C   UNL     1       1.387  -5.062  -1.888  0.00  0.00    +0.109 C 
ATOM     12  N   UNL     1       1.519  -3.703  -2.432  0.00  0.00    -0.174 NA
ATOM     13  C   UNL     1       2.580  -2.833  -1.906  0.00  0.00    +0.142 C 
ATOM     14  C   UNL     1       3.630  -1.999   0.188  0.00  0.00    +0.098 C 
ATOM     15  N   UNL     1       3.639  -0.637  -0.056  0.00  0.00    -0.301 N 
ATOM     16  N   UNL     1       4.568  -2.575   0.867  0.00  0.00    -0.372 N 
ATOM     17  H   UNL     1       0.439  -2.584   0.254  0.00  0.00    +0.147 HD
ATOM     18  H   UNL     1       4.536  -3.532   1.023  0.00  0.00    +0.161 HD
ATOM     19  H   UNL     1       4.466  -0.165  -0.241  0.00  0.00    +0.153 HD
ENDROOT
BRANCH  16  20
ATOM     20  C   UNL     1       5.678  -1.782   1.401  0.00  0.00    +0.080 C 
ATOM     21  C   UNL     1       6.804  -1.675   0.352  0.00  0.00    +0.024 C 
ATOM     22  C   UNL     1       8.108  -1.743   1.185  0.00  0.00    +0.002 C 
ATOM     23  C   UNL     1       7.760  -2.782   2.280  0.00  0.00    +0.002 C 
ATOM     24  C   UNL     1       6.286  -2.486   2.627  0.00  0.00    +0.024 C 
ENDBRANCH  16  20
BRANCH  12  25
ATOM     25  S   UNL     1       0.491  -3.163  -3.613  0.00  0.00    +0.062 S 
ATOM     26  O   UNL     1       1.173  -2.120  -4.298  0.00  0.00    -0.153 OA
ATOM     27  O   UNL     1      -0.003  -4.316  -4.280  0.00  0.00    -0.153 OA
BRANCH  25  28
ATOM     28  C   UNL     1      -0.886  -2.419  -2.805  0.00  0.00    +0.123 A 
ATOM     29  C   UNL     1      -1.997  -3.178  -2.470  0.00  0.00    +0.031 A 
ATOM     30  C   UNL     1      -3.058  -2.550  -1.835  0.00  0.00    +0.022 A 
ATOM     31  C   UNL     1      -2.973  -1.198  -1.559  0.00  0.00    +0.111 A 
ATOM     32  N   UNL     1      -1.901  -0.507  -1.893  0.00  0.00    -0.261 NA
ATOM     33  C   UNL     1      -0.871  -1.073  -2.493  0.00  0.00    +0.139 A 
ENDBRANCH  25  28
ENDBRANCH  12  25
TORSDOF 3
