REMARK  Name = ZINC08940054
REMARK  11 active torsions:
REMARK  status: ('A' for Active; 'I' for Inactive)
REMARK    1  A    between atoms: C_1  and  C_2
REMARK    2  A    between atoms: C_5  and  C_14
REMARK    3  A    between atoms: N_8  and  C_10
REMARK    4  A    between atoms: C_10  and  C_11
REMARK    5  A    between atoms: C_11  and  C_12
REMARK    6  A    between atoms: C_11  and  C_13
REMARK    7  A    between atoms: N_16  and  N_17
REMARK    8  A    between atoms: C_20  and  C_24
REMARK    9  A    between atoms: C_20  and  C_25
REMARK   10  A    between atoms: C_25  and  C_26
REMARK   11  A    between atoms: C_26  and  C_27
REMARK                            x       y       z     vdW  Elec       q    Type
REMARK                         _______ _______ _______ _____ _____    ______ ____
ROOT
ATOM      1  C   UNL     1      -4.242   7.986  -4.642  0.00  0.00    +0.267 C 
ATOM      2  O   UNL     1      -3.078   7.927  -4.294  0.00  0.00    -0.268 OA
ATOM      3  N   UNL     1      -5.188   7.330  -3.941  0.00  0.00    -0.219 N 
ATOM      4  H   UNL     1      -6.117   7.376  -4.218  0.00  0.00    +0.174 HD
ENDROOT
BRANCH   1   9
ATOM      5  C   UNL     1      -2.550  11.453  -9.105  0.00  0.00    +0.068 C 
ATOM      6  C   UNL     1      -3.966  11.021  -8.824  0.00  0.00    +0.068 A 
ATOM      7  C   UNL     1      -4.379  10.179  -7.740  0.00  0.00    +0.031 A 
ATOM      8  C   UNL     1      -3.814   9.494  -6.653  0.00  0.00    +0.032 A 
ATOM      9  C   UNL     1      -4.616   8.769  -5.823  0.00  0.00    +0.078 A 
ATOM     10  S   UNL     1      -6.235   9.006  -6.537  0.00  0.00    -0.064 S 
ATOM     11  C   UNL     1      -5.769  10.058  -7.887  0.00  0.00    +0.107 A 
ATOM     12  N   UNL     1      -6.151  10.766  -8.966  0.00  0.00    -0.257 N 
ATOM     13  N   UNL     1      -5.008  11.352  -9.525  0.00  0.00    -0.175 NA
BRANCH  12  14
ATOM     14  C   UNL     1      -7.521  10.901  -9.467  0.00  0.00    +0.147 C 
BRANCH  14  15
ATOM     15  C   UNL     1      -8.188  12.111  -8.810  0.00  0.00    +0.004 C 
ATOM     16  C   UNL     1      -9.573  12.326  -9.424  0.00  0.00    +0.009 C 
ATOM     17  C   UNL     1      -8.329  11.862  -7.308  0.00  0.00    +0.009 C 
ENDBRANCH  14  15
ENDBRANCH  12  14
ENDBRANCH   1   9
BRANCH   3  18
ATOM     18  N   UNL     1      -4.831   6.581  -2.812  0.00  0.00    -0.137 N 
ATOM     19  C   UNL     1      -4.772   5.235  -2.784  0.00  0.00    +0.263 C 
ATOM     20  O   UNL     1      -5.009   4.472  -3.696  0.00  0.00    -0.271 OA
ATOM     21  C   UNL     1      -4.346   4.872  -1.375  0.00  0.00    +0.112 C 
ATOM     22  N   UNL     1      -4.201   6.179  -0.710  0.00  0.00    -0.284 N 
ATOM     23  C   UNL     1      -4.505   7.114  -1.629  0.00  0.00    +0.326 C 
ATOM     24  O   UNL     1      -4.486   8.309  -1.408  0.00  0.00    -0.251 OA
ATOM     25  C   UNL     1      -5.422   4.033  -0.683  0.00  0.00    +0.041 C 
ATOM     26  H   UNL     1      -3.938   6.335   0.210  0.00  0.00    +0.151 HD
BRANCH  21  27
ATOM     27  C   UNL     1      -3.011   4.125  -1.391  0.00  0.00    +0.040 C 
BRANCH  27  28
ATOM     28  C   UNL     1      -2.553   3.869   0.045  0.00  0.00    +0.038 C 
BRANCH  28  29
ATOM     29  C   UNL     1      -1.238   3.133   0.029  0.00  0.00    -0.047 A 
ATOM     30  C   UNL     1      -1.219   1.751   0.017  0.00  0.00    +0.003 A 
ATOM     31  C   UNL     1      -0.013   1.076   0.008  0.00  0.00    +0.000 A 
ATOM     32  C   UNL     1       1.175   1.783   0.000  0.00  0.00    +0.000 A 
ATOM     33  C   UNL     1       1.156   3.165   0.008  0.00  0.00    +0.000 A 
ATOM     34  C   UNL     1      -0.050   3.840   0.022  0.00  0.00    +0.003 A 
ENDBRANCH  28  29
ENDBRANCH  27  28
ENDBRANCH  21  27
ENDBRANCH   3  18
TORSDOF 7
