REMARK  Name = ZINC36543371
REMARK  12 active torsions:
REMARK  status: ('A' for Active; 'I' for Inactive)
REMARK    1  A    between atoms: C_1  and  C_2
REMARK    2  A    between atoms: C_2  and  C_3
REMARK    3  A    between atoms: C_3  and  C_4
REMARK    4  A    between atoms: C_4  and  N_5
REMARK    5  A    between atoms: C_6  and  C_8
REMARK    6  A    between atoms: C_8  and  C_10
REMARK    7  A    between atoms: C_8  and  N_17
REMARK    8  A    between atoms: C_13  and  C_16
REMARK    9  A    between atoms: N_17  and  C_18
REMARK   10  A    between atoms: C_25  and  C_27
REMARK   11  A    between atoms: C_29  and  N_36
REMARK   12  A    between atoms: C_31  and  N_33
REMARK                            x       y       z     vdW  Elec       q    Type
REMARK                         _______ _______ _______ _____ _____    ______ ____
ROOT
ATOM      1  N   UNL     1       2.783  -5.817  -4.028  0.00  0.00    -0.250 N 
ATOM      2  C   UNL     1       3.820  -6.154  -3.236  0.00  0.00    +0.252 C 
ATOM      3  O   UNL     1       4.058  -5.503  -2.237  0.00  0.00    -0.270 OA
ENDROOT
BRANCH   1   4
ATOM      4  C   UNL     1       2.464  -6.608  -5.137  0.00  0.00    +0.056 A 
ATOM      5  C   UNL     1       2.764  -6.165  -6.418  0.00  0.00    +0.025 A 
ATOM      6  C   UNL     1       2.447  -6.949  -7.511  0.00  0.00    +0.002 A 
ATOM      7  C   UNL     1       1.832  -8.174  -7.330  0.00  0.00    +0.002 A 
ATOM      8  C   UNL     1       1.531  -8.619  -6.056  0.00  0.00    +0.022 A 
ATOM      9  C   UNL     1       1.851  -7.843  -4.958  0.00  0.00    +0.062 A 
ATOM     10 CL   UNL     1       1.481  -8.405  -3.358  0.00  0.00    -0.082 Cl
ENDBRANCH   1   4
BRANCH   2  11
ATOM     11  C   UNL     1       4.667  -7.316  -3.580  0.00  0.00    +0.042 A 
ATOM     12  C   UNL     1       4.970  -7.590  -4.915  0.00  0.00    +0.046 A 
ATOM     13  C   UNL     1       5.761  -8.675  -5.230  0.00  0.00    +0.129 A 
ATOM     14  C   UNL     1       6.254  -9.491  -4.227  0.00  0.00    +0.065 A 
ATOM     15  C   UNL     1       5.957  -9.224  -2.902  0.00  0.00    +0.129 A 
ATOM     16  C   UNL     1       5.172  -8.139  -2.573  0.00  0.00    +0.046 A 
BRANCH  15  17
ATOM     17  N   UNL     1       6.489 -10.102  -1.835  0.00  0.00    +0.057 N 
ATOM     18  O   UNL     1       7.181 -11.050  -2.122  0.00  0.00    -0.126 OA
ATOM     19  O   UNL     1       6.230  -9.870  -0.677  0.00  0.00    -0.126 OA
ENDBRANCH  15  17
BRANCH  13  20
ATOM     20  N   UNL     1       6.083  -8.969  -6.645  0.00  0.00    +0.057 N 
ATOM     21  O   UNL     1       5.652  -8.258  -7.523  0.00  0.00    -0.126 OA
ATOM     22  O   UNL     1       6.776  -9.919  -6.922  0.00  0.00    -0.126 OA
ENDBRANCH  13  20
ENDBRANCH   2  11
BRANCH   1  23
ATOM     23  C   UNL     1       1.991  -4.621  -3.729  0.00  0.00    +0.197 C 
BRANCH  23  24
ATOM     24  C   UNL     1       0.993  -4.391  -4.835  0.00  0.00    -0.018 A 
ATOM     25  C   UNL     1       0.049  -5.358  -5.126  0.00  0.00    +0.006 A 
ATOM     26  C   UNL     1      -0.867  -5.147  -6.140  0.00  0.00    +0.004 A 
ATOM     27  C   UNL     1      -0.839  -3.968  -6.861  0.00  0.00    -0.050 A 
ATOM     28  C   UNL     1       0.104  -3.000  -6.569  0.00  0.00    +0.004 A 
ATOM     29  C   UNL     1       1.017  -3.210  -5.553  0.00  0.00    +0.006 A 
ATOM     30  C   UNL     1      -1.837  -3.738  -7.967  0.00  0.00    +0.044 C 
ENDBRANCH  23  24
BRANCH  23  32
ATOM     31  N   UNL     1       0.674  -3.764  -1.819  0.00  0.00    -0.313 N 
ATOM     32  C   UNL     1       1.262  -4.815  -2.425  0.00  0.00    +0.238 C 
ATOM     33  O   UNL     1       1.203  -5.917  -1.921  0.00  0.00    -0.273 OA
ATOM     34  H   UNL     1       0.721  -2.883  -2.222  0.00  0.00    +0.149 HD
BRANCH  31  35
ATOM     35  C   UNL     1      -0.035  -3.953  -0.551  0.00  0.00    +0.104 C 
BRANCH  35  36
ATOM     36  C   UNL     1      -0.605  -2.613  -0.081  0.00  0.00    +0.018 C 
BRANCH  36  38
ATOM     37  C   UNL     1      -1.915  -1.470   1.713  0.00  0.00    +0.004 C 
ATOM     38  C   UNL     1      -1.346  -2.810   1.243  0.00  0.00    -0.002 C 
ENDBRANCH  36  38
ENDBRANCH  35  36
ENDBRANCH  31  35
ENDBRANCH  23  32
ENDBRANCH   1  23
TORSDOF 10
