REMARK  Name = ZINC15134827
REMARK  9 active torsions:
REMARK  status: ('A' for Active; 'I' for Inactive)
REMARK    1  A    between atoms: C_1  and  O_2
REMARK    2  A    between atoms: O_2  and  C_3
REMARK    3  A    between atoms: C_8  and  O_9
REMARK    4  A    between atoms: O_9  and  C_10
REMARK    5  A    between atoms: C_10  and  C_11
REMARK    6  A    between atoms: N_13  and  N_14
REMARK    7  A    between atoms: C_15  and  C_16
REMARK    8  A    between atoms: C_18  and  O_25
REMARK    9  A    between atoms: C_21  and  N_22
REMARK                            x       y       z     vdW  Elec       q    Type
REMARK                         _______ _______ _______ _____ _____    ______ ____
ROOT
ATOM      1  C   UNL     1      -1.727  -3.837   0.960  0.00  0.00    +0.270 C 
ATOM      2  O   UNL     1      -0.945  -4.073   1.856  0.00  0.00    -0.270 OA
ATOM      3  N   UNL     1      -2.979  -4.334   1.010  0.00  0.00    -0.204 N 
ATOM      4  H   UNL     1      -3.604  -4.145   0.293  0.00  0.00    +0.177 HD
ENDROOT
BRANCH   3   5
ATOM      5  N   UNL     1      -3.377  -5.123   2.097  0.00  0.00    -0.188 NA
ATOM      6  C   UNL     1      -4.582  -5.601   2.145  0.00  0.00    +0.140 C 
BRANCH   6   7
ATOM      7  C   UNL     1      -5.000  -6.432   3.289  0.00  0.00    +0.028 A 
ATOM      8  C   UNL     1      -4.070  -6.807   4.261  0.00  0.00    +0.057 A 
ATOM      9  C   UNL     1      -4.471  -7.586   5.332  0.00  0.00    +0.118 A 
ATOM     10  C   UNL     1      -5.795  -7.993   5.439  0.00  0.00    +0.047 A 
ATOM     11  C   UNL     1      -6.717  -7.624   4.478  0.00  0.00    +0.037 A 
ATOM     12  C   UNL     1      -6.330  -6.842   3.409  0.00  0.00    +0.135 A 
BRANCH  12  13
ATOM     13  N   UNL     1      -7.323  -6.444   2.385  0.00  0.00    +0.057 N 
ATOM     14  O   UNL     1      -8.493  -6.705   2.544  0.00  0.00    -0.126 OA
ATOM     15  O   UNL     1      -6.964  -5.857   1.391  0.00  0.00    -0.126 OA
ENDBRANCH  12  13
BRANCH   9  16
ATOM     16  O   UNL     1      -3.569  -7.954   6.280  0.00  0.00    -0.507 OA
ATOM     17  H   UNL     1      -3.495  -7.330   7.015  0.00  0.00    +0.292 HD
ENDBRANCH   9  16
ENDBRANCH   6   7
ENDBRANCH   3   5
BRANCH   1  18
ATOM     18  C   UNL     1      -1.299  -2.988  -0.210  0.00  0.00    +0.326 C 
BRANCH  18  19
ATOM     19  O   UNL     1       0.060  -2.585  -0.033  0.00  0.00    -0.478 OA
BRANCH  19  25
ATOM     20  C   UNL     1       0.515  -0.421  -0.925  0.00  0.00    +0.164 A 
ATOM     21  C   UNL     1       1.076   0.367  -1.917  0.00  0.00    +0.064 A 
ATOM     22  C   UNL     1       1.719  -0.224  -2.989  0.00  0.00    +0.023 A 
ATOM     23  C   UNL     1       1.804  -1.603  -3.074  0.00  0.00    +0.034 A 
ATOM     24  C   UNL     1       1.246  -2.395  -2.088  0.00  0.00    +0.064 A 
ATOM     25  C   UNL     1       0.605  -1.807  -1.008  0.00  0.00    +0.177 A 
ATOM     26 BR   UNL     1       1.363  -4.278  -2.208  0.00  0.00    -0.046 Br
ATOM     27 BR   UNL     1       2.484   0.853  -4.342  0.00  0.00    -0.050 Br
BRANCH  20  29
ATOM     28  C   UNL     1      -0.171   1.587   0.149  0.00  0.00    +0.277 C 
ATOM     29  O   UNL     1      -0.117   0.159   0.130  0.00  0.00    -0.491 OA
ENDBRANCH  20  29
ENDBRANCH  19  25
ENDBRANCH  18  19
ENDBRANCH   1  18
TORSDOF 8
