REMARK  Name = ZINC23818498
REMARK  8 active torsions:
REMARK  status: ('A' for Active; 'I' for Inactive)
REMARK    1  A    between atoms: C_3  and  C_6
REMARK    2  A    between atoms: C_6  and  N_7
REMARK    3  A    between atoms: C_8  and  C_10
REMARK    4  A    between atoms: C_10  and  N_11
REMARK    5  A    between atoms: N_14  and  S_17
REMARK    6  A    between atoms: S_17  and  C_20
REMARK    7  A    between atoms: C_22  and  C_30
REMARK    8  A    between atoms: C_24  and  C_26
REMARK                            x       y       z     vdW  Elec       q    Type
REMARK                         _______ _______ _______ _____ _____    ______ ____
ROOT
ATOM      1  N   UNL     1      -1.007   3.270  -1.025  0.00  0.00    +0.387 N 
ATOM      2  C   UNL     1      -0.898   1.815  -0.852  0.00  0.00    -0.061 C 
ATOM      3  C   UNL     1      -0.242   1.513   0.499  0.00  0.00    +0.091 C 
ATOM      4  N   UNL     1      -0.993   2.209   1.554  0.00  0.00    -0.180 NA
ATOM      5  C   UNL     1      -1.266   3.645   1.381  0.00  0.00    +0.091 C 
ATOM      6  C   UNL     1      -1.882   3.863  -0.005  0.00  0.00    -0.061 C 
ATOM      7  H   UNL     1      -0.002   3.699  -0.895  0.00  0.00    -0.081 HD
ENDROOT
BRANCH   4   8
ATOM      8  S   UNL     1      -1.523   1.398   2.897  0.00  0.00    +0.061 S 
ATOM      9  O   UNL     1      -2.628   2.132   3.406  0.00  0.00    -0.153 OA
ATOM     10  O   UNL     1      -1.622   0.028   2.532  0.00  0.00    -0.153 OA
BRANCH   8  11
ATOM     11  C   UNL     1      -0.247   1.505   4.108  0.00  0.00    +0.107 A 
ATOM     12  C   UNL     1       0.734   0.533   4.166  0.00  0.00    +0.041 A 
ATOM     13  C   UNL     1       1.737   0.620   5.113  0.00  0.00    +0.057 A 
ATOM     14  C   UNL     1       1.754   1.674   6.008  0.00  0.00    +0.024 A 
ATOM     15  C   UNL     1       0.770   2.643   5.952  0.00  0.00    +0.057 A 
ATOM     16  C   UNL     1      -0.231   2.559   5.003  0.00  0.00    +0.041 A 
BRANCH  15  17
ATOM     17  C   UNL     1       0.789   3.792   6.927  0.00  0.00    +0.417 C 
ATOM     18  F   UNL     1       0.057   3.447   8.069  0.00  0.00    -0.166 F 
ATOM     19  F   UNL     1       2.110   4.076   7.289  0.00  0.00    -0.166 F 
ATOM     20  F   UNL     1       0.217   4.920   6.330  0.00  0.00    -0.166 F 
ENDBRANCH  15  17
BRANCH  13  21
ATOM     21  C   UNL     1       2.810  -0.436   5.173  0.00  0.00    +0.417 C 
ATOM     22  F   UNL     1       3.704  -0.136   6.207  0.00  0.00    -0.166 F 
ATOM     23  F   UNL     1       2.224  -1.684   5.411  0.00  0.00    -0.166 F 
ATOM     24  F   UNL     1       3.500  -0.470   3.956  0.00  0.00    -0.166 F 
ENDBRANCH  13  21
ENDBRANCH   8  11
ENDBRANCH   4   8
BRANCH   1  25
ATOM     25  C   UNL     1      -1.472   3.606  -2.377  0.00  0.00    +0.019 C 
BRANCH  25  27
ATOM     26  N   UNL     1      -3.552   3.382  -3.697  0.00  0.00    -0.310 N 
ATOM     27  C   UNL     1      -2.874   3.090  -2.569  0.00  0.00    +0.197 C 
ATOM     28  O   UNL     1      -3.393   2.410  -1.709  0.00  0.00    -0.278 OA
ATOM     29  H   UNL     1      -3.081   3.998  -4.477  0.00  0.00    +0.149 HD
BRANCH  26  30
ATOM     30  C   UNL     1      -4.915   2.880  -3.884  0.00  0.00    +0.178 C 
BRANCH  30  33
ATOM     31  C   UNL     1      -5.959   3.479  -7.367  0.00  0.00    +0.041 A 
ATOM     32  C   UNL     1      -5.323   2.687  -6.383  0.00  0.00    +0.046 A 
ATOM     33  C   UNL     1      -5.444   3.345  -5.216  0.00  0.00    +0.122 A 
ATOM     34  O   UNL     1      -6.120   4.484  -5.439  0.00  0.00    -0.466 OA
ATOM     35  C   UNL     1      -6.430   4.573  -6.742  0.00  0.00    +0.195 A 
ENDBRANCH  30  33
ENDBRANCH  26  30
ENDBRANCH  25  27
ENDBRANCH   1  25
TORSDOF 8
