REMARK  Name = ZINC30973716
REMARK  10 active torsions:
REMARK  status: ('A' for Active; 'I' for Inactive)
REMARK    1  A    between atoms: C_1  and  C_2
REMARK    2  A    between atoms: C_7  and  C_8
REMARK    3  A    between atoms: C_10  and  C_13
REMARK    4  A    between atoms: C_13  and  N_14
REMARK    5  A    between atoms: C_17  and  C_20
REMARK    6  A    between atoms: N_22  and  C_23
REMARK    7  A    between atoms: C_23  and  C_25
REMARK    8  A    between atoms: C_23  and  C_26
REMARK    9  A    between atoms: C_29  and  N_32
REMARK   10  A    between atoms: C_36  and  C_39
REMARK                            x       y       z     vdW  Elec       q    Type
REMARK                         _______ _______ _______ _____ _____    ______ ____
ROOT
ATOM      1  N   UNL     1      -1.602  -1.204  -1.374  0.00  0.00    +0.386 N 
ATOM      2  C   UNL     1      -2.082   0.009  -2.046  0.00  0.00    -0.077 C 
ATOM      3  C   UNL     1      -2.355  -0.296  -3.520  0.00  0.00    -0.006 C 
ATOM      4  C   UNL     1      -3.405  -1.407  -3.620  0.00  0.00    +0.071 C 
ATOM      5  C   UNL     1      -2.900  -2.644  -2.871  0.00  0.00    -0.006 C 
ATOM      6  C   UNL     1      -2.611  -2.270  -1.415  0.00  0.00    -0.077 C 
ATOM      7  H   UNL     1      -0.715  -1.561  -1.919  0.00  0.00    -0.081 HD
ENDROOT
BRANCH   4   8
ATOM      8  C   UNL     1      -3.634  -1.755  -5.069  0.00  0.00    +0.216 C 
ATOM      9  O   UNL     1      -3.416  -2.880  -5.464  0.00  0.00    -0.276 OA
ATOM     10  N   UNL     1      -4.081  -0.815  -5.925  0.00  0.00    -0.309 N 
ATOM     11  H   UNL     1      -4.279   0.206  -5.566  0.00  0.00    +0.149 HD
BRANCH  10  12
ATOM     12  C   UNL     1      -4.304  -1.152  -7.332  0.00  0.00    +0.100 C 
ATOM     13  C   UNL     1      -2.989  -1.019  -8.103  0.00  0.00    +0.033 C 
BRANCH  12  14
ATOM     14  C   UNL     1      -5.327  -0.214  -7.918  0.00  0.00    -0.027 A 
ATOM     15  C   UNL     1      -5.309   1.126  -7.578  0.00  0.00    +0.007 A 
ATOM     16  C   UNL     1      -6.242   1.990  -8.117  0.00  0.00    +0.023 A 
ATOM     17  C   UNL     1      -7.206   1.510  -8.994  0.00  0.00    +0.030 A 
ATOM     18  C   UNL     1      -7.225   0.162  -9.330  0.00  0.00    +0.023 A 
ATOM     19  C   UNL     1      -6.286  -0.696  -8.791  0.00  0.00    +0.007 A 
BRANCH  17  20
ATOM     20  N   UNL     1      -8.154   2.379  -9.537  0.00  0.00    -0.330 N 
ATOM     21  C   UNL     1      -9.518   1.916  -9.250  0.00  0.00    +0.105 C 
ATOM     22  C   UNL     1     -10.525   2.963  -9.730  0.00  0.00    +0.019 C 
ATOM     23  C   UNL     1     -10.347   3.184 -11.235  0.00  0.00    +0.006 C 
ATOM     24  C   UNL     1      -8.905   3.619 -11.512  0.00  0.00    +0.003 C 
ATOM     25  C   UNL     1      -7.945   2.553 -10.980  0.00  0.00    +0.108 C 
ATOM     26  C   UNL     1      -8.702   3.784 -13.019  0.00  0.00    +0.009 C 
ENDBRANCH  17  20
ENDBRANCH  12  14
ENDBRANCH  10  12
ENDBRANCH   4   8
BRANCH   1  27
ATOM     27  C   UNL     1      -1.198  -0.916   0.009  0.00  0.00    +0.022 C 
BRANCH  27  30
ATOM     28  C   UNL     1       1.282   1.686  -0.001  0.00  0.00    +0.202 A 
ATOM     29  N   UNL     1      -0.016   1.306   0.009  0.00  0.00    -0.193 NA
ATOM     30  C   UNL     1       0.002  -0.004   0.002  0.00  0.00    +0.211 A 
ATOM     31  O   UNL     1       1.285  -0.380  -0.012  0.00  0.00    -0.340 OA
ATOM     32  N   UNL     1       2.004   0.596  -0.014  0.00  0.00    -0.056 NA
BRANCH  28  39
ATOM     33  C   UNL     1       4.133   2.172  -0.025  0.00  0.00    +0.044 C 
ATOM     34  C   UNL     1       3.162   3.324  -0.011  0.00  0.00    -0.040 A 
ATOM     35  C   UNL     1       3.630   4.623  -0.009  0.00  0.00    +0.004 A 
ATOM     36  C   UNL     1       2.740   5.681   0.004  0.00  0.00    +0.000 A 
ATOM     37  C   UNL     1       1.377   5.445   0.016  0.00  0.00    +0.001 A 
ATOM     38  C   UNL     1       0.898   4.151   0.009  0.00  0.00    +0.012 A 
ATOM     39  C   UNL     1       1.791   3.081   0.001  0.00  0.00    +0.025 A 
ENDBRANCH  28  39
ENDBRANCH  27  30
ENDBRANCH   1  27
TORSDOF 7
