REMARK  Name = ZINC01869668
REMARK  7 active torsions:
REMARK  status: ('A' for Active; 'I' for Inactive)
REMARK    1  A    between atoms: C_1  and  O_2
REMARK    2  A    between atoms: O_2  and  C_3
REMARK    3  A    between atoms: C_3  and  C_5
REMARK    4  A    between atoms: C_9  and  N_10
REMARK    5  A    between atoms: C_11  and  C_13
REMARK    6  A    between atoms: C_18  and  C_31
REMARK    7  A    between atoms: C_21  and  C_24
REMARK                            x       y       z     vdW  Elec       q    Type
REMARK                         _______ _______ _______ _____ _____    ______ ____
ROOT
ATOM      1  C   UNL     1      -1.319  -2.638  -4.904  0.00  0.00    +0.149 A 
ATOM      2  C   UNL     1      -1.367  -3.410  -6.087  0.00  0.00    +0.078 A 
ATOM      3  C   UNL     1      -1.341  -2.557  -7.130  0.00  0.00    +0.119 A 
ATOM      4  N   UNL     1      -1.282  -1.284  -6.638  0.00  0.00    -0.238 N 
ATOM      5  N   UNL     1      -1.273  -1.362  -5.246  0.00  0.00    -0.164 NA
ATOM      6  C   UNL     1      -1.244  -0.087  -7.482  0.00  0.00    +0.215 C 
ATOM      7  C   UNL     1      -1.759  -0.449  -8.880  0.00  0.00    +0.063 C 
ATOM      8  C   UNL     1      -1.038  -1.701  -9.393  0.00  0.00    +0.104 C 
ATOM      9  N   UNL     1      -1.367  -2.830  -8.501  0.00  0.00    -0.322 N 
ATOM     10  H   UNL     1      -1.587  -3.710  -8.845  0.00  0.00    +0.148 HD
ENDROOT
BRANCH   8  11
ATOM     11  C   UNL     1       0.450  -1.465  -9.391  0.00  0.00    -0.027 A 
ATOM     12  C   UNL     1       1.167  -1.585  -8.216  0.00  0.00    +0.006 A 
ATOM     13  C   UNL     1       2.532  -1.369  -8.213  0.00  0.00    +0.015 A 
ATOM     14  C   UNL     1       3.181  -1.032  -9.388  0.00  0.00    +0.018 A 
ATOM     15  C   UNL     1       2.463  -0.912 -10.564  0.00  0.00    +0.015 A 
ATOM     16  C   UNL     1       1.099  -1.134 -10.566  0.00  0.00    +0.006 A 
ATOM     17 BR   UNL     1       5.049  -0.736  -9.386  0.00  0.00    -0.050 Br
ENDBRANCH   8  11
BRANCH   1  19
ATOM     18  N   UNL     1      -1.282  -2.317  -2.478  0.00  0.00    -0.274 N 
ATOM     19  C   UNL     1      -1.325  -3.166  -3.525  0.00  0.00    +0.269 C 
ATOM     20  O   UNL     1      -1.370  -4.365  -3.333  0.00  0.00    -0.268 OA
ATOM     21  H   UNL     1      -1.246  -1.360  -2.631  0.00  0.00    +0.156 HD
BRANCH  18  26
ATOM     22  C   UNL     1      -1.248  -2.096   0.003  0.00  0.00    +0.091 A 
ATOM     23  C   UNL     1      -1.271  -2.859   1.239  0.00  0.00    -0.021 A 
ATOM     24  C   UNL     1      -1.323  -4.197   1.062  0.00  0.00    -0.004 A 
ATOM     25  S   UNL     1      -1.342  -4.417  -0.693  0.00  0.00    -0.077 S 
ATOM     26  C   UNL     1      -1.288  -2.812  -1.185  0.00  0.00    +0.087 A 
ATOM     27  C   UNL     1      -1.357  -5.245   2.130  0.00  0.00    +0.043 C 
ATOM     28  C   UNL     1      -0.942  -4.594   3.458  0.00  0.00    +0.005 C 
ATOM     29  C   UNL     1      -1.728  -3.292   3.638  0.00  0.00    +0.005 C 
ATOM     30  C   UNL     1      -1.241  -2.246   2.631  0.00  0.00    +0.037 C 
BRANCH  22  31
ATOM     31  C   UNL     1      -1.191  -0.633   0.010  0.00  0.00    +0.342 C 
ATOM     32  O   UNL     1      -2.220   0.016   0.023  0.00  0.00    -0.245 OA
BRANCH  31  34
ATOM     33  C   UNL     1      -0.017   1.425   0.010  0.00  0.00    +0.280 C 
ATOM     34  O   UNL     1       0.002  -0.004   0.002  0.00  0.00    -0.464 OA
ENDBRANCH  31  34
ENDBRANCH  22  31
ENDBRANCH  18  26
ENDBRANCH   1  19
BRANCH   6  35
ATOM     35  C   UNL     1      -2.133   0.999  -6.872  0.00  0.00    +0.412 C 
ATOM     36  F   UNL     1      -1.667   1.318  -5.592  0.00  0.00    -0.168 F 
ATOM     37  F   UNL     1      -2.096   2.141  -7.680  0.00  0.00    -0.168 F 
ATOM     38  F   UNL     1      -3.449   0.531  -6.787  0.00  0.00    -0.168 F 
ENDBRANCH   6  35
TORSDOF 6
