REMARK  Name = ZINC10868942
REMARK  16 active torsions:
REMARK  status: ('A' for Active; 'I' for Inactive)
REMARK    1  A    between atoms: C_1  and  C_2
REMARK    2  A    between atoms: C_2  and  O_3
REMARK    3  A    between atoms: O_3  and  C_4
REMARK    4  A    between atoms: C_4  and  C_6
REMARK    5  A    between atoms: C_7  and  C_22
REMARK    6  A    between atoms: C_12  and  C_14
REMARK    7  A    between atoms: C_17  and  O_20
REMARK    8  A    between atoms: O_20  and  C_21
REMARK    9  A    between atoms: C_22  and  O_23
REMARK   10  A    between atoms: O_23  and  C_24
REMARK   11  A    between atoms: C_24  and  C_26
REMARK   12  A    between atoms: C_27  and  C_28
REMARK   13  A    between atoms: C_30  and  O_36
REMARK   14  A    between atoms: C_33  and  O_34
REMARK   15  A    between atoms: O_34  and  C_35
REMARK   16  A    between atoms: O_36  and  C_37
REMARK                            x       y       z     vdW  Elec       q    Type
REMARK                         _______ _______ _______ _____ _____    ______ ____
ROOT
ATOM      1  C   UNL     1      -3.077   0.916  -1.395  0.00  0.00    +0.081 C 
ATOM      2  C   UNL     1      -4.286   1.478  -1.609  0.00  0.00    +0.061 C 
ATOM      3  N   UNL     1      -4.994   2.038  -0.584  0.00  0.00    -0.269 N 
ATOM      4  C   UNL     1      -4.562   2.076   0.683  0.00  0.00    +0.304 C 
ATOM      5  O   UNL     1      -5.264   2.597   1.528  0.00  0.00    -0.252 OA
ATOM      6  N   UNL     1      -3.375   1.556   1.052  0.00  0.00    -0.288 N 
ATOM      7  C   UNL     1      -2.534   0.928   0.020  0.00  0.00    +0.144 C 
ATOM      8  H   UNL     1      -5.858   2.431  -0.785  0.00  0.00    +0.156 HD
ATOM      9  H   UNL     1      -3.082   1.594   1.976  0.00  0.00    +0.151 HD
ENDROOT
BRANCH   7  10
ATOM     10  C   UNL     1      -1.208   1.644   0.002  0.00  0.00    -0.022 A 
ATOM     11  C   UNL     1      -0.031   0.917  -0.004  0.00  0.00    +0.009 A 
ATOM     12  C   UNL     1       1.185   1.571  -0.026  0.00  0.00    +0.046 A 
ATOM     13  C   UNL     1       1.226   2.958  -0.037  0.00  0.00    +0.120 A 
ATOM     14  C   UNL     1       0.045   3.684  -0.025  0.00  0.00    +0.046 A 
ATOM     15  C   UNL     1      -1.170   3.026  -0.003  0.00  0.00    +0.009 A 
BRANCH  13  16
ATOM     16  O   UNL     1       2.422   3.603  -0.059  0.00  0.00    -0.495 OA
ATOM     17  C   UNL     1       2.388   5.032  -0.069  0.00  0.00    +0.277 C 
ENDBRANCH  13  16
ENDBRANCH   7  10
BRANCH   1  18
ATOM     18  C   UNL     1      -2.342   0.336  -2.455  0.00  0.00    +0.339 C 
ATOM     19  O   UNL     1      -2.837   0.254  -3.564  0.00  0.00    -0.245 OA
BRANCH  18  20
ATOM     20  O   UNL     1      -1.093  -0.126  -2.238  0.00  0.00    -0.462 OA
BRANCH  20  22
ATOM     21  C   UNL     1       0.981  -1.163  -2.917  0.00  0.00    +0.048 C 
ATOM     22  C   UNL     1      -0.410  -0.699  -3.354  0.00  0.00    +0.229 C 
ENDBRANCH  20  22
ENDBRANCH  18  20
ENDBRANCH   1  18
BRANCH   2  23
ATOM     23  C   UNL     1      -4.864   1.488  -3.000  0.00  0.00    +0.283 C 
BRANCH  23  24
ATOM     24  O   UNL     1      -6.114   2.181  -2.993  0.00  0.00    -0.456 OA
BRANCH  24  25
ATOM     25  C   UNL     1      -6.766   2.279  -4.170  0.00  0.00    +0.332 C 
ATOM     26  O   UNL     1      -6.286   1.790  -5.175  0.00  0.00    -0.246 OA
BRANCH  25  27
ATOM     27  C   UNL     1      -8.011   2.954  -4.235  0.00  0.00    +0.092 C 
ATOM     28  C   UNL     1      -8.665   3.053  -5.413  0.00  0.00    +0.018 C 
BRANCH  28  29
ATOM     29  C   UNL     1      -9.956   3.751  -5.481  0.00  0.00    +0.020 A 
ATOM     30  C   UNL     1     -10.511   4.316  -4.328  0.00  0.00    +0.057 A 
ATOM     31  C   UNL     1     -11.726   4.972  -4.400  0.00  0.00    +0.121 A 
ATOM     32  C   UNL     1     -12.395   5.073  -5.614  0.00  0.00    +0.049 A 
ATOM     33  C   UNL     1     -11.854   4.518  -6.758  0.00  0.00    +0.050 A 
ATOM     34  C   UNL     1     -10.635   3.861  -6.704  0.00  0.00    +0.127 A 
BRANCH  34  35
ATOM     35  O   UNL     1     -10.102   3.322  -7.831  0.00  0.00    -0.495 OA
ATOM     36  C   UNL     1     -10.850   3.474  -9.039  0.00  0.00    +0.277 C 
ENDBRANCH  34  35
BRANCH  31  37
ATOM     37  O   UNL     1     -12.267   5.521  -3.280  0.00  0.00    -0.495 OA
ATOM     38  C   UNL     1     -13.524   6.185  -3.426  0.00  0.00    +0.277 C 
ENDBRANCH  31  37
ENDBRANCH  28  29
ENDBRANCH  25  27
ENDBRANCH  24  25
ENDBRANCH  23  24
ENDBRANCH   2  23
TORSDOF 12
