REMARK  Name = ZINC12872160
REMARK  8 active torsions:
REMARK  status: ('A' for Active; 'I' for Inactive)
REMARK    1  A    between atoms: C_1  and  C_2
REMARK    2  A    between atoms: C_2  and  C_3
REMARK    3  A    between atoms: C_2  and  C_4
REMARK    4  A    between atoms: C_7  and  C_10
REMARK    5  A    between atoms: C_12  and  C_15
REMARK    6  A    between atoms: N_17  and  N_18
REMARK    7  A    between atoms: C_21  and  C_25
REMARK    8  A    between atoms: C_21  and  C_26
REMARK                            x       y       z     vdW  Elec       q    Type
REMARK                         _______ _______ _______ _____ _____    ______ ____
ROOT
ATOM      1  C   UNL     1      -3.152   1.595   1.151  0.00  0.00    +0.280 C 
ATOM      2  O   UNL     1      -2.665   2.049   2.169  0.00  0.00    -0.267 OA
ATOM      3  N   UNL     1      -2.421   1.541   0.020  0.00  0.00    -0.218 N 
ATOM      4  H   UNL     1      -2.809   1.179  -0.792  0.00  0.00    +0.174 HD
ENDROOT
BRANCH   3   5
ATOM      5  N   UNL     1      -1.099   2.007   0.017  0.00  0.00    -0.137 N 
ATOM      6  C   UNL     1      -0.014   1.208   0.009  0.00  0.00    +0.267 C 
ATOM      7  O   UNL     1       0.002  -0.004   0.002  0.00  0.00    -0.271 OA
ATOM      8  C   UNL     1       1.181   2.140   0.002  0.00  0.00    +0.137 C 
ATOM      9  N   UNL     1       0.574   3.482   0.015  0.00  0.00    -0.280 N 
ATOM     10  C   UNL     1      -0.759   3.301   0.026  0.00  0.00    +0.327 C 
ATOM     11  O   UNL     1      -1.564   4.212   0.038  0.00  0.00    -0.251 OA
ATOM     12  C   UNL     1       2.038   1.925   1.252  0.00  0.00    +0.047 C 
ATOM     13  H   UNL     1       1.044   4.331   0.015  0.00  0.00    +0.152 HD
BRANCH   8  14
ATOM     14  C   UNL     1       2.002   1.941  -1.246  0.00  0.00    -0.015 A 
ATOM     15  C   UNL     1       2.047   0.700  -1.852  0.00  0.00    +0.006 A 
ATOM     16  C   UNL     1       2.796   0.518  -3.000  0.00  0.00    +0.000 A 
ATOM     17  C   UNL     1       3.508   1.576  -3.535  0.00  0.00    +0.000 A 
ATOM     18  C   UNL     1       3.467   2.816  -2.926  0.00  0.00    +0.000 A 
ATOM     19  C   UNL     1       2.714   2.998  -1.781  0.00  0.00    +0.006 A 
ENDBRANCH   8  14
ENDBRANCH   3   5
BRANCH   1  22
ATOM     20  C   UNL     1      -6.325   0.172   0.063  0.00  0.00    +0.109 A 
ATOM     21  N   UNL     1      -5.080   0.609   0.049  0.00  0.00    -0.234 NA
ATOM     22  C   UNL     1      -4.541   1.105   1.153  0.00  0.00    +0.135 A 
ATOM     23  C   UNL     1      -5.293   1.151   2.301  0.00  0.00    +0.080 A 
ATOM     24  S   UNL     1      -6.797   0.474   1.758  0.00  0.00    -0.075 S 
BRANCH  20  28
ATOM     25  C   UNL     1      -8.611  -1.512  -3.097  0.00  0.00    -0.045 A 
ATOM     26  C   UNL     1      -9.175  -1.364  -1.842  0.00  0.00    +0.004 A 
ATOM     27  C   UNL     1      -8.438  -0.818  -0.812  0.00  0.00    +0.011 A 
ATOM     28  C   UNL     1      -7.121  -0.414  -1.037  0.00  0.00    +0.007 A 
ATOM     29  C   UNL     1      -6.561  -0.561  -2.307  0.00  0.00    +0.011 A 
ATOM     30  C   UNL     1      -7.307  -1.114  -3.327  0.00  0.00    +0.004 A 
BRANCH  25  32
ATOM     31  C   UNL     1      -9.538  -1.095  -5.359  0.00  0.00    +0.012 C 
ATOM     32  C   UNL     1      -9.423  -2.108  -4.218  0.00  0.00    +0.013 C 
ATOM     33  C   UNL     1      -8.733  -3.375  -4.729  0.00  0.00    +0.012 C 
ENDBRANCH  25  32
ENDBRANCH  20  28
ENDBRANCH   1  22
TORSDOF 5
