REMARK  Name = ZINC59990139
REMARK  12 active torsions:
REMARK  status: ('A' for Active; 'I' for Inactive)
REMARK    1  A    between atoms: C_1  and  C_2
REMARK    2  A    between atoms: C_5  and  C_34
REMARK    3  A    between atoms: N_8  and  C_10
REMARK    4  A    between atoms: C_10  and  C_11
REMARK    5  A    between atoms: C_10  and  C_12
REMARK    6  A    between atoms: C_10  and  C_13
REMARK    7  A    between atoms: C_13  and  N_14
REMARK    8  A    between atoms: C_15  and  C_17
REMARK    9  A    between atoms: C_17  and  C_18
REMARK   10  A    between atoms: C_18  and  N_19
REMARK   11  A    between atoms: N_19  and  S_20
REMARK   12  A    between atoms: S_20  and  C_23
REMARK                            x       y       z     vdW  Elec       q    Type
REMARK                         _______ _______ _______ _____ _____    ______ ____
ROOT
ATOM      1  C   UNL     1       3.762   1.904   2.165  0.00  0.00    +0.112 C 
ENDROOT
BRANCH   1   3
ATOM      2  N   UNL     1       2.801  -0.371   2.305  0.00  0.00    -0.317 N 
ATOM      3  C   UNL     1       3.883   0.403   2.090  0.00  0.00    +0.214 C 
ATOM      4  O   UNL     1       4.953  -0.107   1.837  0.00  0.00    -0.276 OA
ATOM      5  H   UNL     1       1.945   0.037   2.508  0.00  0.00    +0.149 HD
BRANCH   2   6
ATOM      6  C   UNL     1       2.918  -1.830   2.232  0.00  0.00    +0.092 C 
BRANCH   6   7
ATOM      7  C   UNL     1       1.589  -2.469   2.639  0.00  0.00    -0.055 C 
ATOM      8  C   UNL     1       1.737  -3.992   2.646  0.00  0.00    -0.008 C 
ATOM      9  C   UNL     1       0.503  -2.067   1.640  0.00  0.00    -0.008 C 
BRANCH   7  15
ATOM     10  C   UNL     1       3.028  -2.192   7.310  0.00  0.00    +0.005 C 
ATOM     11  C   UNL     1       1.925  -1.815   6.319  0.00  0.00    -0.031 C 
ATOM     12  C   UNL     1       0.595  -2.417   6.782  0.00  0.00    +0.003 C 
ATOM     13  C   UNL     1      -0.486  -2.101   5.745  0.00  0.00    -0.031 C 
ATOM     14  C   UNL     1      -0.049  -2.640   4.381  0.00  0.00    -0.075 C 
ATOM     15  N   UNL     1       1.214  -2.007   3.982  0.00  0.00    +0.384 N 
ATOM     16  C   UNL     1       2.273  -2.364   4.934  0.00  0.00    -0.075 C 
ATOM     17  C   UNL     1      -0.682  -0.586   5.657  0.00  0.00    +0.005 C 
ATOM     18  H   UNL     1       1.098  -1.005   3.971  0.00  0.00    -0.081 HD
ENDBRANCH   7  15
ENDBRANCH   6   7
ENDBRANCH   2   6
ENDBRANCH   1   3
BRANCH   1  19
ATOM     19  C   UNL     1       5.125   2.540   1.883  0.00  0.00    +0.115 C 
BRANCH  19  20
ATOM     20  N   UNL     1       5.008   3.998   1.956  0.00  0.00    -0.189 NA
ATOM     21  H   UNL     1       4.132   4.416   1.940  0.00  0.00    +0.148 HD
BRANCH  20  22
ATOM     22  S   UNL     1       6.370   4.934   2.065  0.00  0.00    +0.059 S 
ATOM     23  O   UNL     1       5.933   6.286   2.091  0.00  0.00    -0.153 OA
ATOM     24  O   UNL     1       7.168   4.371   3.097  0.00  0.00    -0.153 OA
BRANCH  22  25
ATOM     25  C   UNL     1       7.268   4.724   0.563  0.00  0.00    +0.109 A 
ATOM     26  C   UNL     1       8.209   3.716   0.459  0.00  0.00    +0.032 A 
ATOM     27  C   UNL     1       8.917   3.545  -0.717  0.00  0.00    +0.051 A 
ATOM     28  C   UNL     1       8.679   4.387  -1.791  0.00  0.00    +0.162 A 
ATOM     29  C   UNL     1       7.734   5.397  -1.686  0.00  0.00    +0.164 A 
ATOM     30  C   UNL     1       7.024   5.563  -0.509  0.00  0.00    +0.078 A 
ATOM     31  O   UNL     1       7.507   6.221  -2.750  0.00  0.00    -0.488 OA
ATOM     32  C   UNL     1       8.573   7.109  -3.092  0.00  0.00    +0.232 C 
ATOM     33  C   UNL     1       9.587   6.415  -3.988  0.00  0.00    +0.082 C 
ATOM     34  C   UNL     1      10.294   5.269  -3.283  0.00  0.00    +0.232 C 
ATOM     35  O   UNL     1       9.370   4.228  -2.957  0.00  0.00    -0.488 OA
ENDBRANCH  22  25
ENDBRANCH  20  22
ENDBRANCH  19  20
ENDBRANCH   1  19
TORSDOF 8
