REMARK  Name = ZINC39710484
REMARK  11 active torsions:
REMARK  status: ('A' for Active; 'I' for Inactive)
REMARK    1  A    between atoms: C_1  and  C_2
REMARK    2  A    between atoms: C_2  and  C_3
REMARK    3  A    between atoms: C_10  and  C_15
REMARK    4  A    between atoms: C_15  and  C_17
REMARK    5  A    between atoms: C_15  and  N_26
REMARK    6  A    between atoms: N_21  and  C_22
REMARK    7  A    between atoms: C_22  and  C_23
REMARK    8  A    between atoms: C_23  and  O_24
REMARK    9  A    between atoms: O_24  and  C_25
REMARK   10  A    between atoms: N_29  and  C_32
REMARK   11  A    between atoms: C_32  and  C_33
REMARK                            x       y       z     vdW  Elec       q    Type
REMARK                         _______ _______ _______ _____ _____    ______ ____
ROOT
ATOM      1  C   UNL     1      -5.695  -3.875  -3.055  0.00  0.00    +0.142 C 
ENDROOT
BRANCH   1   9
ATOM      2  C   UNL     1      -8.176   1.053  -4.953  0.00  0.00    -0.047 A 
ATOM      3  C   UNL     1      -7.037   1.800  -4.652  0.00  0.00    +0.005 A 
ATOM      4  C   UNL     1      -6.017   1.310  -3.900  0.00  0.00    +0.024 A 
ATOM      5  C   UNL     1      -6.075   0.002  -3.384  0.00  0.00    +0.040 A 
ATOM      6  N   UNL     1      -5.069  -0.468  -2.646  0.00  0.00    -0.284 N 
ATOM      7  C   UNL     1      -5.059  -1.687  -2.132  0.00  0.00    +0.226 C 
ATOM      8  O   UNL     1      -4.112  -2.060  -1.466  0.00  0.00    -0.275 OA
ATOM      9  C   UNL     1      -6.229  -2.613  -2.374  0.00  0.00    +0.123 C 
ATOM     10  C   UNL     1      -7.376  -2.083  -3.212  0.00  0.00    -0.003 C 
ATOM     11  C   UNL     1      -7.267  -0.809  -3.686  0.00  0.00    -0.007 A 
ATOM     12  C   UNL     1      -8.330  -0.217  -4.498  0.00  0.00    +0.013 A 
ATOM     13  H   UNL     1      -4.309   0.110  -2.479  0.00  0.00    +0.155 HD
BRANCH   2  15
ATOM     14  C   UNL     1     -10.267   2.385  -4.887  0.00  0.00    +0.009 C 
ATOM     15  C   UNL     1      -9.262   1.672  -5.795  0.00  0.00    +0.032 C 
ENDBRANCH   2  15
ENDBRANCH   1   9
BRANCH   1  16
ATOM     16  N   UNL     1      -6.819  -4.748  -3.419  0.00  0.00    -0.295 NA
ATOM     17  C   UNL     1      -7.567  -5.170  -2.226  0.00  0.00    +0.066 C 
ATOM     18  C   UNL     1      -8.761  -6.026  -2.652  0.00  0.00    -0.063 C 
ATOM     19  N   UNL     1      -8.282  -7.201  -3.392  0.00  0.00    +0.384 N 
ATOM     20  C   UNL     1      -7.559  -6.764  -4.594  0.00  0.00    -0.063 C 
ATOM     21  C   UNL     1      -6.355  -5.914  -4.184  0.00  0.00    +0.066 C 
ATOM     22  H   UNL     1      -7.663  -7.739  -2.804  0.00  0.00    -0.081 HD
BRANCH  19  23
ATOM     23  C   UNL     1      -9.428  -8.032  -3.786  0.00  0.00    -0.043 C 
BRANCH  23  24
ATOM     24  C   UNL     1      -8.931  -9.297  -4.436  0.00  0.00    -0.060 A 
ATOM     25  C   UNL     1      -8.723  -9.335  -5.802  0.00  0.00    +0.005 A 
ATOM     26  C   UNL     1      -8.267 -10.493  -6.404  0.00  0.00    +0.050 A 
ATOM     27  C   UNL     1      -8.017 -11.620  -5.638  0.00  0.00    +0.166 A 
ATOM     28  C   UNL     1      -8.227 -11.582  -4.261  0.00  0.00    +0.166 A 
ATOM     29  C   UNL     1      -8.679 -10.416  -3.665  0.00  0.00    +0.051 A 
ATOM     30  O   UNL     1      -7.913 -12.803  -3.739  0.00  0.00    -0.453 OA
ATOM     31  C   UNL     1      -7.900 -13.709  -4.858  0.00  0.00    +0.466 C 
ATOM     32  O   UNL     1      -7.572 -12.864  -5.977  0.00  0.00    -0.453 OA
ENDBRANCH  23  24
ENDBRANCH  19  23
ENDBRANCH   1  16
BRANCH   1  33
ATOM     33  C   UNL     1      -4.778  -4.606  -2.109  0.00  0.00    +0.170 A 
ATOM     34  N   UNL     1      -5.096  -5.107  -0.941  0.00  0.00    -0.112 NA
ATOM     35  N   UNL     1      -4.041  -5.652  -0.440  0.00  0.00    -0.023 NA
ATOM     36  N   UNL     1      -3.058  -5.512  -1.260  0.00  0.00    -0.044 NA
ATOM     37  N   UNL     1      -3.474  -4.877  -2.303  0.00  0.00    -0.225 N 
BRANCH  37  38
ATOM     38  C   UNL     1      -2.675  -4.515  -3.477  0.00  0.00    +0.175 C 
BRANCH  38  39
ATOM     39  C   UNL     1      -1.925  -3.210  -3.200  0.00  0.00    +0.183 C 
BRANCH  39  40
ATOM     40  O   UNL     1      -1.216  -2.810  -4.375  0.00  0.00    -0.381 OA
ATOM     41  C   UNL     1      -0.478  -1.596  -4.223  0.00  0.00    +0.194 C 
ENDBRANCH  39  40
ENDBRANCH  38  39
ENDBRANCH  37  38
ENDBRANCH   1  33
TORSDOF 9
