REMARK  Name = ZINC41301764
REMARK  5 active torsions:
REMARK  status: ('A' for Active; 'I' for Inactive)
REMARK    1  A    between atoms: C_6  and  N_11
REMARK    2  A    between atoms: C_7  and  C_8
REMARK    3  A    between atoms: C_13  and  N_28
REMARK    4  A    between atoms: C_14  and  N_27
REMARK    5  A    between atoms: C_21  and  C_24
REMARK                            x       y       z     vdW  Elec       q    Type
REMARK                         _______ _______ _______ _____ _____    ______ ____
ROOT
ATOM      1  N   UNL     1       4.810  -1.440   2.296  0.00  0.00    -0.291 N 
ATOM      2  C   UNL     1       4.829  -2.766   2.706  0.00  0.00    +0.161 A 
ATOM      3  C   UNL     1       5.962  -3.299   3.314  0.00  0.00    +0.205 A 
ATOM      4  C   UNL     1       5.936  -4.633   3.709  0.00  0.00    +0.154 A 
ATOM      5  N   UNL     1       4.835  -5.351   3.494  0.00  0.00    -0.197 NA
ATOM      6  C   UNL     1       3.776  -4.810   2.913  0.00  0.00    +0.221 A 
ATOM      7  N   UNL     1       3.763  -3.543   2.529  0.00  0.00    -0.197 NA
ATOM      8  N   UNL     1       2.650  -5.588   2.706  0.00  0.00    -0.300 N 
ATOM      9  C   UNL     1       1.458  -5.024   2.058  0.00  0.00    +0.109 C 
ATOM     10  C   UNL     1       1.073  -5.914   0.873  0.00  0.00    +0.032 C 
ATOM     11  C   UNL     1       0.901  -7.356   1.358  0.00  0.00    +0.078 C 
ATOM     12  C   UNL     1       2.225  -7.863   1.933  0.00  0.00    +0.032 C 
ATOM     13  C   UNL     1       2.626  -6.997   3.124  0.00  0.00    +0.109 C 
ATOM     14  H   UNL     1       5.590  -0.880   2.428  0.00  0.00    +0.154 HD
ENDROOT
BRANCH   1  20
ATOM     15  C   UNL     1      -0.019   1.541   0.011  0.00  0.00    +0.010 C 
ATOM     16  C   UNL     1       1.486   1.876  -0.002  0.00  0.00    +0.037 C 
ATOM     17  C   UNL     1       2.176   0.670   0.633  0.00  0.00    -0.023 A 
ATOM     18  C   UNL     1       1.324  -0.370   0.621  0.00  0.00    -0.004 A 
ATOM     19  S   UNL     1       2.228  -1.699   1.373  0.00  0.00    -0.077 S 
ATOM     20  C   UNL     1       3.676  -0.918   1.697  0.00  0.00    +0.084 A 
ATOM     21  C   UNL     1       3.477   0.369   1.230  0.00  0.00    +0.068 A 
ATOM     22  C   UNL     1       0.002  -0.004   0.002  0.00  0.00    +0.043 C 
BRANCH  21  23
ATOM     23  C   UNL     1       4.527   1.387   1.327  0.00  0.00    +0.244 C 
ATOM     24  O   UNL     1       4.596   2.098   2.313  0.00  0.00    -0.270 OA
ATOM     25  N   UNL     1       5.415   1.536   0.325  0.00  0.00    -0.325 N 
ATOM     26  H   UNL     1       5.360   0.970  -0.461  0.00  0.00    +0.145 HD
ATOM     27  H   UNL     1       6.110   2.210   0.389  0.00  0.00    +0.145 HD
ENDBRANCH  21  23
ENDBRANCH   1  20
BRANCH  11  28
ATOM     28  C   UNL     1       0.488  -8.229   0.201  0.00  0.00    +0.214 C 
ATOM     29  O   UNL     1       0.345  -7.746  -0.903  0.00  0.00    -0.276 OA
ATOM     30  N   UNL     1       0.277  -9.546   0.392  0.00  0.00    -0.329 N 
ATOM     31  H   UNL     1       0.392  -9.932   1.275  0.00  0.00    +0.145 HD
ATOM     32  H   UNL     1       0.012 -10.108  -0.352  0.00  0.00    +0.145 HD
ENDBRANCH  11  28
BRANCH   4  33
ATOM     33  N   UNL     1       7.041  -5.207   4.318  0.00  0.00    -0.341 N 
ATOM     34  H   UNL     1       7.839  -4.678   4.472  0.00  0.00    +0.144 HD
ATOM     35  H   UNL     1       7.015  -6.138   4.591  0.00  0.00    +0.144 HD
ENDBRANCH   4  33
BRANCH   3  36
ATOM     36  N   UNL     1       7.166  -2.467   3.535  0.00  0.00    +0.063 N 
ATOM     37  O   UNL     1       7.289  -1.842   4.563  0.00  0.00    -0.126 OA
ATOM     38  O   UNL     1       8.027  -2.412   2.688  0.00  0.00    -0.126 OA
ENDBRANCH   3  36
TORSDOF 5
