REMARK  Name = ZINC09116566
REMARK  5 active torsions:
REMARK  status: ('A' for Active; 'I' for Inactive)
REMARK    1  A    between atoms: N_12  and  C_28
REMARK    2  A    between atoms: N_15  and  C_16
REMARK    3  A    between atoms: C_16  and  C_17
REMARK    4  A    between atoms: N_19  and  C_20
REMARK    5  A    between atoms: C_28  and  C_29
REMARK                            x       y       z     vdW  Elec       q    Type
REMARK                         _______ _______ _______ _____ _____    ______ ____
ROOT
ATOM      1  C   UNL     1      -4.755  -0.554   7.593  0.00  0.00    +0.001 A 
ATOM      2  C   UNL     1      -4.077  -1.762   7.670  0.00  0.00    +0.004 A 
ATOM      3  C   UNL     1      -3.352  -2.232   6.596  0.00  0.00    +0.047 A 
ATOM      4  C   UNL     1      -3.296  -1.491   5.420  0.00  0.00    +0.138 A 
ATOM      5  C   UNL     1      -3.985  -0.268   5.348  0.00  0.00    +0.045 A 
ATOM      6  C   UNL     1      -4.714   0.190   6.447  0.00  0.00    +0.014 A 
ATOM      7  C   UNL     1      -3.730   0.253   4.004  0.00  0.00    +0.105 A 
ATOM      8  C   UNL     1      -2.922  -0.678   3.380  0.00  0.00    +0.217 A 
ATOM      9  O   UNL     1      -2.681  -1.695   4.237  0.00  0.00    -0.448 OA
ATOM     10  C   UNL     1      -2.516  -0.431   2.044  0.00  0.00    +0.300 A 
ATOM     11  O   UNL     1      -1.808  -1.231   1.460  0.00  0.00    -0.263 OA
ATOM     12  N   UNL     1      -2.917   0.699   1.428  0.00  0.00    -0.253 N 
ATOM     13  C   UNL     1      -3.704   1.591   2.056  0.00  0.00    +0.333 A 
ATOM     14  O   UNL     1      -4.051   2.597   1.468  0.00  0.00    -0.246 OA
ATOM     15  N   UNL     1      -4.114   1.390   3.323  0.00  0.00    -0.281 N 
ENDROOT
BRANCH  15  16
ATOM     16  C   UNL     1      -4.971   2.380   3.979  0.00  0.00    +0.223 C 
BRANCH  16  17
ATOM     17  C   UNL     1      -6.417   2.042   3.724  0.00  0.00    +0.237 C 
ATOM     18  O   UNL     1      -6.704   1.069   3.059  0.00  0.00    -0.274 OA
ATOM     19  N   UNL     1      -7.392   2.820   4.234  0.00  0.00    -0.282 N 
ATOM     20  H   UNL     1      -7.165   3.560   4.819  0.00  0.00    +0.155 HD
BRANCH  19  21
ATOM     21  C   UNL     1      -8.732   2.560   3.921  0.00  0.00    +0.072 A 
ATOM     22  C   UNL     1      -9.165   1.253   3.746  0.00  0.00    +0.064 A 
ATOM     23  C   UNL     1     -10.490   1.000   3.440  0.00  0.00    +0.125 A 
ATOM     24  C   UNL     1     -11.382   2.049   3.299  0.00  0.00    +0.041 A 
ATOM     25  C   UNL     1     -10.953   3.353   3.467  0.00  0.00    +0.043 A 
ATOM     26  C   UNL     1      -9.630   3.612   3.778  0.00  0.00    +0.145 A 
ATOM     27  F   UNL     1      -9.212   4.886   3.942  0.00  0.00    -0.204 F 
ATOM     28  F   UNL     1     -10.912  -0.273   3.274  0.00  0.00    -0.205 F 
ENDBRANCH  19  21
ENDBRANCH  16  17
ENDBRANCH  15  16
BRANCH  12  29
ATOM     29  C   UNL     1      -2.494   0.956   0.050  0.00  0.00    +0.165 C 
BRANCH  29  30
ATOM     30  C   UNL     1      -1.197   1.723   0.058  0.00  0.00    -0.024 A 
ATOM     31  C   UNL     1      -1.212   3.105   0.074  0.00  0.00    +0.009 A 
ATOM     32  C   UNL     1      -0.025   3.813   0.074  0.00  0.00    +0.050 A 
ATOM     33  C   UNL     1       1.185   3.138   0.065  0.00  0.00    +0.166 A 
ATOM     34  C   UNL     1       1.200   1.745   0.057  0.00  0.00    +0.167 A 
ATOM     35  C   UNL     1       0.006   1.042   0.056  0.00  0.00    +0.055 A 
ATOM     36  O   UNL     1       2.499   1.323   0.050  0.00  0.00    -0.453 OA
ATOM     37  C   UNL     1       3.272   2.467  -0.358  0.00  0.00    +0.466 C 
ATOM     38  O   UNL     1       2.473   3.588   0.064  0.00  0.00    -0.453 OA
ENDBRANCH  29  30
ENDBRANCH  12  29
TORSDOF 5
