REMARK  Name = ZINC04075280
REMARK  5 active torsions:
REMARK  status: ('A' for Active; 'I' for Inactive)
REMARK    1  A    between atoms: C_4  and  C_7
REMARK    2  A    between atoms: C_8  and  C_9
REMARK    3  A    between atoms: C_8  and  N_23
REMARK    4  A    between atoms: N_14  and  C_17
REMARK    5  A    between atoms: C_24  and  C_26
REMARK                            x       y       z     vdW  Elec       q    Type
REMARK                         _______ _______ _______ _____ _____    ______ ____
ROOT
ATOM      1  C   UNL     1      -2.229   2.498  -3.434  0.00  0.00    +0.036 C 
ATOM      2  C   UNL     1      -1.872   1.193  -3.394  0.00  0.00    +0.097 C 
ENDROOT
BRANCH   2   3
ATOM      3  C   UNL     1      -1.140   0.666  -2.233  0.00  0.00    +0.261 C 
ATOM      4  O   UNL     1      -1.305  -0.487  -1.881  0.00  0.00    -0.269 OA
ATOM      5  N   UNL     1      -0.286   1.461  -1.558  0.00  0.00    -0.294 N 
ATOM      6  C   UNL     1       0.005   2.825  -2.024  0.00  0.00    +0.127 C 
ATOM      7  C   UNL     1       1.525   3.006  -2.094  0.00  0.00    +0.124 C 
ATOM      8  N   UNL     1       2.118   2.649  -0.798  0.00  0.00    -0.327 N 
ATOM      9  C   UNL     1       1.886   1.235  -0.473  0.00  0.00    +0.124 C 
ATOM     10  C   UNL     1       0.380   0.987  -0.335  0.00  0.00    +0.127 C 
BRANCH   8  11
ATOM     11  C   UNL     1       3.481   2.952  -0.771  0.00  0.00    +0.030 A 
ATOM     12  C   UNL     1       4.407   1.965  -0.458  0.00  0.00    +0.023 A 
ATOM     13  C   UNL     1       5.755   2.266  -0.437  0.00  0.00    +0.002 A 
ATOM     14  C   UNL     1       6.181   3.551  -0.717  0.00  0.00    +0.000 A 
ATOM     15  C   UNL     1       5.262   4.538  -1.024  0.00  0.00    +0.002 A 
ATOM     16  C   UNL     1       3.913   4.242  -1.052  0.00  0.00    +0.023 A 
ENDBRANCH   8  11
ENDBRANCH   2   3
BRANCH   1  20
ATOM     17  C   UNL     1      -4.230   4.046  -6.837  0.00  0.00    +0.000 A 
ATOM     18  C   UNL     1      -4.310   4.715  -5.628  0.00  0.00    +0.001 A 
ATOM     19  C   UNL     1      -3.662   4.218  -4.517  0.00  0.00    +0.008 A 
ATOM     20  C   UNL     1      -2.924   3.034  -4.614  0.00  0.00    -0.023 A 
ATOM     21  C   UNL     1      -2.844   2.367  -5.841  0.00  0.00    +0.008 A 
ATOM     22  C   UNL     1      -3.502   2.874  -6.941  0.00  0.00    +0.001 A 
ENDBRANCH   1  20
BRANCH   2  23
ATOM     23  N   UNL     1      -2.200   0.346  -4.457  0.00  0.00    -0.277 N 
ATOM     24  C   UNL     1      -1.235  -0.363  -5.075  0.00  0.00    +0.248 C 
ATOM     25  O   UNL     1      -0.095  -0.332  -4.656  0.00  0.00    -0.270 OA
ATOM     26  H   UNL     1      -3.122   0.269  -4.748  0.00  0.00    +0.155 HD
BRANCH  24  27
ATOM     27  C   UNL     1      -1.564  -1.177  -6.264  0.00  0.00    +0.037 A 
ATOM     28  C   UNL     1      -2.848  -1.134  -6.811  0.00  0.00    +0.013 A 
ATOM     29  C   UNL     1      -3.147  -1.892  -7.924  0.00  0.00    +0.001 A 
ATOM     30  C   UNL     1      -2.180  -2.702  -8.492  0.00  0.00    +0.000 A 
ATOM     31  C   UNL     1      -0.907  -2.754  -7.952  0.00  0.00    +0.001 A 
ATOM     32  C   UNL     1      -0.594  -1.997  -6.843  0.00  0.00    +0.013 A 
ENDBRANCH  24  27
ENDBRANCH   2  23
TORSDOF 5
