REMARK  Name = ZINC14997387
REMARK  8 active torsions:
REMARK  status: ('A' for Active; 'I' for Inactive)
REMARK    1  A    between atoms: C_4  and  C_7
REMARK    2  A    between atoms: C_8  and  C_18
REMARK    3  A    between atoms: N_10  and  C_12
REMARK    4  A    between atoms: C_18  and  N_70
REMARK    5  A    between atoms: C_25  and  C_27
REMARK    6  A    between atoms: N_29  and  C_30
REMARK    7  A    between atoms: C_30  and  C_31
REMARK    8  A    between atoms: C_31  and  C_32
REMARK                            x       y       z     vdW  Elec       q    Type
REMARK                         _______ _______ _______ _____ _____    ______ ____
ROOT
ATOM      1  C   UNL     1       0.808   2.551   0.003  0.00  0.00    -0.078 C 
ATOM      2  C   UNL     1      -0.707   2.333  -0.072  0.00  0.00    -0.011 C 
ATOM      3  C   UNL     1      -0.989   0.828  -0.017  0.00  0.00    -0.021 C 
ATOM      4  C   UNL     1      -0.193  -0.010  -1.024  0.00  0.00    -0.011 C 
ATOM      5  C   UNL     1       1.292   0.346  -0.892  0.00  0.00    -0.078 C 
ATOM      6  C   UNL     1      -1.288   0.209   1.347  0.00  0.00    +0.020 C 
ATOM      7  C   UNL     1      -2.409   0.380   0.320  0.00  0.00    +0.082 C 
ATOM      8  N   UNL     1       1.453   1.802  -1.099  0.00  0.00    +0.382 N 
ATOM      9  H   UNL     1       1.004   2.064  -1.984  0.00  0.00    -0.081 HD
ENDROOT
BRANCH   7  10
ATOM     10  C   UNL     1      -3.434   1.453   0.581  0.00  0.00    +0.217 C 
ATOM     11  O   UNL     1      -3.117   2.622   0.520  0.00  0.00    -0.275 OA
ATOM     12  N   UNL     1      -4.703   1.114   0.883  0.00  0.00    -0.315 N 
ATOM     13  H   UNL     1      -4.957   0.179   0.932  0.00  0.00    +0.149 HD
BRANCH  12  14
ATOM     14  C   UNL     1      -5.700   2.158   1.137  0.00  0.00    +0.110 C 
BRANCH  14  15
ATOM     15  C   UNL     1      -7.048   1.508   1.454  0.00  0.00    +0.074 C 
BRANCH  15  16
ATOM     16  C   UNL     1      -8.073   2.582   1.715  0.00  0.00    +0.043 A 
ATOM     17  C   UNL     1      -9.248   2.597   0.986  0.00  0.00    +0.023 A 
ATOM     18  C   UNL     1     -10.184   3.588   1.234  0.00  0.00    +0.003 A 
ATOM     19  C   UNL     1      -9.903   4.532   2.211  0.00  0.00    +0.020 A 
ATOM     20  C   UNL     1      -8.708   4.453   2.900  0.00  0.00    +0.111 A 
ATOM     21  N   UNL     1      -7.842   3.492   2.640  0.00  0.00    -0.260 NA
ENDBRANCH  15  16
ENDBRANCH  14  15
ENDBRANCH  12  14
ENDBRANCH   7  10
BRANCH   8  22
ATOM     22  C   UNL     1       2.887   2.145  -1.168  0.00  0.00    -0.039 C 
BRANCH  22  24
ATOM     23  C   UNL     1       2.821   3.917  -3.069  0.00  0.00    +0.094 A 
ATOM     24  C   UNL     1       3.022   3.538  -1.727  0.00  0.00    -0.018 A 
ATOM     25  C   UNL     1       3.364   4.644  -1.030  0.00  0.00    +0.116 A 
ATOM     26  N   UNL     1       3.375   5.694  -1.894  0.00  0.00    -0.239 N 
ATOM     27  N   UNL     1       3.029   5.213  -3.163  0.00  0.00    -0.166 NA
BRANCH  23  31
ATOM     28  C   UNL     1       1.724   1.324  -6.256  0.00  0.00    +0.000 A 
ATOM     29  C   UNL     1       1.119   2.562  -6.136  0.00  0.00    +0.001 A 
ATOM     30  C   UNL     1       1.471   3.408  -5.103  0.00  0.00    +0.010 A 
ATOM     31  C   UNL     1       2.438   3.012  -4.181  0.00  0.00    +0.002 A 
ATOM     32  C   UNL     1       3.049   1.766  -4.311  0.00  0.00    +0.010 A 
ATOM     33  C   UNL     1       2.685   0.926  -5.344  0.00  0.00    +0.001 A 
ENDBRANCH  23  31
BRANCH  26  34
ATOM     34  C   UNL     1       3.680   7.022  -1.571  0.00  0.00    +0.065 A 
ATOM     35  C   UNL     1       4.003   7.364  -0.265  0.00  0.00    +0.028 A 
ATOM     36  C   UNL     1       4.308   8.674   0.049  0.00  0.00    +0.002 A 
ATOM     37  C   UNL     1       4.281   9.647  -0.933  0.00  0.00    +0.000 A 
ATOM     38  C   UNL     1       3.955   9.310  -2.234  0.00  0.00    +0.002 A 
ATOM     39  C   UNL     1       3.654   8.001  -2.556  0.00  0.00    +0.028 A 
ENDBRANCH  26  34
ENDBRANCH  22  24
ENDBRANCH   8  22
TORSDOF 8
