REMARK  Name = ZINC07356646
REMARK  9 active torsions:
REMARK  status: ('A' for Active; 'I' for Inactive)
REMARK    1  A    between atoms: C_1  and  C_2
REMARK    2  A    between atoms: N_5  and  C_8
REMARK    3  A    between atoms: C_11  and  N_14
REMARK    4  A    between atoms: C_15  and  C_17
REMARK    5  A    between atoms: C_17  and  N_59
REMARK    6  A    between atoms: C_18  and  C_19
REMARK    7  A    between atoms: C_18  and  N_59
REMARK    8  A    between atoms: C_24  and  C_25
REMARK    9  A    between atoms: C_24  and  N_59
REMARK                            x       y       z     vdW  Elec       q    Type
REMARK                         _______ _______ _______ _____ _____    ______ ____
ROOT
ATOM      1  N   UNL     1       1.619  -0.486  -6.331  0.00  0.00    -0.287 N 
ATOM      2  C   UNL     1       2.884  -0.865  -6.061  0.00  0.00    +0.201 C 
ATOM      3  O   UNL     1       3.169  -1.283  -4.959  0.00  0.00    -0.278 OA
ATOM      4  H   UNL     1       1.375  -0.216  -7.230  0.00  0.00    +0.155 HD
ENDROOT
BRANCH   1   8
ATOM      5  C   UNL     1      -1.247  -0.472  -3.300  0.00  0.00    +0.030 A 
ATOM      6  C   UNL     1      -1.616  -0.778  -4.604  0.00  0.00    +0.025 A 
ATOM      7  C   UNL     1      -0.668  -0.777  -5.608  0.00  0.00    +0.025 A 
ATOM      8  C   UNL     1       0.656  -0.481  -5.313  0.00  0.00    +0.033 A 
ATOM      9  C   UNL     1       1.026  -0.181  -4.008  0.00  0.00    +0.025 A 
ATOM     10  C   UNL     1       0.078  -0.176  -3.005  0.00  0.00    +0.025 A 
BRANCH   5  15
ATOM     11  C   UNL     1      -5.534   0.253   0.302  0.00  0.00    +0.007 C 
ATOM     12  C   UNL     1      -4.587   0.393  -0.891  0.00  0.00    -0.011 C 
ATOM     13  C   UNL     1      -4.529  -0.932  -1.657  0.00  0.00    +0.022 C 
ATOM     14  C   UNL     1      -3.535  -0.805  -2.813  0.00  0.00    +0.105 C 
ATOM     15  N   UNL     1      -2.208  -0.466  -2.284  0.00  0.00    -0.330 N 
ATOM     16  C   UNL     1      -2.228   0.825  -1.585  0.00  0.00    +0.105 C 
ATOM     17  C   UNL     1      -3.183   0.746  -0.392  0.00  0.00    +0.022 C 
ENDBRANCH   5  15
ENDBRANCH   1   8
BRANCH   2  18
ATOM     18  C   UNL     1       3.943  -0.769  -7.128  0.00  0.00    +0.020 C 
BRANCH  18  19
ATOM     19  N   UNL     1       5.231  -1.224  -6.563  0.00  0.00    +0.395 N 
ATOM     20  H   UNL     1       5.409  -0.718  -5.688  0.00  0.00    -0.080 HD
BRANCH  19  21
ATOM     21  C   UNL     1       5.173  -2.673  -6.276  0.00  0.00    -0.002 C 
BRANCH  21  22
ATOM     22  C   UNL     1       4.819  -3.444  -7.521  0.00  0.00    +0.089 A 
ATOM     23  C   UNL     1       5.694  -4.021  -8.365  0.00  0.00    +0.042 A 
ATOM     24  C   UNL     1       4.934  -4.632  -9.389  0.00  0.00    +0.041 A 
ATOM     25  C   UNL     1       3.640  -4.393  -9.109  0.00  0.00    +0.195 A 
ATOM     26  O   UNL     1       3.576  -3.678  -7.974  0.00  0.00    -0.470 OA
ENDBRANCH  21  22
ENDBRANCH  19  21
BRANCH  19  27
ATOM     27  C   UNL     1       6.328  -0.941  -7.513  0.00  0.00    -0.002 C 
BRANCH  27  28
ATOM     28  C   UNL     1       7.643  -1.089  -6.793  0.00  0.00    +0.089 A 
ATOM     29  C   UNL     1       8.420  -2.188  -6.791  0.00  0.00    +0.042 A 
ATOM     30  C   UNL     1       9.549  -1.889  -5.995  0.00  0.00    +0.041 A 
ATOM     31  C   UNL     1       9.395  -0.627  -5.557  0.00  0.00    +0.195 A 
ATOM     32  O   UNL     1       8.242  -0.145  -6.049  0.00  0.00    -0.470 OA
ENDBRANCH  27  28
ENDBRANCH  19  27
ENDBRANCH  18  19
ENDBRANCH   2  18
TORSDOF 8
