REMARK  Name = ZINC08591019
REMARK  6 active torsions:
REMARK  status: ('A' for Active; 'I' for Inactive)
REMARK    1  A    between atoms: C_1  and  C_2
REMARK    2  A    between atoms: C_6  and  C_8
REMARK    3  A    between atoms: N_10  and  C_11
REMARK    4  A    between atoms: C_11  and  C_28
REMARK    5  A    between atoms: N_14  and  C_22
REMARK    6  A    between atoms: C_15  and  C_16
REMARK                            x       y       z     vdW  Elec       q    Type
REMARK                         _______ _______ _______ _____ _____    ______ ____
ROOT
ATOM      1  C   UNL     1      -0.669   1.819   1.250  0.00  0.00    +0.282 C 
ATOM      2  C   UNL     1      -2.029   1.150   1.238  0.00  0.00    +0.274 C 
ATOM      3  O   UNL     1      -2.839   1.143   0.336  0.00  0.00    -0.270 OA
ATOM      4  N   UNL     1      -2.144   0.564   2.448  0.00  0.00    -0.251 N 
ATOM      5  C   UNL     1      -1.018   0.792   3.205  0.00  0.00    +0.111 C 
ATOM      6  N   UNL     1      -0.142   1.500   2.578  0.00  0.00    -0.337 N 
ATOM      7  H   UNL     1       0.771   1.791   2.948  0.00  0.00    +0.164 HD
ENDROOT
BRANCH   5   8
ATOM      8  C   UNL     1      -0.838   0.278   4.582  0.00  0.00    +0.013 A 
ATOM      9  C   UNL     1      -1.925   0.216   5.454  0.00  0.00    +0.011 A 
ATOM     10  C   UNL     1      -1.753  -0.269   6.734  0.00  0.00    +0.001 A 
ATOM     11  C   UNL     1      -0.502  -0.681   7.157  0.00  0.00    +0.000 A 
ATOM     12  C   UNL     1       0.581  -0.617   6.300  0.00  0.00    +0.001 A 
ATOM     13  C   UNL     1       0.420  -0.139   5.015  0.00  0.00    +0.011 A 
ENDBRANCH   5   8
BRANCH   4  14
ATOM     14  C   UNL     1      -3.306  -0.208   2.894  0.00  0.00    +0.083 C 
ATOM     15  C   UNL     1      -3.602  -1.317   1.882  0.00  0.00    +0.023 C 
ATOM     16  C   UNL     1      -4.816  -2.123   2.348  0.00  0.00    +0.002 C 
ATOM     17  C   UNL     1      -6.029  -1.198   2.460  0.00  0.00    +0.000 C 
ATOM     18  C   UNL     1      -5.734  -0.090   3.473  0.00  0.00    +0.002 C 
ATOM     19  C   UNL     1      -4.520   0.716   3.007  0.00  0.00    +0.023 C 
ENDBRANCH   4  14
BRANCH   1  22
ATOM     20  C   UNL     1      -1.345   3.766  -0.049  0.00  0.00    +0.246 C 
ATOM     21  O   UNL     1      -1.721   3.014  -0.926  0.00  0.00    -0.270 OA
ATOM     22  N   UNL     1      -0.805   3.268   1.081  0.00  0.00    -0.274 N 
ATOM     23  H   UNL     1      -0.505   3.868   1.781  0.00  0.00    +0.152 HD
BRANCH  20  29
ATOM     24  C   UNL     1      -2.770   7.676  -2.803  0.00  0.00    +0.044 C 
ATOM     25  C   UNL     1      -2.166   7.113  -1.542  0.00  0.00    -0.050 A 
ATOM     26  C   UNL     1      -1.738   7.967  -0.541  0.00  0.00    +0.003 A 
ATOM     27  C   UNL     1      -1.182   7.459   0.620  0.00  0.00    +0.001 A 
ATOM     28  C   UNL     1      -1.052   6.095   0.786  0.00  0.00    +0.013 A 
ATOM     29  C   UNL     1      -1.482   5.228  -0.220  0.00  0.00    +0.037 A 
ATOM     30  C   UNL     1      -2.037   5.748  -1.391  0.00  0.00    +0.016 A 
ENDBRANCH  20  29
ENDBRANCH   1  22
BRANCH   1  31
ATOM     31  C   UNL     1       0.227   1.234   0.157  0.00  0.00    +0.438 C 
ATOM     32  F   UNL     1       0.320  -0.152   0.323  0.00  0.00    -0.166 F 
ATOM     33  F   UNL     1       1.503   1.800   0.247  0.00  0.00    -0.166 F 
ATOM     34  F   UNL     1      -0.322   1.518  -1.098  0.00  0.00    -0.166 F 
ENDBRANCH   1  31
TORSDOF 5
