REMARK  Name = ZINC43553826
REMARK  14 active torsions:
REMARK  status: ('A' for Active; 'I' for Inactive)
REMARK    1  A    between atoms: C_1  and  C_2
REMARK    2  A    between atoms: C_2  and  C_3
REMARK    3  A    between atoms: C_2  and  N_4
REMARK    4  A    between atoms: C_5  and  O_7
REMARK    5  A    between atoms: O_7  and  C_8
REMARK    6  A    between atoms: C_12  and  C_38
REMARK    7  A    between atoms: C_15  and  C_16
REMARK    8  A    between atoms: C_15  and  C_17
REMARK    9  A    between atoms: C_17  and  O_18
REMARK   10  A    between atoms: C_21  and  O_37
REMARK   11  A    between atoms: C_23  and  C_25
REMARK   12  A    between atoms: C_25  and  C_26
REMARK   13  A    between atoms: N_28  and  C_29
REMARK   14  A    between atoms: C_29  and  C_30
REMARK                            x       y       z     vdW  Elec       q    Type
REMARK                         _______ _______ _______ _____ _____    ______ ____
ROOT
ATOM      1  C   UNL     1      -2.954  -3.137  -2.005  0.00  0.00    +0.186 C 
ATOM      2  C   UNL     1      -3.590  -3.103  -3.389  0.00  0.00    +0.046 C 
ATOM      3  C   UNL     1      -4.956  -2.418  -3.312  0.00  0.00    +0.011 C 
ATOM      4  C   UNL     1      -5.881  -3.231  -2.405  0.00  0.00    -0.023 C 
ATOM      5  C   UNL     1      -5.273  -3.369  -1.020  0.00  0.00    +0.007 C 
ATOM      6  C   UNL     1      -3.836  -3.851  -0.983  0.00  0.00    +0.031 C 
ATOM      7  C   UNL     1      -3.717  -5.364  -1.160  0.00  0.00    +0.017 C 
ATOM      8  C   UNL     1      -6.185  -4.213  -0.129  0.00  0.00    +0.007 C 
ATOM      9  C   UNL     1      -7.528  -3.486   0.015  0.00  0.00    +0.032 C 
ATOM     10  C   UNL     1      -8.172  -3.295  -1.355  0.00  0.00    +0.119 C 
ATOM     11  C   UNL     1      -7.248  -2.544  -2.311  0.00  0.00    +0.032 C 
ATOM     12  C   UNL     1      -6.114  -4.600  -3.063  0.00  0.00    +0.012 C 
ENDROOT
BRANCH  10  13
ATOM     13  O   UNL     1      -9.385  -2.543  -1.197  0.00  0.00    -0.391 OA
ATOM     14  H   UNL     1     -10.039  -2.968  -0.625  0.00  0.00    +0.210 HD
ENDBRANCH  10  13
BRANCH   1  15
ATOM     15  O   UNL     1      -2.703  -1.799  -1.560  0.00  0.00    -0.446 OA
BRANCH  15  17
ATOM     16  N   UNL     1      -1.219   0.001  -1.509  0.00  0.00    -0.279 N 
ATOM     17  C   UNL     1      -1.518  -1.255  -1.896  0.00  0.00    +0.401 C 
ATOM     18  O   UNL     1      -0.718  -1.896  -2.549  0.00  0.00    -0.226 OA
ATOM     19  H   UNL     1      -1.858   0.513  -0.988  0.00  0.00    +0.152 HD
BRANCH  16  21
ATOM     20  C   UNL     1      -0.056   2.117  -1.894  0.00  0.00    +0.027 C 
ATOM     21  C   UNL     1       0.070   0.593  -1.874  0.00  0.00    +0.070 C 
ATOM     22  C   UNL     1       1.129   0.181  -0.850  0.00  0.00    +0.027 C 
ENDBRANCH  16  21
ENDBRANCH  15  17
ENDBRANCH   1  15
BRANCH   6  23
ATOM     23  C   UNL     1      -3.256  -3.510   0.412  0.00  0.00    +0.166 C 
BRANCH  23  24
ATOM     24  O   UNL     1      -1.905  -3.971   0.491  0.00  0.00    -0.394 OA
ATOM     25  H   UNL     1      -1.478  -3.791   1.339  0.00  0.00    +0.209 HD
ENDBRANCH  23  24
ENDBRANCH   6  23
BRANCH  11  26
ATOM     26  C   UNL     1      -7.120  -1.088  -1.875  0.00  0.00    +0.102 C 
BRANCH  26  27
ATOM     27  C   UNL     1      -8.418  -0.368  -2.138  0.00  0.00    +0.214 C 
ATOM     28  O   UNL     1      -9.299  -0.917  -2.766  0.00  0.00    -0.276 OA
ATOM     29  N   UNL     1      -8.600   0.884  -1.676  0.00  0.00    -0.311 N 
ATOM     30  H   UNL     1      -7.895   1.323  -1.174  0.00  0.00    +0.149 HD
BRANCH  29  31
ATOM     31  C   UNL     1      -9.861   1.584  -1.931  0.00  0.00    +0.139 C 
BRANCH  31  32
ATOM     32  C   UNL     1      -9.809   2.957  -1.313  0.00  0.00    -0.030 A 
ATOM     33  C   UNL     1     -10.230   3.144  -0.009  0.00  0.00    +0.008 A 
ATOM     34  C   UNL     1     -10.182   4.403   0.559  0.00  0.00    +0.038 A 
ATOM     35  C   UNL     1      -9.712   5.477  -0.177  0.00  0.00    +0.123 A 
ATOM     36  C   UNL     1      -9.290   5.288  -1.483  0.00  0.00    +0.038 A 
ATOM     37  C   UNL     1      -9.334   4.027  -2.047  0.00  0.00    +0.008 A 
ATOM     38  F   UNL     1      -9.665   6.708   0.377  0.00  0.00    -0.205 F 
ENDBRANCH  31  32
ENDBRANCH  29  31
ENDBRANCH  26  27
ENDBRANCH  11  26
TORSDOF 10
