REMARK  Name = ZINC36259929
REMARK  9 active torsions:
REMARK  status: ('A' for Active; 'I' for Inactive)
REMARK    1  A    between atoms: C_1  and  C_2
REMARK    2  A    between atoms: C_5  and  C_8
REMARK    3  A    between atoms: C_8  and  C_32
REMARK    4  A    between atoms: N_11  and  C_15
REMARK    5  A    between atoms: C_15  and  C_16
REMARK    6  A    between atoms: N_18  and  C_19
REMARK    7  A    between atoms: C_20  and  C_28
REMARK    8  A    between atoms: C_28  and  O_30
REMARK    9  A    between atoms: O_30  and  C_31
REMARK                            x       y       z     vdW  Elec       q    Type
REMARK                         _______ _______ _______ _____ _____    ______ ____
ROOT
ATOM      1  C   UNL     1       2.931  -6.184   1.360  0.00  0.00    +0.214 C 
ENDROOT
BRANCH   1   5
ATOM      2  C   UNL     1       0.059  -4.275  -0.021  0.00  0.00    +0.135 C 
ATOM      3  C   UNL     1       0.874  -4.805   1.142  0.00  0.00    +0.251 C 
ATOM      4  O   UNL     1       0.656  -4.640   2.324  0.00  0.00    -0.272 OA
ATOM      5  N   UNL     1       1.890  -5.497   0.591  0.00  0.00    -0.215 N 
ATOM      6  C   UNL     1       1.832  -5.479  -0.746  0.00  0.00    +0.310 C 
ATOM      7  O   UNL     1       2.639  -6.033  -1.465  0.00  0.00    -0.252 OA
ATOM      8  N   UNL     1       0.779  -4.778  -1.205  0.00  0.00    -0.281 N 
ATOM      9  C   UNL     1      -1.366  -4.831   0.018  0.00  0.00    +0.047 C 
ATOM     10  H   UNL     1       0.540  -4.632  -2.133  0.00  0.00    +0.152 HD
BRANCH   2  15
ATOM     11  C   UNL     1      -0.018   1.503   0.010  0.00  0.00    +0.044 C 
ATOM     12  C   UNL     1       0.002  -0.004   0.002  0.00  0.00    -0.050 A 
ATOM     13  C   UNL     1       0.006  -0.689  -1.199  0.00  0.00    +0.004 A 
ATOM     14  C   UNL     1       0.025  -2.071  -1.206  0.00  0.00    +0.006 A 
ATOM     15  C   UNL     1       0.040  -2.768  -0.013  0.00  0.00    -0.015 A 
ATOM     16  C   UNL     1       0.037  -2.084   1.188  0.00  0.00    +0.006 A 
ATOM     17  C   UNL     1       0.023  -0.702   1.195  0.00  0.00    +0.004 A 
ENDBRANCH   2  15
ENDBRANCH   1   5
BRANCH   1  18
ATOM     18  C   UNL     1       2.495  -7.598   1.643  0.00  0.00    +0.236 C 
ATOM     19  O   UNL     1       1.421  -7.994   1.242  0.00  0.00    -0.274 OA
ATOM     20  N   UNL     1       3.299  -8.424   2.342  0.00  0.00    -0.278 N 
ATOM     21  H   UNL     1       4.158  -8.107   2.663  0.00  0.00    +0.155 HD
BRANCH  20  22
ATOM     22  C   UNL     1       2.899  -9.725   2.602  0.00  0.00    +0.086 A 
ATOM     23  C   UNL     1       3.586 -10.704   3.304  0.00  0.00    +0.091 A 
ATOM     24  C   UNL     1       2.942 -12.000   3.438  0.00  0.00    -0.021 A 
ATOM     25  C   UNL     1       1.730 -12.078   2.846  0.00  0.00    -0.004 A 
ATOM     26  S   UNL     1       1.467 -10.475   2.147  0.00  0.00    -0.077 S 
ATOM     27  C   UNL     1       0.824 -13.270   2.807  0.00  0.00    +0.043 C 
ATOM     28  C   UNL     1       1.636 -14.507   3.215  0.00  0.00    +0.005 C 
ATOM     29  C   UNL     1       2.424 -14.186   4.488  0.00  0.00    +0.005 C 
ATOM     30  C   UNL     1       3.542 -13.190   4.172  0.00  0.00    +0.037 C 
BRANCH  23  31
ATOM     31  C   UNL     1       4.905 -10.444   3.884  0.00  0.00    +0.342 C 
ATOM     32  O   UNL     1       4.997 -10.017   5.019  0.00  0.00    -0.245 OA
BRANCH  31  33
ATOM     33  O   UNL     1       6.019 -10.679   3.160  0.00  0.00    -0.464 OA
ATOM     34  C   UNL     1       7.272 -10.403   3.789  0.00  0.00    +0.280 C 
ENDBRANCH  31  33
ENDBRANCH  23  31
ENDBRANCH  20  22
ENDBRANCH   1  18
TORSDOF 6
