REMARK  Name = ZINC38609999
REMARK  9 active torsions:
REMARK  status: ('A' for Active; 'I' for Inactive)
REMARK    1  A    between atoms: C_1  and  C_2
REMARK    2  A    between atoms: C_2  and  C_3
REMARK    3  A    between atoms: C_2  and  C_4
REMARK    4  A    between atoms: C_2  and  C_5
REMARK    5  A    between atoms: C_8  and  C_11
REMARK    6  A    between atoms: C_14  and  C_29
REMARK    7  A    between atoms: N_21  and  C_22
REMARK    8  A    between atoms: C_22  and  C_23
REMARK    9  A    between atoms: C_34  and  O_35
REMARK                            x       y       z     vdW  Elec       q    Type
REMARK                         _______ _______ _______ _____ _____    ______ ____
ROOT
ATOM      1  C   UNL     1       2.712  -1.852  -4.716  0.00  0.00    +0.142 C 
ATOM      2  C   UNL     1       3.682  -2.953  -4.383  0.00  0.00    +0.035 A 
ATOM      3  C   UNL     1       3.877  -4.236  -3.861  0.00  0.00    +0.102 A 
ATOM      4  N   UNL     1       5.167  -4.500  -3.933  0.00  0.00    -0.173 NA
ATOM      5  N   UNL     1       5.806  -3.511  -4.449  0.00  0.00    -0.272 N 
ATOM      6  H   UNL     1       6.763  -3.484  -4.599  0.00  0.00    +0.189 HD
ATOM      7  C   UNL     1       4.935  -2.504  -4.756  0.00  0.00    +0.126 A 
ATOM      8  C   UNL     1       4.800  -1.154  -5.316  0.00  0.00    +0.266 C 
ATOM      9  O   UNL     1       5.722  -0.482  -5.737  0.00  0.00    -0.268 OA
ATOM     10  N   UNL     1       3.511  -0.766  -5.298  0.00  0.00    -0.281 N 
ENDROOT
BRANCH   1  14
ATOM     11  C   UNL     1       0.751  -0.497  -1.171  0.00  0.00    -0.042 A 
ATOM     12  C   UNL     1       2.113  -0.312  -1.321  0.00  0.00    +0.004 A 
ATOM     13  C   UNL     1       2.747  -0.750  -2.469  0.00  0.00    +0.006 A 
ATOM     14  C   UNL     1       2.021  -1.375  -3.465  0.00  0.00    -0.022 A 
ATOM     15  C   UNL     1       0.659  -1.561  -3.314  0.00  0.00    +0.006 A 
ATOM     16  C   UNL     1       0.025  -1.127  -2.165  0.00  0.00    +0.004 A 
BRANCH  11  18
ATOM     17  C   UNL     1      -0.587  -1.209   0.792  0.00  0.00    +0.015 C 
ATOM     18  C   UNL     1       0.060  -0.019   0.080  0.00  0.00    -0.013 C 
ATOM     19  C   UNL     1      -1.019   1.000  -0.292  0.00  0.00    +0.015 C 
ATOM     20  C   UNL     1       1.083   0.636   1.010  0.00  0.00    +0.015 C 
ENDBRANCH  11  18
ENDBRANCH   1  14
BRANCH   3  21
ATOM     21  C   UNL     1       2.825  -5.134  -3.324  0.00  0.00    +0.044 A 
ATOM     22  C   UNL     1       1.482  -4.778  -3.424  0.00  0.00    +0.014 A 
ATOM     23  C   UNL     1       0.507  -5.617  -2.923  0.00  0.00    +0.001 A 
ATOM     24  C   UNL     1       0.859  -6.811  -2.320  0.00  0.00    +0.004 A 
ATOM     25  C   UNL     1       2.188  -7.174  -2.215  0.00  0.00    +0.046 A 
ATOM     26  C   UNL     1       3.177  -6.344  -2.719  0.00  0.00    +0.126 A 
BRANCH  26  27
ATOM     27  O   UNL     1       4.483  -6.703  -2.622  0.00  0.00    -0.506 OA
ATOM     28  H   UNL     1       4.915  -6.401  -1.811  0.00  0.00    +0.292 HD
ENDBRANCH  26  27
ENDBRANCH   3  21
BRANCH  10  29
ATOM     29  C   UNL     1       2.993   0.519  -5.776  0.00  0.00    +0.144 C 
BRANCH  29  30
ATOM     30  C   UNL     1       3.002   1.516  -4.645  0.00  0.00    -0.027 A 
ATOM     31  C   UNL     1       1.905   1.649  -3.808  0.00  0.00    +0.025 A 
ATOM     32  C   UNL     1       1.949   2.574  -2.782  0.00  0.00    +0.111 A 
ATOM     33  N   UNL     1       3.017   3.324  -2.596  0.00  0.00    -0.263 NA
ATOM     34  C   UNL     1       4.079   3.224  -3.372  0.00  0.00    +0.111 A 
ATOM     35  C   UNL     1       4.109   2.317  -4.415  0.00  0.00    +0.025 A 
ENDBRANCH  29  30
ENDBRANCH  10  29
TORSDOF 6
