REMARK  Name = ZINC06322215
REMARK  8 active torsions:
REMARK  status: ('A' for Active; 'I' for Inactive)
REMARK    1  A    between atoms: C_1  and  C_2
REMARK    2  A    between atoms: C_5  and  C_35
REMARK    3  A    between atoms: C_9  and  C_14
REMARK    4  A    between atoms: C_14  and  C_16
REMARK    5  A    between atoms: C_14  and  N_63
REMARK    6  A    between atoms: N_20  and  C_21
REMARK    7  A    between atoms: C_21  and  C_22
REMARK    8  A    between atoms: C_31  and  C_34
REMARK                            x       y       z     vdW  Elec       q    Type
REMARK                         _______ _______ _______ _____ _____    ______ ____
ROOT
ATOM      1  C   UNL     1      -3.556   6.147   0.232  0.00  0.00    +0.039 C 
ENDROOT
BRANCH   1  10
ATOM      2  C   UNL     1       0.287   6.154   3.746  0.00  0.00    +0.044 C 
ATOM      3  C   UNL     1       0.812   5.470   2.510  0.00  0.00    -0.041 A 
ATOM      4  C   UNL     1       2.093   4.997   2.479  0.00  0.00    +0.004 A 
ATOM      5  C   UNL     1       2.584   4.361   1.348  0.00  0.00    +0.005 A 
ATOM      6  C   UNL     1       1.791   4.199   0.232  0.00  0.00    -0.026 A 
ATOM      7  C   UNL     1       0.485   4.677   0.238  0.00  0.00    +0.052 A 
ATOM      8  C   UNL     1      -0.009   5.322   1.387  0.00  0.00    +0.002 A 
ATOM      9  C   UNL     1      -1.385   5.821   1.384  0.00  0.00    +0.018 A 
ATOM     10  C   UNL     1      -2.136   5.644   0.269  0.00  0.00    +0.011 A 
ATOM     11  C   UNL     1      -1.592   4.991  -0.858  0.00  0.00    +0.251 A 
ATOM     12  O   UNL     1      -2.284   4.842  -1.850  0.00  0.00    -0.268 OA
ATOM     13  N   UNL     1      -0.330   4.529  -0.864  0.00  0.00    -0.322 N 
ATOM     14  H   UNL     1       0.013   4.084  -1.656  0.00  0.00    +0.169 HD
ATOM     15  C   UNL     1       2.337   3.506  -0.990  0.00  0.00    +0.046 C 
ENDBRANCH   1  10
BRANCH   1  22
ATOM     16  C   UNL     1      -2.739   8.241  -0.667  0.00  0.00    -0.077 C 
ATOM     17  C   UNL     1      -2.813   9.178  -1.874  0.00  0.00    -0.018 C 
ATOM     18  C   UNL     1      -4.236   9.730  -2.001  0.00  0.00    -0.001 C 
ATOM     19  C   UNL     1      -5.217   8.562  -2.132  0.00  0.00    -0.031 C 
ATOM     20  C   UNL     1      -5.074   7.642  -0.917  0.00  0.00    -0.074 C 
ATOM     21  C   UNL     1      -6.647   9.101  -2.199  0.00  0.00    +0.005 C 
ATOM     22  N   UNL     1      -3.690   7.126  -0.866  0.00  0.00    +0.389 N 
ATOM     23  H   UNL     1      -3.475   6.661  -1.756  0.00  0.00    -0.080 HD
ENDBRANCH   1  22
BRANCH   1  24
ATOM     24  C   UNL     1      -3.898   6.784   1.554  0.00  0.00    +0.143 A 
ATOM     25  N   UNL     1      -3.439   7.921   2.017  0.00  0.00    -0.115 NA
ATOM     26  N   UNL     1      -3.966   8.121   3.176  0.00  0.00    -0.023 NA
ATOM     27  N   UNL     1      -4.749   7.140   3.464  0.00  0.00    -0.044 NA
ATOM     28  N   UNL     1      -4.738   6.298   2.487  0.00  0.00    -0.226 N 
BRANCH  28  29
ATOM     29  C   UNL     1      -5.495   5.046   2.409  0.00  0.00    +0.182 C 
BRANCH  29  30
ATOM     30  C   UNL     1      -4.722   3.948   3.094  0.00  0.00    -0.026 A 
ATOM     31  C   UNL     1      -3.791   3.212   2.385  0.00  0.00    +0.005 A 
ATOM     32  C   UNL     1      -3.079   2.209   3.014  0.00  0.00    +0.000 A 
ATOM     33  C   UNL     1      -3.305   1.934   4.350  0.00  0.00    +0.000 A 
ATOM     34  C   UNL     1      -4.240   2.666   5.057  0.00  0.00    +0.000 A 
ATOM     35  C   UNL     1      -4.948   3.673   4.429  0.00  0.00    +0.005 A 
ENDBRANCH  29  30
ENDBRANCH  28  29
ENDBRANCH   1  24
TORSDOF 5
