REMARK  Name = ZINC06193705
REMARK  10 active torsions:
REMARK  status: ('A' for Active; 'I' for Inactive)
REMARK    1  A    between atoms: C_1  and  C_2
REMARK    2  A    between atoms: C_2  and  N_69
REMARK    3  A    between atoms: C_3  and  C_4
REMARK    4  A    between atoms: C_3  and  N_69
REMARK    5  A    between atoms: C_10  and  C_12
REMARK    6  A    between atoms: C_10  and  C_26
REMARK    7  A    between atoms: C_10  and  N_69
REMARK    8  A    between atoms: C_16  and  C_25
REMARK    9  A    between atoms: C_17  and  C_24
REMARK   10  A    between atoms: N_30  and  C_31
REMARK                            x       y       z     vdW  Elec       q    Type
REMARK                         _______ _______ _______ _____ _____    ______ ____
ROOT
ATOM      1  C   UNL     1      -4.602   4.034  -0.443  0.00  0.00    +0.039 C 
ENDROOT
BRANCH   1   2
ATOM      2  C   UNL     1      -3.694   3.133  -1.239  0.00  0.00    +0.011 A 
ATOM      3  C   UNL     1      -3.068   2.096  -0.630  0.00  0.00    +0.017 A 
ATOM      4  C   UNL     1      -2.193   1.239  -1.431  0.00  0.00    -0.001 A 
ATOM      5  C   UNL     1      -1.520   0.154  -0.859  0.00  0.00    +0.013 A 
ATOM      6  C   UNL     1      -0.710  -0.626  -1.634  0.00  0.00    -0.047 A 
ATOM      7  C   UNL     1      -0.548  -0.352  -2.985  0.00  0.00    -0.046 A 
ATOM      8  C   UNL     1      -1.201   0.711  -3.571  0.00  0.00    +0.030 A 
ATOM      9  C   UNL     1      -2.027   1.522  -2.800  0.00  0.00    +0.049 A 
ATOM     10  N   UNL     1      -2.697   2.588  -3.361  0.00  0.00    -0.322 N 
ATOM     11  H   UNL     1      -2.586   2.783  -4.335  0.00  0.00    +0.169 HD
ATOM     12  C   UNL     1      -3.499   3.370  -2.617  0.00  0.00    +0.251 A 
ATOM     13  O   UNL     1      -4.072   4.308  -3.145  0.00  0.00    -0.268 OA
ATOM     14  C   UNL     1       0.351  -1.227  -3.821  0.00  0.00    +0.044 C 
ATOM     15  C   UNL     1       0.015  -1.794  -1.016  0.00  0.00    +0.044 C 
ENDBRANCH   1   2
BRANCH   1  16
ATOM     16  C   UNL     1      -4.757   3.486   0.952  0.00  0.00    +0.143 A 
ATOM     17  N   UNL     1      -5.074   2.257   1.279  0.00  0.00    -0.115 NA
ATOM     18  N   UNL     1      -5.106   2.183   2.565  0.00  0.00    -0.023 NA
ATOM     19  N   UNL     1      -4.817   3.333   3.067  0.00  0.00    -0.044 NA
ATOM     20  N   UNL     1      -4.590   4.162   2.104  0.00  0.00    -0.227 N 
BRANCH  20  21
ATOM     21  C   UNL     1      -4.223   5.574   2.240  0.00  0.00    +0.111 C 
ATOM     22  C   UNL     1      -2.909   5.687   3.015  0.00  0.00    +0.027 C 
ATOM     23  C   UNL     1      -2.526   7.162   3.157  0.00  0.00    +0.002 C 
ATOM     24  C   UNL     1      -3.630   7.905   3.912  0.00  0.00    +0.000 C 
ATOM     25  C   UNL     1      -4.944   7.791   3.137  0.00  0.00    +0.002 C 
ATOM     26  C   UNL     1      -5.327   6.317   2.995  0.00  0.00    +0.027 C 
ENDBRANCH  20  21
ENDBRANCH   1  16
BRANCH   1  27
ATOM     27  N   UNL     1      -5.914   4.105  -1.120  0.00  0.00    +0.392 N 
ATOM     28  H   UNL     1      -5.763   4.252  -2.125  0.00  0.00    -0.080 HD
BRANCH  27  30
ATOM     29  C   UNL     1      -6.076   1.786  -1.876  0.00  0.00    -0.017 C 
ATOM     30  C   UNL     1      -6.651   2.838  -0.926  0.00  0.00    -0.080 C 
ENDBRANCH  27  30
BRANCH  27  31
ATOM     31  C   UNL     1      -6.700   5.235  -0.582  0.00  0.00    -0.042 C 
BRANCH  31  32
ATOM     32  C   UNL     1      -7.843   5.520  -1.521  0.00  0.00    -0.064 A 
ATOM     33  C   UNL     1      -7.650   6.342  -2.615  0.00  0.00    +0.002 A 
ATOM     34  C   UNL     1      -8.698   6.599  -3.480  0.00  0.00    +0.000 A 
ATOM     35  C   UNL     1      -9.941   6.043  -3.244  0.00  0.00    +0.000 A 
ATOM     36  C   UNL     1     -10.136   5.225  -2.147  0.00  0.00    +0.000 A 
ATOM     37  C   UNL     1      -9.087   4.963  -1.285  0.00  0.00    +0.002 A 
ENDBRANCH  31  32
ENDBRANCH  27  31
ENDBRANCH   1  27
TORSDOF 7
