REMARK  Name = ZINC45416565
REMARK  11 active torsions:
REMARK  status: ('A' for Active; 'I' for Inactive)
REMARK    1  A    between atoms: C_1  and  C_2
REMARK    2  A    between atoms: C_2  and  C_3
REMARK    3  A    between atoms: C_3  and  C_5
REMARK    4  A    between atoms: C_3  and  C_6
REMARK    5  A    between atoms: C_9  and  C_12
REMARK    6  A    between atoms: C_12  and  C_14
REMARK    7  A    between atoms: C_12  and  N_17
REMARK    8  A    between atoms: C_14  and  C_15
REMARK    9  A    between atoms: C_14  and  C_16
REMARK   10  A    between atoms: C_18  and  C_20
REMARK   11  A    between atoms: C_20  and  N_21
REMARK                            x       y       z     vdW  Elec       q    Type
REMARK                         _______ _______ _______ _____ _____    ______ ____
ROOT
ATOM      1  N   UNL     1       2.347  -6.618   0.093  0.00  0.00    -0.307 N 
ATOM      2  C   UNL     1       2.363  -7.816  -0.524  0.00  0.00    +0.231 C 
ATOM      3  O   UNL     1       1.454  -8.600  -0.349  0.00  0.00    -0.274 OA
ATOM      4  H   UNL     1       3.074  -5.991  -0.047  0.00  0.00    +0.149 HD
ENDROOT
BRANCH   1   5
ATOM      5  C   UNL     1       1.232  -6.263   0.975  0.00  0.00    +0.106 C 
BRANCH   5   9
ATOM      6  C   UNL     1       0.870  -2.011   1.172  0.00  0.00    -0.045 A 
ATOM      7  C   UNL     1      -0.264  -2.799   1.109  0.00  0.00    +0.004 A 
ATOM      8  C   UNL     1      -0.147  -4.175   1.045  0.00  0.00    +0.006 A 
ATOM      9  C   UNL     1       1.105  -4.763   1.044  0.00  0.00    -0.027 A 
ATOM     10  C   UNL     1       2.239  -3.974   1.106  0.00  0.00    +0.006 A 
ATOM     11  C   UNL     1       2.121  -2.598   1.166  0.00  0.00    +0.004 A 
BRANCH   6  12
ATOM     12  C   UNL     1       0.742  -0.511   1.242  0.00  0.00    +0.016 C 
ATOM     13  C   UNL     1      -0.042  -0.124   2.497  0.00  0.00    +0.012 C 
BRANCH  12  15
ATOM     14  C   UNL     1      -0.019   1.526   0.010  0.00  0.00    +0.004 C 
ATOM     15  C   UNL     1       0.002  -0.004   0.002  0.00  0.00    +0.004 C 
ENDBRANCH  12  15
ENDBRANCH   6  12
ENDBRANCH   5   9
BRANCH   5  16
ATOM     16  C   UNL     1       1.495  -6.817   2.377  0.00  0.00    +0.008 C 
ATOM     17  C   UNL     1       1.625  -8.340   2.307  0.00  0.00    +0.009 C 
ATOM     18  C   UNL     1       2.791  -6.219   2.927  0.00  0.00    +0.009 C 
ENDBRANCH   5  16
ENDBRANCH   1   5
BRANCH   2  19
ATOM     19  C   UNL     1       3.509  -8.181  -1.431  0.00  0.00    +0.213 C 
BRANCH  19  20
ATOM     20  N   UNL     1       3.293  -9.524  -1.975  0.00  0.00    -0.215 N 
ATOM     21  C   UNL     1       3.722 -10.659  -1.386  0.00  0.00    +0.247 C 
ATOM     22  O   UNL     1       4.338 -10.759  -0.347  0.00  0.00    -0.273 OA
ATOM     23  C   UNL     1       3.275 -11.780  -2.296  0.00  0.00    +0.113 C 
ATOM     24  C   UNL     1       2.319 -12.713  -1.560  0.00  0.00    +0.035 C 
ATOM     25  C   UNL     1       1.855 -13.822  -2.507  0.00  0.00    +0.003 C 
ATOM     26  C   UNL     1       3.070 -14.604  -3.010  0.00  0.00    +0.000 C 
ATOM     27  C   UNL     1       4.008 -13.660  -3.766  0.00  0.00    +0.003 C 
ATOM     28  C   UNL     1       4.481 -12.550  -2.824  0.00  0.00    +0.035 C 
ATOM     29  N   UNL     1       2.581 -11.094  -3.393  0.00  0.00    -0.285 N 
ATOM     30  C   UNL     1       2.639  -9.777  -3.115  0.00  0.00    +0.310 C 
ATOM     31  O   UNL     1       2.154  -8.916  -3.822  0.00  0.00    -0.252 OA
ATOM     32  H   UNL     1       2.162 -11.507  -4.164  0.00  0.00    +0.151 HD
ENDBRANCH  19  20
ENDBRANCH   2  19
TORSDOF 7
