REMARK  Name = ZINC63985490
REMARK  12 active torsions:
REMARK  status: ('A' for Active; 'I' for Inactive)
REMARK    1  A    between atoms: C_1  and  C_2
REMARK    2  A    between atoms: C_2  and  C_3
REMARK    3  A    between atoms: C_2  and  C_4
REMARK    4  A    between atoms: C_4  and  C_5
REMARK    5  A    between atoms: C_5  and  N_6
REMARK    6  A    between atoms: C_9  and  C_11
REMARK    7  A    between atoms: N_13  and  C_14
REMARK    8  A    between atoms: C_14  and  C_15
REMARK    9  A    between atoms: C_15  and  O_16
REMARK   10  A    between atoms: O_16  and  C_17
REMARK   11  A    between atoms: N_19  and  C_22
REMARK   12  A    between atoms: C_22  and  C_23
REMARK                            x       y       z     vdW  Elec       q    Type
REMARK                         _______ _______ _______ _____ _____    ______ ____
ROOT
ATOM      1  N   UNL     1      -2.790  -2.565  -0.111  0.00  0.00    -0.267 N 
ATOM      2  C   UNL     1      -3.470  -2.921   0.988  0.00  0.00    +0.046 A 
ATOM      3  C   UNL     1      -4.698  -3.338   0.586  0.00  0.00    +0.020 A 
ATOM      4  C   UNL     1      -4.710  -3.205  -0.811  0.00  0.00    +0.152 A 
ATOM      5  N   UNL     1      -3.526  -2.728  -1.157  0.00  0.00    -0.166 NA
ATOM      6  C   UNL     1      -5.766  -3.830   1.523  0.00  0.00    +0.124 C 
ATOM      7  N   UNL     1      -5.133  -4.139   2.818  0.00  0.00    -0.294 NA
ATOM      8  C   UNL     1      -4.311  -3.020   3.296  0.00  0.00    +0.091 C 
ATOM      9  C   UNL     1      -3.045  -2.900   2.435  0.00  0.00    +0.071 C 
ENDROOT
BRANCH   4  10
ATOM     10  C   UNL     1      -5.830  -3.529  -1.718  0.00  0.00    +0.265 C 
ATOM     11  O   UNL     1      -6.874  -3.959  -1.266  0.00  0.00    -0.268 OA
ATOM     12  N   UNL     1      -5.695  -3.348  -3.047  0.00  0.00    -0.308 N 
ATOM     13  H   UNL     1      -4.862  -3.005  -3.408  0.00  0.00    +0.149 HD
BRANCH  12  14
ATOM     14  C   UNL     1      -6.806  -3.670  -3.947  0.00  0.00    +0.132 C 
BRANCH  14  15
ATOM     15  C   UNL     1      -6.394  -3.375  -5.391  0.00  0.00    +0.178 C 
BRANCH  15  16
ATOM     16  O   UNL     1      -5.332  -4.253  -5.772  0.00  0.00    -0.381 OA
ATOM     17  C   UNL     1      -4.871  -4.060  -7.110  0.00  0.00    +0.194 C 
ENDBRANCH  15  16
ENDBRANCH  14  15
ENDBRANCH  12  14
ENDBRANCH   4  10
BRANCH   1  18
ATOM     18  C   UNL     1      -1.416  -2.058  -0.121  0.00  0.00    +0.144 C 
BRANCH  18  19
ATOM     19  C   UNL     1      -1.433  -0.534   0.013  0.00  0.00    +0.026 C 
BRANCH  19  21
ATOM     20  C   UNL     1      -0.019   1.526   0.010  0.00  0.00    +0.007 C 
ATOM     21  C   UNL     1       0.002  -0.004   0.002  0.00  0.00    -0.015 C 
ATOM     22  C   UNL     1       0.742  -0.511   1.242  0.00  0.00    +0.007 C 
ENDBRANCH  19  21
ENDBRANCH  18  19
ENDBRANCH   1  18
BRANCH   7  23
ATOM     23  C   UNL     1      -6.141  -4.518   3.818  0.00  0.00    +0.118 C 
BRANCH  23  24
ATOM     24  C   UNL     1      -5.452  -5.060   5.044  0.00  0.00    -0.028 C 
ATOM     25  C   UNL     1      -5.129  -4.375   6.165  0.00  0.00    +0.000 A 
ATOM     26  C   UNL     1      -5.313  -2.974   6.562  0.00  0.00    +0.010 A 
ATOM     27  C   UNL     1      -4.873  -2.574   7.777  0.00  0.00    +0.001 A 
ATOM     28  C   UNL     1      -4.247  -3.460   8.663  0.00  0.00    +0.002 A 
ATOM     29  C   UNL     1      -4.042  -4.762   8.370  0.00  0.00    +0.026 A 
ATOM     30  C   UNL     1      -4.465  -5.292   7.119  0.00  0.00    +0.043 A 
ATOM     31  N   UNL     1      -4.381  -6.496   6.609  0.00  0.00    -0.380 N 
ATOM     32  C   UNL     1      -4.989  -6.481   5.273  0.00  0.00    +0.146 C 
ATOM     33  H   UNL     1      -3.988  -7.269   7.043  0.00  0.00    +0.160 HD
ENDBRANCH  23  24
ENDBRANCH   7  23
TORSDOF 9
