REMARK  Name = ZINC08879909
REMARK  9 active torsions:
REMARK  status: ('A' for Active; 'I' for Inactive)
REMARK    1  A    between atoms: C_1  and  C_2
REMARK    2  A    between atoms: C_6  and  C_29
REMARK    3  A    between atoms: C_7  and  C_11
REMARK    4  A    between atoms: C_11  and  C_12
REMARK    5  A    between atoms: N_14  and  C_15
REMARK    6  A    between atoms: C_15  and  C_17
REMARK    7  A    between atoms: C_15  and  C_18
REMARK    8  A    between atoms: C_18  and  C_19
REMARK    9  A    between atoms: C_32  and  C_35
REMARK                            x       y       z     vdW  Elec       q    Type
REMARK                         _______ _______ _______ _____ _____    ______ ____
ROOT
ATOM      1  C   UNL     1       3.004   3.773   0.489  0.00  0.00    +0.138 C 
ENDROOT
BRANCH   1   8
ATOM      2  C   UNL     1       2.731  10.653   4.532  0.00  0.00    +0.044 C 
ATOM      3  C   UNL     1       2.820   9.247   3.996  0.00  0.00    -0.036 A 
ATOM      4  C   UNL     1       2.693   9.024   2.655  0.00  0.00    +0.051 A 
ATOM      5  C   UNL     1       2.772   7.731   2.143  0.00  0.00    +0.143 A 
ATOM      6  C   UNL     1       2.985   6.646   3.009  0.00  0.00    +0.064 A 
ATOM      7  C   UNL     1       3.064   5.295   2.452  0.00  0.00    -0.026 A 
ATOM      8  C   UNL     1       2.929   5.145   1.108  0.00  0.00    +0.049 A 
ATOM      9  C   UNL     1       2.723   6.279   0.296  0.00  0.00    +0.341 A 
ATOM     10  O   UNL     1       2.608   6.133  -0.908  0.00  0.00    -0.245 OA
ATOM     11  O   UNL     1       2.645   7.513   0.815  0.00  0.00    -0.422 OA
ATOM     12  C   UNL     1       3.291   4.103   3.345  0.00  0.00    +0.045 C 
ATOM     13  C   UNL     1       3.116   6.869   4.390  0.00  0.00    +0.146 A 
ATOM     14  C   UNL     1       3.032   8.181   4.875  0.00  0.00    +0.027 A 
ATOM     15  C   UNL     1       3.207   8.073   6.329  0.00  0.00    -0.005 A 
ATOM     16  C   UNL     1       3.374   6.769   6.588  0.00  0.00    +0.199 A 
ATOM     17  O   UNL     1       3.321   6.062   5.447  0.00  0.00    -0.462 OA
ATOM     18  C   UNL     1       3.200   9.201   7.328  0.00  0.00    +0.047 C 
ENDBRANCH   1   8
BRANCH   1  19
ATOM     19  C   UNL     1       1.625   3.168   0.441  0.00  0.00    +0.218 C 
ATOM     20  O   UNL     1       0.674   3.789   0.868  0.00  0.00    -0.275 OA
ATOM     21  N   UNL     1       1.447   1.936  -0.076  0.00  0.00    -0.312 N 
ATOM     22  H   UNL     1       2.207   1.439  -0.417  0.00  0.00    +0.149 HD
BRANCH  21  23
ATOM     23  C   UNL     1       0.106   1.347  -0.123  0.00  0.00    +0.074 C 
ATOM     24  C   UNL     1      -0.615   1.821  -1.386  0.00  0.00    +0.028 C 
BRANCH  23  25
ATOM     25  C   UNL     1       0.220  -0.178  -0.143  0.00  0.00    +0.059 C 
BRANCH  25  26
ATOM     26  C   UNL     1       0.819  -0.655   1.155  0.00  0.00    -0.021 A 
ATOM     27  C   UNL     1       2.114  -0.923   1.386  0.00  0.00    +0.087 A 
ATOM     28  N   UNL     1       2.283  -1.329   2.681  0.00  0.00    -0.360 N 
ATOM     29  H   UNL     1       3.131  -1.576   3.082  0.00  0.00    +0.165 HD
ATOM     30  C   UNL     1       1.069  -1.341   3.330  0.00  0.00    +0.047 A 
ATOM     31  C   UNL     1       0.099  -0.919   2.403  0.00  0.00    +0.003 A 
ATOM     32  C   UNL     1      -1.241  -0.832   2.787  0.00  0.00    +0.010 A 
ATOM     33  C   UNL     1      -1.603  -1.158   4.064  0.00  0.00    +0.001 A 
ATOM     34  C   UNL     1      -0.650  -1.575   4.982  0.00  0.00    +0.002 A 
ATOM     35  C   UNL     1       0.677  -1.668   4.625  0.00  0.00    +0.026 A 
ENDBRANCH  25  26
ENDBRANCH  23  25
ENDBRANCH  21  23
ENDBRANCH   1  19
TORSDOF 5
