REMARK  Name = ZINC48545288
REMARK  7 active torsions:
REMARK  status: ('A' for Active; 'I' for Inactive)
REMARK    1  A    between atoms: C_1  and  C_2
REMARK    2  A    between atoms: C_5  and  C_20
REMARK    3  A    between atoms: C_6  and  C_8
REMARK    4  A    between atoms: C_8  and  C_10
REMARK    5  A    between atoms: C_8  and  N_11
REMARK    6  A    between atoms: N_11  and  C_12
REMARK    7  A    between atoms: C_13  and  C_18
REMARK                            x       y       z     vdW  Elec       q    Type
REMARK                         _______ _______ _______ _____ _____    ______ ____
ROOT
ATOM      1  C   UNL     1       0.054  -2.845   2.489  0.00  0.00    +0.098 C 
ATOM      2  C   UNL     1       1.497  -3.192   2.858  0.00  0.00    +0.033 C 
ENDROOT
BRANCH   1   8
ATOM      3  C   UNL     1      -0.018   1.503   0.010  0.00  0.00    +0.044 C 
ATOM      4  C   UNL     1       0.002  -0.004   0.002  0.00  0.00    -0.050 A 
ATOM      5  C   UNL     1       0.006  -0.689  -1.199  0.00  0.00    +0.003 A 
ATOM      6  C   UNL     1       0.025  -2.071  -1.207  0.00  0.00    +0.004 A 
ATOM      7  C   UNL     1       0.040  -2.768  -0.013  0.00  0.00    -0.046 A 
ATOM      8  C   UNL     1       0.037  -2.084   1.188  0.00  0.00    -0.024 A 
ATOM      9  C   UNL     1       0.023  -0.702   1.195  0.00  0.00    +0.009 A 
ATOM     10  C   UNL     1       0.059  -4.275  -0.021  0.00  0.00    +0.044 C 
ENDBRANCH   1   8
BRANCH   1  11
ATOM     11  N   UNL     1      -0.535  -2.018   3.545  0.00  0.00    -0.330 N 
ATOM     12  H   UNL     1      -0.527  -1.051   3.466  0.00  0.00    +0.147 HD
BRANCH  11  13
ATOM     13  C   UNL     1      -1.103  -2.615   4.654  0.00  0.00    +0.105 A 
ATOM     14  C   UNL     1      -1.714  -2.008   5.753  0.00  0.00    +0.118 A 
ATOM     15  C   UNL     1      -2.189  -2.903   6.713  0.00  0.00    +0.157 A 
ATOM     16  N   UNL     1      -2.017  -4.175   6.485  0.00  0.00    -0.196 NA
ATOM     17  S   UNL     1      -1.235  -4.250   5.009  0.00  0.00    +0.029 S 
ATOM     18 CL   UNL     1      -2.980  -2.345   8.154  0.00  0.00    -0.060 Cl
BRANCH  14  19
ATOM     19  C   UNL     1      -1.840  -0.588   5.885  0.00  0.00    +0.105 C 
ATOM     20  N   UNL     1      -1.941   0.539   5.990  0.00  0.00    -0.191 NA
ENDBRANCH  14  19
ENDBRANCH  11  13
ENDBRANCH   1  11
TORSDOF 4
