REMARK  Name = ZINC34748172
REMARK  7 active torsions:
REMARK  status: ('A' for Active; 'I' for Inactive)
REMARK    1  A    between atoms: C_1  and  C_2
REMARK    2  A    between atoms: C_5  and  N_8
REMARK    3  A    between atoms: C_9  and  C_11
REMARK    4  A    between atoms: C_11  and  N_12
REMARK    5  A    between atoms: N_30  and  C_31
REMARK    6  A    between atoms: C_31  and  C_32
REMARK    7  A    between atoms: C_32  and  C_33
REMARK                            x       y       z     vdW  Elec       q    Type
REMARK                         _______ _______ _______ _____ _____    ______ ____
ROOT
ATOM      1  N   UNL     1      -0.224  -6.243   2.513  0.00  0.00    +0.387 N 
ATOM      2  C   UNL     1      -0.138  -6.239   3.979  0.00  0.00    -0.059 C 
ATOM      3  C   UNL     1       0.169  -7.656   4.475  0.00  0.00    +0.089 C 
ATOM      4  N   UNL     1      -0.844  -8.572   3.929  0.00  0.00    -0.304 N 
ATOM      5  C   UNL     1      -1.113  -8.525   2.483  0.00  0.00    +0.089 C 
ATOM      6  C   UNL     1      -1.360  -7.068   2.081  0.00  0.00    -0.059 C 
ATOM      7  C   UNL     1      -1.520  -9.444   4.745  0.00  0.00    +0.202 A 
ATOM      8  N   UNL     1      -2.648  -9.064   5.309  0.00  0.00    -0.208 NA
ATOM      9  C   UNL     1      -3.322  -9.890   6.103  0.00  0.00    +0.117 A 
ATOM     10  C   UNL     1      -2.875 -11.190   6.378  0.00  0.00    +0.076 A 
ATOM     11  C   UNL     1      -3.725 -11.989   7.275  0.00  0.00    -0.023 A 
ATOM     12  C   UNL     1      -4.840 -11.401   7.738  0.00  0.00    -0.004 A 
ATOM     13  S   UNL     1      -4.831  -9.772   7.026  0.00  0.00    -0.073 S 
ATOM     14  C   UNL     1      -5.631 -12.312   8.638  0.00  0.00    +0.043 C 
ATOM     15  C   UNL     1      -5.079 -13.724   8.342  0.00  0.00    +0.010 C 
ATOM     16  C   UNL     1      -3.654 -13.406   7.850  0.00  0.00    +0.037 C 
ATOM     17  C   UNL     1      -1.648 -11.577   5.752  0.00  0.00    +0.264 A 
ATOM     18  O   UNL     1      -1.184 -12.689   5.934  0.00  0.00    -0.267 OA
ATOM     19  N   UNL     1      -1.017 -10.694   4.955  0.00  0.00    -0.280 N 
ATOM     20  H   UNL     1       0.629  -6.620   2.129  0.00  0.00    -0.081 HD
ENDROOT
BRANCH   1  21
ATOM     21  C   UNL     1      -0.409  -4.867   2.032  0.00  0.00    +0.019 C 
BRANCH  21  23
ATOM     22  N   UNL     1       0.866  -2.748   2.021  0.00  0.00    -0.287 N 
ATOM     23  C   UNL     1       0.811  -4.049   2.368  0.00  0.00    +0.201 C 
ATOM     24  O   UNL     1       1.743  -4.562   2.951  0.00  0.00    -0.278 OA
ATOM     25  H   UNL     1       0.094  -2.320   1.618  0.00  0.00    +0.155 HD
BRANCH  22  30
ATOM     26  C   UNL     1       5.613   0.227   2.914  0.00  0.00    +0.044 C 
ATOM     27  C   UNL     1       4.352  -0.563   2.677  0.00  0.00    -0.050 A 
ATOM     28  C   UNL     1       4.429  -1.911   2.376  0.00  0.00    +0.005 A 
ATOM     29  C   UNL     1       3.275  -2.638   2.158  0.00  0.00    +0.023 A 
ATOM     30  C   UNL     1       2.037  -2.014   2.242  0.00  0.00    +0.033 A 
ATOM     31  C   UNL     1       1.963  -0.661   2.544  0.00  0.00    +0.023 A 
ATOM     32  C   UNL     1       3.121   0.059   2.766  0.00  0.00    +0.005 A 
ENDBRANCH  22  30
ENDBRANCH  21  23
ENDBRANCH   1  21
BRANCH  19  33
ATOM     33  C   UNL     1       0.237 -11.082   4.305  0.00  0.00    +0.133 C 
BRANCH  33  34
ATOM     34  C   UNL     1       1.407 -10.818   5.255  0.00  0.00    +0.057 C 
BRANCH  34  35
ATOM     35  C   UNL     1       2.697 -11.217   4.586  0.00  0.00    -0.046 A 
ATOM     36  C   UNL     1       3.175 -12.507   4.720  0.00  0.00    +0.004 A 
ATOM     37  C   UNL     1       4.359 -12.873   4.107  0.00  0.00    +0.000 A 
ATOM     38  C   UNL     1       5.064 -11.949   3.360  0.00  0.00    +0.000 A 
ATOM     39  C   UNL     1       4.587 -10.659   3.225  0.00  0.00    +0.000 A 
ATOM     40  C   UNL     1       3.401 -10.294   3.835  0.00  0.00    +0.004 A 
ENDBRANCH  34  35
ENDBRANCH  33  34
ENDBRANCH  19  33
TORSDOF 6
