REMARK  Name = ZINC15774009
REMARK  8 active torsions:
REMARK  status: ('A' for Active; 'I' for Inactive)
REMARK    1  A    between atoms: C_1  and  N_64
REMARK    2  A    between atoms: C_2  and  C_3
REMARK    3  A    between atoms: C_2  and  N_64
REMARK    4  A    between atoms: C_3  and  C_4
REMARK    5  A    between atoms: C_4  and  N_5
REMARK    6  A    between atoms: C_6  and  C_8
REMARK    7  A    between atoms: C_18  and  C_20
REMARK    8  A    between atoms: C_26  and  N_64
REMARK                            x       y       z     vdW  Elec       q    Type
REMARK                         _______ _______ _______ _____ _____    ______ ____
ROOT
ATOM      1  C   UNL     1      -1.266  -2.150  -0.110  0.00  0.00    +0.172 C 
ATOM      2  C   UNL     1      -2.772  -2.438  -0.229  0.00  0.00    +0.069 C 
ATOM      3  C   UNL     1      -3.418  -1.071  -0.271  0.00  0.00    -0.024 A 
ATOM      4  C   UNL     1      -4.745  -0.699  -0.372  0.00  0.00    +0.005 A 
ATOM      5  C   UNL     1      -5.091   0.639  -0.391  0.00  0.00    +0.000 A 
ATOM      6  C   UNL     1      -4.106   1.606  -0.308  0.00  0.00    +0.002 A 
ATOM      7  C   UNL     1      -2.781   1.239  -0.207  0.00  0.00    +0.024 A 
ATOM      8  C   UNL     1      -2.424  -0.111  -0.181  0.00  0.00    +0.041 A 
ATOM      9  N   UNL     1      -1.155  -0.689  -0.092  0.00  0.00    -0.255 N 
ATOM     10  C   UNL     1       0.002  -0.004   0.002  0.00  0.00    +0.252 C 
ATOM     11  O   UNL     1      -0.013   1.210   0.055  0.00  0.00    -0.270 OA
ENDROOT
BRANCH  10  12
ATOM     12  C   UNL     1       1.290  -0.729   0.042  0.00  0.00    +0.037 A 
ATOM     13  C   UNL     1       1.323  -2.110  -0.158  0.00  0.00    +0.013 A 
ATOM     14  C   UNL     1       2.528  -2.780  -0.126  0.00  0.00    +0.001 A 
ATOM     15  C   UNL     1       3.702  -2.087   0.115  0.00  0.00    +0.000 A 
ATOM     16  C   UNL     1       3.675  -0.719   0.319  0.00  0.00    +0.001 A 
ATOM     17  C   UNL     1       2.477  -0.036   0.284  0.00  0.00    +0.013 A 
ENDBRANCH  10  12
BRANCH   1  19
ATOM     18  N   UNL     1      -0.727  -4.066   1.358  0.00  0.00    -0.314 N 
ATOM     19  C   UNL     1      -0.720  -2.732   1.168  0.00  0.00    +0.234 C 
ATOM     20  O   UNL     1      -0.274  -2.000   2.026  0.00  0.00    -0.274 OA
ATOM     21  H   UNL     1      -1.084  -4.652   0.672  0.00  0.00    +0.149 HD
BRANCH  18  22
ATOM     22  C   UNL     1      -0.196  -4.632   2.601  0.00  0.00    +0.102 C 
BRANCH  22  23
ATOM     23  C   UNL     1      -0.322  -6.157   2.562  0.00  0.00    +0.000 C 
BRANCH  23  24
ATOM     24  C   UNL     1       0.232  -6.747   3.860  0.00  0.00    -0.077 C 
BRANCH  24  26
ATOM     25  C   UNL     1       0.975  -8.784   2.781  0.00  0.00    -0.096 C 
ATOM     26  N   UNL     1       0.085  -8.217   3.816  0.00  0.00    +0.380 N 
ATOM     27  H   UNL     1      -0.888  -8.448   3.582  0.00  0.00    -0.082 HD
BRANCH  26  28
ATOM     28  C   UNL     1       0.411  -8.797   5.136  0.00  0.00    -0.069 C 
ATOM     29  C   UNL     1       1.877  -8.540   5.487  0.00  0.00    -0.015 C 
ATOM     30  C   UNL     1       2.189  -9.150   6.855  0.00  0.00    -0.002 C 
ATOM     31  C   UNL     1       1.933 -10.658   6.810  0.00  0.00    -0.000 C 
ATOM     32  C   UNL     1       0.466 -10.916   6.459  0.00  0.00    -0.002 C 
ATOM     33  C   UNL     1       0.155 -10.305   5.091  0.00  0.00    -0.015 C 
ENDBRANCH  26  28
ENDBRANCH  24  26
ENDBRANCH  23  24
ENDBRANCH  22  23
ENDBRANCH  18  22
ENDBRANCH   1  19
TORSDOF 7
