REMARK  Name = ZINC39371635
REMARK  6 active torsions:
REMARK  status: ('A' for Active; 'I' for Inactive)
REMARK    1  A    between atoms: C_3  and  C_6
REMARK    2  A    between atoms: N_8  and  C_9
REMARK    3  A    between atoms: C_9  and  C_10
REMARK    4  A    between atoms: N_18  and  C_21
REMARK    5  A    between atoms: C_21  and  C_22
REMARK    6  A    between atoms: C_27  and  C_28
REMARK                            x       y       z     vdW  Elec       q    Type
REMARK                         _______ _______ _______ _____ _____    ______ ____
ROOT
ATOM      1  C   UNL     1       6.146  -2.054  -0.068  0.00  0.00    +0.136 C 
ATOM      2  C   UNL     1       7.693  -2.123  -0.012  0.00  0.00    +0.036 C 
ATOM      3  C   UNL     1       7.981  -3.499  -0.661  0.00  0.00    +0.037 C 
ATOM      4  C   UNL     1       6.710  -3.803  -1.473  0.00  0.00    +0.067 C 
ATOM      5  O   UNL     1       5.821  -2.684  -1.327  0.00  0.00    -0.369 OA
ATOM      6  C   UNL     1       7.070  -3.995  -2.946  0.00  0.00    +0.016 C 
ATOM      7  C   UNL     1       5.810  -4.371  -3.729  0.00  0.00    -0.076 C 
ATOM      8  N   UNL     1       5.244  -5.612  -3.184  0.00  0.00    +0.380 N 
ATOM      9  C   UNL     1       4.821  -5.401  -1.795  0.00  0.00    -0.076 C 
ATOM     10  C   UNL     1       6.041  -5.067  -0.932  0.00  0.00    +0.016 C 
ATOM     11  H   UNL     1       5.942  -6.340  -3.216  0.00  0.00    -0.082 HD
ENDROOT
BRANCH   1  12
ATOM     12  C   UNL     1       5.671  -0.599  -0.056  0.00  0.00    +0.136 C 
BRANCH  12  15
ATOM     13  C   UNL     1       3.561   0.619  -0.029  0.00  0.00    +0.279 C 
ATOM     14  O   UNL     1       4.195   1.658  -0.030  0.00  0.00    -0.267 OA
ATOM     15  N   UNL     1       4.206  -0.564  -0.042  0.00  0.00    -0.306 N 
ATOM     16  H   UNL     1       3.701  -1.392  -0.041  0.00  0.00    +0.149 HD
BRANCH  13  19
ATOM     17  C   UNL     1      -0.016   1.347   0.009  0.00  0.00    +0.042 A 
ATOM     18  C   UNL     1       1.319   1.778  -0.001  0.00  0.00    +0.054 A 
ATOM     19  C   UNL     1       2.095   0.654  -0.014  0.00  0.00    +0.189 A 
ATOM     20  O   UNL     1       1.276  -0.418  -0.012  0.00  0.00    -0.458 OA
ATOM     21  C   UNL     1       0.002  -0.004   0.002  0.00  0.00    +0.196 A 
ENDBRANCH  13  19
ENDBRANCH  12  15
ENDBRANCH   1  12
BRANCH   8  22
ATOM     22  C   UNL     1       4.085  -6.014  -3.991  0.00  0.00    -0.063 C 
BRANCH  22  23
ATOM     23  C   UNL     1       3.570  -7.370  -3.504  0.00  0.00    +0.066 C 
ATOM     24  C   UNL     1       4.566  -8.466  -3.825  0.00  0.00    +0.115 C 
ATOM     25  N   UNL     1       3.954  -9.287  -4.615  0.00  0.00    -0.161 NA
ATOM     26  N   UNL     1       2.647  -8.893  -4.885  0.00  0.00    -0.153 NA
ATOM     27  C   UNL     1       2.330  -7.780  -4.275  0.00  0.00    +0.077 C 
BRANCH  27  28
ATOM     28  C   UNL     1       1.042  -7.071  -4.325  0.00  0.00    -0.001 A 
ATOM     29  C   UNL     1       0.867  -5.879  -3.614  0.00  0.00    +0.011 A 
ATOM     30  C   UNL     1      -0.343  -5.221  -3.667  0.00  0.00    +0.020 A 
ATOM     31  C   UNL     1      -1.384  -5.736  -4.421  0.00  0.00    +0.041 A 
ATOM     32  C   UNL     1      -1.218  -6.917  -5.127  0.00  0.00    +0.020 A 
ATOM     33  C   UNL     1      -0.012  -7.583  -5.089  0.00  0.00    +0.011 A 
ATOM     34 CL   UNL     1      -2.904  -4.900  -4.481  0.00  0.00    -0.084 Cl
ENDBRANCH  27  28
ENDBRANCH  22  23
ENDBRANCH   8  22
TORSDOF 6
