REMARK  Name = ZINC33269679
REMARK  6 active torsions:
REMARK  status: ('A' for Active; 'I' for Inactive)
REMARK    1  A    between atoms: C_1  and  C_2
REMARK    2  A    between atoms: C_5  and  C_25
REMARK    3  A    between atoms: C_7  and  S_8
REMARK    4  A    between atoms: S_8  and  N_11
REMARK    5  A    between atoms: C_14  and  C_17
REMARK    6  A    between atoms: C_27  and  C_30
REMARK                            x       y       z     vdW  Elec       q    Type
REMARK                         _______ _______ _______ _____ _____    ______ ____
ROOT
ATOM      1  S   UNL     1      -8.357   5.543   2.270  0.00  0.00    +0.061 S 
ATOM      2  O   UNL     1      -8.333   6.785   2.960  0.00  0.00    -0.153 OA
ATOM      3  O   UNL     1      -9.451   5.145   1.456  0.00  0.00    -0.153 OA
ENDROOT
BRANCH   1  10
ATOM      4  C   UNL     1      -8.370   2.582   1.669  0.00  0.00    +0.046 C 
ATOM      5  C   UNL     1      -8.173   2.954   3.116  0.00  0.00    -0.024 A 
ATOM      6  C   UNL     1      -8.007   1.963   4.066  0.00  0.00    +0.006 A 
ATOM      7  C   UNL     1      -7.831   2.298   5.393  0.00  0.00    +0.012 A 
ATOM      8  C   UNL     1      -7.816   3.638   5.774  0.00  0.00    +0.024 A 
ATOM      9  C   UNL     1      -7.977   4.632   4.812  0.00  0.00    +0.040 A 
ATOM     10  C   UNL     1      -8.152   4.286   3.488  0.00  0.00    +0.109 A 
BRANCH   8  11
ATOM     11  C   UNL     1      -7.627   4.004   7.200  0.00  0.00    +0.202 A 
ATOM     12  N   UNL     1      -7.460   3.148   8.234  0.00  0.00    -0.191 NA
ATOM     13  C   UNL     1      -7.333   3.902   9.297  0.00  0.00    +0.231 A 
ATOM     14  O   UNL     1      -7.425   5.172   8.893  0.00  0.00    -0.337 OA
ATOM     15  N   UNL     1      -7.587   5.215   7.692  0.00  0.00    -0.056 NA
BRANCH  13  16
ATOM     16  C   UNL     1      -7.123   3.425  10.712  0.00  0.00    +0.078 C 
ATOM     17  C   UNL     1      -7.203   4.469  11.828  0.00  0.00    +0.014 C 
ATOM     18  C   UNL     1      -5.849   3.878  11.428  0.00  0.00    +0.014 C 
ENDBRANCH  13  16
ENDBRANCH   8  11
ENDBRANCH   1  10
BRANCH   1  19
ATOM     19  N   UNL     1      -7.012   5.512   1.304  0.00  0.00    -0.177 NA
ATOM     20  C   UNL     1      -7.007   4.742   0.052  0.00  0.00    +0.110 C 
ATOM     21  C   UNL     1      -5.802   3.797   0.059  0.00  0.00    +0.030 C 
ATOM     22  C   UNL     1      -4.526   4.606   0.305  0.00  0.00    +0.078 C 
ATOM     23  C   UNL     1      -4.610   5.292   1.671  0.00  0.00    +0.030 C 
ATOM     24  C   UNL     1      -5.802   6.254   1.682  0.00  0.00    +0.110 C 
BRANCH  22  25
ATOM     25  C   UNL     1      -3.334   3.684   0.279  0.00  0.00    +0.222 C 
ATOM     26  O   UNL     1      -3.490   2.497   0.084  0.00  0.00    -0.275 OA
ATOM     27  N   UNL     1      -2.095   4.178   0.474  0.00  0.00    -0.264 N 
ATOM     28  C   UNL     1      -0.996   3.327   0.450  0.00  0.00    +0.164 A 
ATOM     29  N   UNL     1      -0.961   2.024   0.249  0.00  0.00    -0.233 NA
ATOM     30  C   UNL     1       0.179   1.361   0.263  0.00  0.00    +0.120 A 
ATOM     31  C   UNL     1       1.325   2.052   0.479  0.00  0.00    +0.068 A 
ATOM     32  S   UNL     1       0.683   3.709   0.669  0.00  0.00    -0.061 S 
ATOM     33  H   UNL     1      -1.954   5.254   0.651  0.00  0.00    +0.157 HD
ENDBRANCH  22  25
ENDBRANCH   1  19
TORSDOF 5
