REMARK  Name = ZINC22102782
REMARK  9 active torsions:
REMARK  status: ('A' for Active; 'I' for Inactive)
REMARK    1  A    between atoms: C_1  and  C_2
REMARK    2  A    between atoms: N_11  and  C_15
REMARK    3  A    between atoms: C_15  and  C_16
REMARK    4  A    between atoms: C_16  and  O_18
REMARK    5  A    between atoms: O_18  and  C_19
REMARK    6  A    between atoms: C_19  and  C_21
REMARK    7  A    between atoms: C_19  and  C_22
REMARK    8  A    between atoms: N_24  and  C_25
REMARK    9  A    between atoms: C_28  and  N_31
REMARK                            x       y       z     vdW  Elec       q    Type
REMARK                         _______ _______ _______ _____ _____    ______ ____
ROOT
ATOM      1  O   UNL     1       3.774  -4.700  -0.487  0.00  0.00    -0.451 OA
ENDROOT
BRANCH   1   2
ATOM      2  C   UNL     1       3.926  -5.824  -1.204  0.00  0.00    +0.326 C 
ATOM      3  O   UNL     1       2.956  -6.408  -1.626  0.00  0.00    -0.249 OA
BRANCH   2   4
ATOM      4  C   UNL     1       5.307  -6.359  -1.483  0.00  0.00    +0.238 C 
BRANCH   4  14
ATOM      5  C   UNL     1       2.589  -8.896  -3.942  0.00  0.00    +0.010 C 
ATOM      6  C   UNL     1       3.794  -9.323  -4.784  0.00  0.00    +0.018 C 
ATOM      7  C   UNL     1       3.678 -10.811  -5.124  0.00  0.00    +0.006 C 
ATOM      8  C   UNL     1       4.893 -11.241  -5.948  0.00  0.00    +0.000 C 
ATOM      9  C   UNL     1       6.168 -11.011  -5.135  0.00  0.00    +0.003 C 
ATOM     10  C   UNL     1       6.295  -9.524  -4.796  0.00  0.00    +0.035 C 
ATOM     11  C   UNL     1       5.076  -9.077  -3.996  0.00  0.00    +0.115 C 
ATOM     12  C   UNL     1       5.196  -7.616  -3.627  0.00  0.00    +0.247 C 
ATOM     13  O   UNL     1       5.269  -6.671  -4.383  0.00  0.00    -0.273 OA
ATOM     14  N   UNL     1       5.205  -7.585  -2.278  0.00  0.00    -0.213 N 
ATOM     15  C   UNL     1       5.114  -8.815  -1.756  0.00  0.00    +0.310 C 
ATOM     16  O   UNL     1       5.107  -9.043  -0.562  0.00  0.00    -0.252 OA
ATOM     17  N   UNL     1       5.026  -9.769  -2.702  0.00  0.00    -0.285 N 
ATOM     18  H   UNL     1       4.934 -10.865  -2.668  0.00  0.00    +0.151 HD
ENDBRANCH   4  14
ENDBRANCH   2   4
ENDBRANCH   1   2
BRANCH   1  19
ATOM     19  C   UNL     1       2.415  -4.243  -0.257  0.00  0.00    +0.259 C 
ATOM     20  C   UNL     1       1.880  -4.863   1.035  0.00  0.00    +0.062 C 
BRANCH  19  21
ATOM     21  C   UNL     1       2.403  -2.741  -0.136  0.00  0.00    +0.258 C 
ATOM     22  O   UNL     1       3.447  -2.124  -0.143  0.00  0.00    -0.271 OA
ATOM     23  N   UNL     1       1.233  -2.083  -0.020  0.00  0.00    -0.282 N 
ATOM     24  H   UNL     1       0.292  -2.646   0.073  0.00  0.00    +0.155 HD
BRANCH  23  25
ATOM     25  C   UNL     1       1.213  -0.682  -0.018  0.00  0.00    +0.034 A 
ATOM     26  C   UNL     1       2.138   0.026  -0.774  0.00  0.00    +0.025 A 
ATOM     27  C   UNL     1       2.119   1.406  -0.773  0.00  0.00    +0.025 A 
ATOM     28  C   UNL     1       1.175   2.087  -0.016  0.00  0.00    +0.030 A 
ATOM     29  C   UNL     1       0.249   1.379   0.740  0.00  0.00    +0.025 A 
ATOM     30  C   UNL     1       0.269  -0.002   0.738  0.00  0.00    +0.025 A 
BRANCH  28  31
ATOM     31  N   UNL     1       1.155   3.486  -0.014  0.00  0.00    -0.330 N 
ATOM     32  C   UNL     1       2.460   4.030   0.383  0.00  0.00    +0.105 C 
ATOM     33  C   UNL     1       2.446   5.553   0.234  0.00  0.00    +0.019 C 
ATOM     34  C   UNL     1       1.339   6.137   1.115  0.00  0.00    +0.003 C 
ATOM     35  C   UNL     1      -0.002   5.518   0.713  0.00  0.00    +0.019 C 
ATOM     36  C   UNL     1       0.082   3.996   0.849  0.00  0.00    +0.105 C 
ENDBRANCH  28  31
ENDBRANCH  23  25
ENDBRANCH  19  21
ENDBRANCH   1  19
TORSDOF 7
