REMARK  Name = ZINC13559454
REMARK  2 active torsions:
REMARK  status: ('A' for Active; 'I' for Inactive)
REMARK    1  A    between atoms: C_1  and  N_2
REMARK    2  A    between atoms: N_12  and  O_13
REMARK                            x       y       z     vdW  Elec       q    Type
REMARK                         _______ _______ _______ _____ _____    ______ ____
ROOT
ATOM      1  C   UNL     1      -0.025   1.453   0.197  0.00  0.00    +0.138 C 
ATOM      2  N   UNL     1      -0.001  -0.007   0.087  0.00  0.00    -0.270 N 
ATOM      3  C   UNL     1      -1.131  -0.800  -0.076  0.00  0.00    +0.045 A 
ATOM      4  C   UNL     1      -2.481  -0.480  -0.172  0.00  0.00    +0.039 A 
ATOM      5  C   UNL     1      -3.420  -1.479  -0.333  0.00  0.00    +0.020 A 
ATOM      6  C   UNL     1      -3.032  -2.808  -0.401  0.00  0.00    +0.016 A 
ATOM      7  C   UNL     1      -1.697  -3.145  -0.306  0.00  0.00    +0.011 A 
ATOM      8  C   UNL     1      -0.743  -2.145  -0.144  0.00  0.00    +0.010 A 
ATOM      9  C   UNL     1       0.730  -2.161  -0.013  0.00  0.00    +0.069 C 
ATOM     10  C   UNL     1       1.566  -3.269  -0.024  0.00  0.00    +0.074 C 
ATOM     11  C   UNL     1       1.145  -4.684   0.067  0.00  0.00    +0.133 C 
ATOM     12  N   UNL     1      -0.072  -5.145   0.172  0.00  0.00    -0.085 NA
ATOM     13  C   UNL     1       2.404  -5.465   0.013  0.00  0.00    +0.026 A 
ATOM     14  C   UNL     1       2.674  -6.829   0.053  0.00  0.00    +0.012 A 
ATOM     15  C   UNL     1       3.979  -7.272  -0.018  0.00  0.00    +0.001 A 
ATOM     16  C   UNL     1       5.016  -6.361  -0.131  0.00  0.00    +0.002 A 
ATOM     17  C   UNL     1       4.759  -5.006  -0.172  0.00  0.00    +0.024 A 
ATOM     18  C   UNL     1       3.450  -4.540  -0.101  0.00  0.00    +0.041 A 
ATOM     19  N   UNL     1       2.932  -3.252  -0.127  0.00  0.00    -0.312 N 
ATOM     20  C   UNL     1       1.117  -0.752   0.124  0.00  0.00    +0.253 C 
ATOM     21  O   UNL     1       2.253  -0.331   0.252  0.00  0.00    -0.270 OA
ATOM     22 BR   UNL     1      -5.252  -1.031  -0.463  0.00  0.00    -0.050 Br
ATOM     23  H   UNL     1       3.467  -2.447  -0.204  0.00  0.00    +0.152 HD
ENDROOT
BRANCH  12  24
ATOM     24  O   UNL     1      -0.295  -6.541   0.248  0.00  0.00    -0.409 OA
ATOM     25  H   UNL     1      -1.228  -6.787   0.324  0.00  0.00    +0.328 HD
ENDBRANCH  12  24
TORSDOF 1
