REMARK  Name = ZINC66247062
REMARK  7 active torsions:
REMARK  status: ('A' for Active; 'I' for Inactive)
REMARK    1  A    between atoms: C_1  and  C_2
REMARK    2  A    between atoms: C_2  and  C_26
REMARK    3  A    between atoms: C_7  and  N_9
REMARK    4  A    between atoms: N_9  and  S_10
REMARK    5  A    between atoms: S_10  and  C_13
REMARK    6  A    between atoms: C_16  and  O_22
REMARK    7  A    between atoms: C_17  and  N_19
REMARK                            x       y       z     vdW  Elec       q    Type
REMARK                         _______ _______ _______ _____ _____    ______ ____
ROOT
ATOM      1  S   UNL     1       6.563   1.467  -2.789  0.00  0.00    +0.094 S 
ATOM      2  O   UNL     1       6.418   2.737  -2.169  0.00  0.00    -0.148 OA
ATOM      3  O   UNL     1       7.211   0.376  -2.148  0.00  0.00    -0.148 OA
ENDROOT
BRANCH   1   4
ATOM      4  C   UNL     1       7.419   1.740  -4.304  0.00  0.00    +0.113 A 
ATOM      5  C   UNL     1       8.131   0.710  -4.891  0.00  0.00    +0.032 A 
ATOM      6  C   UNL     1       8.803   0.922  -6.079  0.00  0.00    +0.049 A 
ATOM      7  C   UNL     1       8.763   2.171  -6.684  0.00  0.00    +0.147 A 
ATOM      8  C   UNL     1       8.047   3.202  -6.094  0.00  0.00    +0.169 A 
ATOM      9  C   UNL     1       7.373   2.983  -4.908  0.00  0.00    +0.065 A 
BRANCH   8  10
ATOM     10  N   UNL     1       8.003   4.535  -6.737  0.00  0.00    +0.060 N 
ATOM     11  O   UNL     1       7.379   5.433  -6.222  0.00  0.00    -0.126 OA
ATOM     12  O   UNL     1       8.590   4.724  -7.776  0.00  0.00    -0.126 OA
ENDBRANCH   8  10
BRANCH   7  13
ATOM     13  O   UNL     1       9.424   2.382  -7.853  0.00  0.00    -0.504 OA
ATOM     14  H   UNL     1       8.895   2.201  -8.642  0.00  0.00    +0.292 HD
ENDBRANCH   7  13
ENDBRANCH   1   4
BRANCH   1  15
ATOM     15  N   UNL     1       5.038   0.951  -3.175  0.00  0.00    -0.070 NA
BRANCH  15  22
ATOM     16  C   UNL     1      -0.019   1.526   0.010  0.00  0.00    +0.011 C 
ATOM     17  C   UNL     1       0.002  -0.004   0.002  0.00  0.00    -0.022 C 
ATOM     18  C   UNL     1       0.686  -0.491  -1.279  0.00  0.00    +0.063 C 
ATOM     19  C   UNL     1       2.129  -0.009  -1.258  0.00  0.00    +0.062 A 
ATOM     20  C   UNL     1       2.754   0.210  -0.023  0.00  0.00    +0.079 A 
ATOM     21  S   UNL     1       4.365   0.749  -0.507  0.00  0.00    -0.046 S 
ATOM     22  C   UNL     1       4.137   0.657  -2.176  0.00  0.00    +0.202 A 
ATOM     23  N   UNL     1       2.887   0.236  -2.298  0.00  0.00    -0.226 NA
ATOM     24  C   UNL     1       2.169   0.016   1.222  0.00  0.00    +0.172 C 
ATOM     25  O   UNL     1       2.773   0.252   2.249  0.00  0.00    -0.291 OA
ATOM     26  C   UNL     1       0.743  -0.503   1.243  0.00  0.00    +0.087 C 
ATOM     27  C   UNL     1      -1.436  -0.526   0.032  0.00  0.00    +0.011 C 
ENDBRANCH  15  22
ENDBRANCH   1  15
TORSDOF 5
