REMARK  Name = ZINC63240672
REMARK  4 active torsions:
REMARK  status: ('A' for Active; 'I' for Inactive)
REMARK    1  A    between atoms: C_1  and  C_2
REMARK    2  A    between atoms: C_5  and  C_18
REMARK    3  A    between atoms: N_9  and  C_11
REMARK    4  A    between atoms: N_20  and  C_21
REMARK                            x       y       z     vdW  Elec       q    Type
REMARK                         _______ _______ _______ _____ _____    ______ ____
ROOT
ATOM      1  C   UNL     1      -0.013   1.494  -0.001  0.00  0.00    +0.062 C 
ATOM      2  C   UNL     1       0.003  -0.013  -0.015  0.00  0.00    +0.025 C 
ATOM      3  C   UNL     1      -1.105  -0.787  -0.010  0.00  0.00    +0.004 C 
ATOM      4  C   UNL     1      -2.479  -0.819   0.251  0.00  0.00    +0.028 C 
ATOM      5  C   UNL     1      -3.048  -1.952   0.768  0.00  0.00    +0.072 C 
ATOM      6  S   UNL     1      -1.694  -3.124   0.832  0.00  0.00    -0.091 S 
ATOM      7  C   UNL     1      -0.569  -2.204  -0.286  0.00  0.00    +0.188 C 
ATOM      8  N   UNL     1       0.796  -2.122   0.233  0.00  0.00    -0.236 N 
ATOM      9  N   UNL     1       1.143  -0.775  -0.041  0.00  0.00    -0.267 N 
ATOM     10  H   UNL     1       2.039  -0.446  -0.216  0.00  0.00    +0.170 HD
ENDROOT
BRANCH   8  11
ATOM     11  C   UNL     1       1.564  -3.119   0.840  0.00  0.00    +0.049 A 
ATOM     12  C   UNL     1       1.039  -4.394   1.010  0.00  0.00    +0.026 A 
ATOM     13  C   UNL     1       1.799  -5.378   1.610  0.00  0.00    +0.022 A 
ATOM     14  C   UNL     1       3.083  -5.095   2.043  0.00  0.00    +0.041 A 
ATOM     15  C   UNL     1       3.608  -3.826   1.875  0.00  0.00    +0.022 A 
ATOM     16  C   UNL     1       2.854  -2.840   1.270  0.00  0.00    +0.026 A 
ATOM     17 CL   UNL     1       4.036  -6.335   2.798  0.00  0.00    -0.084 Cl
ENDBRANCH   8  11
BRANCH   5  18
ATOM     18  C   UNL     1      -4.396  -2.150   1.163  0.00  0.00    +0.255 C 
ATOM     19  O   UNL     1      -5.202  -1.243   1.056  0.00  0.00    -0.269 OA
ATOM     20  N   UNL     1      -4.784  -3.342   1.657  0.00  0.00    -0.281 N 
ATOM     21  H   UNL     1      -4.160  -4.085   1.681  0.00  0.00    +0.155 HD
BRANCH  20  22
ATOM     22  C   UNL     1      -6.088  -3.510   2.136  0.00  0.00    +0.036 A 
ATOM     23  C   UNL     1      -7.142  -2.852   1.512  0.00  0.00    +0.024 A 
ATOM     24  C   UNL     1      -8.434  -3.015   1.984  0.00  0.00    +0.009 A 
ATOM     25  C   UNL     1      -8.669  -3.826   3.064  0.00  0.00    +0.000 A 
ATOM     26  C   UNL     1      -7.621  -4.498   3.706  0.00  0.00    +0.090 A 
ATOM     27  C   UNL     1      -6.321  -4.335   3.224  0.00  0.00    +0.053 A 
ATOM     28  N   UNL     1      -8.137  -5.226   4.738  0.00  0.00    -0.178 NA
ATOM     29  N   UNL     1      -9.358  -5.137   4.874  0.00  0.00    -0.304 N 
ATOM     30  C   UNL     1      -9.898  -4.238   3.840  0.00  0.00    +0.171 C 
ATOM     31  H   UNL     1      -9.881  -5.588   5.555  0.00  0.00    +0.183 HD
ENDBRANCH  20  22
ENDBRANCH   5  18
TORSDOF 3
