REMARK  Name = ZINC65612036
REMARK  17 active torsions:
REMARK  status: ('A' for Active; 'I' for Inactive)
REMARK    1  A    between atoms: C_1  and  C_2
REMARK    2  A    between atoms: C_2  and  C_3
REMARK    3  A    between atoms: C_3  and  C_4
REMARK    4  A    between atoms: C_4  and  C_5
REMARK    5  A    between atoms: C_7  and  C_10
REMARK    6  A    between atoms: C_10  and  N_11
REMARK    7  A    between atoms: N_11  and  C_12
REMARK    8  A    between atoms: N_11  and  C_17
REMARK    9  A    between atoms: C_12  and  C_13
REMARK   10  A    between atoms: C_13  and  O_14
REMARK   11  A    between atoms: O_14  and  C_15
REMARK   12  A    between atoms: C_15  and  C_16
REMARK   13  A    between atoms: C_17  and  C_18
REMARK   14  A    between atoms: C_18  and  C_20
REMARK   15  A    between atoms: C_18  and  C_21
REMARK   16  A    between atoms: C_21  and  O_23
REMARK   17  A    between atoms: O_23  and  C_24
REMARK                            x       y       z     vdW  Elec       q    Type
REMARK                         _______ _______ _______ _____ _____    ______ ____
ROOT
ATOM      1  N   UNL     1       1.413  -2.332  -6.869  0.00  0.00    -0.291 NA
ENDROOT
BRANCH   1   2
ATOM      2  C   UNL     1       1.127  -3.552  -6.102  0.00  0.00    +0.183 C 
BRANCH   2   5
ATOM      3  C   UNL     1       0.308  -2.643  -2.690  0.00  0.00    +0.172 A 
ATOM      4  N   UNL     1       0.001  -2.862  -3.974  0.00  0.00    -0.195 NA
ATOM      5  C   UNL     1       1.068  -3.220  -4.634  0.00  0.00    +0.241 A 
ATOM      6  O   UNL     1       2.101  -3.241  -3.782  0.00  0.00    -0.337 OA
ATOM      7  N   UNL     1       1.581  -2.855  -2.518  0.00  0.00    -0.061 NA
BRANCH   3   8
ATOM      8  C   UNL     1      -0.661  -2.215  -1.618  0.00  0.00    +0.080 C 
BRANCH   8   9
ATOM      9  C   UNL     1      -0.717  -0.687  -1.562  0.00  0.00    +0.008 C 
BRANCH   9  11
ATOM     10  C   UNL     1      -1.758   1.276  -0.418  0.00  0.00    +0.004 C 
ATOM     11  C   UNL     1      -1.702  -0.252  -0.474  0.00  0.00    -0.003 C 
ENDBRANCH   9  11
ENDBRANCH   8   9
ENDBRANCH   3   8
ENDBRANCH   2   5
ENDBRANCH   1   2
BRANCH   1  12
ATOM     12  C   UNL     1       2.759  -1.825  -6.571  0.00  0.00    +0.113 C 
BRANCH  12  13
ATOM     13  C   UNL     1       3.784  -2.938  -6.799  0.00  0.00    +0.175 C 
BRANCH  13  14
ATOM     14  O   UNL     1       3.852  -3.245  -8.193  0.00  0.00    -0.379 OA
BRANCH  14  15
ATOM     15  C   UNL     1       4.786  -4.277  -8.516  0.00  0.00    +0.156 C 
ATOM     16  C   UNL     1       4.774  -4.521 -10.027  0.00  0.00    +0.034 C 
ENDBRANCH  14  15
ENDBRANCH  13  14
ENDBRANCH  12  13
ENDBRANCH   1  12
BRANCH   1  17
ATOM     17  C   UNL     1       1.245  -2.564  -8.310  0.00  0.00    +0.099 C 
BRANCH  17  18
ATOM     18  C   UNL     1       1.424  -1.245  -9.064  0.00  0.00    +0.109 C 
ATOM     19  C   UNL     1       0.331  -0.263  -8.639  0.00  0.00    +0.020 C 
BRANCH  18  20
ATOM     20  C   UNL     1       1.324  -1.496 -10.546  0.00  0.00    +0.311 C 
ATOM     21  O   UNL     1       1.130  -2.616 -10.958  0.00  0.00    -0.251 OA
BRANCH  20  22
ATOM     22  O   UNL     1       1.451  -0.476 -11.410  0.00  0.00    -0.468 OA
ATOM     23  C   UNL     1       1.346  -0.787 -12.801  0.00  0.00    +0.280 C 
ENDBRANCH  20  22
ENDBRANCH  18  20
ENDBRANCH  17  18
ENDBRANCH   1  17
TORSDOF 13
