REMARK  Name = ZINC35997681
REMARK  9 active torsions:
REMARK  status: ('A' for Active; 'I' for Inactive)
REMARK    1  A    between atoms: C_1  and  C_2
REMARK    2  A    between atoms: C_2  and  C_3
REMARK    3  A    between atoms: C_9  and  C_11
REMARK    4  A    between atoms: C_11  and  C_13
REMARK    5  A    between atoms: C_11  and  N_22
REMARK    6  A    between atoms: C_16  and  C_19
REMARK    7  A    between atoms: C_19  and  C_20
REMARK    8  A    between atoms: C_19  and  C_21
REMARK    9  A    between atoms: C_26  and  C_29
REMARK                            x       y       z     vdW  Elec       q    Type
REMARK                         _______ _______ _______ _____ _____    ______ ____
ROOT
ATOM      1  C   UNL     1       2.896  -2.477   6.417  0.00  0.00    +0.006 C 
ENDROOT
BRANCH   1   8
ATOM      2  C   UNL     1       0.731  -0.503   1.223  0.00  0.00    +0.152 A 
ATOM      3  N   UNL     1       2.039  -0.738   1.297  0.00  0.00    -0.205 NA
ATOM      4  C   UNL     1       2.334  -1.160   2.497  0.00  0.00    +0.199 A 
ATOM      5  N   UNL     1       1.204  -1.214   3.253  0.00  0.00    -0.170 N 
ATOM      6  N   UNL     1       0.180  -0.769   2.377  0.00  0.00    -0.146 NA
ATOM      7  C   UNL     1       1.335  -1.642   4.552  0.00  0.00    +0.282 A 
ATOM      8  C   UNL     1       2.533  -1.988   5.038  0.00  0.00    +0.050 A 
ATOM      9  S   UNL     1       3.590  -1.715   3.624  0.00  0.00    -0.050 S 
ATOM     10  O   UNL     1       0.237  -1.716   5.352  0.00  0.00    -0.265 OA
BRANCH   2  12
ATOM     11  C   UNL     1      -0.019   1.526   0.010  0.00  0.00    +0.012 C 
ATOM     12  C   UNL     1       0.002  -0.004   0.002  0.00  0.00    +0.075 C 
ENDBRANCH   2  12
ENDBRANCH   1   8
BRANCH   1  13
ATOM     13  N   UNL     1       3.602  -3.760   6.311  0.00  0.00    +0.388 N 
ATOM     14  C   UNL     1       2.735  -4.741   5.647  0.00  0.00    -0.077 C 
ATOM     15  C   UNL     1       3.494  -6.056   5.462  0.00  0.00    -0.018 C 
ATOM     16  C   UNL     1       3.919  -6.592   6.833  0.00  0.00    -0.001 C 
ATOM     17  C   UNL     1       4.761  -5.531   7.546  0.00  0.00    -0.031 C 
ATOM     18  C   UNL     1       3.954  -4.235   7.654  0.00  0.00    -0.074 C 
ATOM     19  C   UNL     1       5.126  -6.025   8.947  0.00  0.00    +0.005 C 
ATOM     20  H   UNL     1       4.443  -3.636   5.768  0.00  0.00    -0.080 HD
ENDBRANCH   1  13
BRANCH   1  21
ATOM     21  C   UNL     1       3.788  -1.466   7.089  0.00  0.00    -0.056 A 
ATOM     22  C   UNL     1       5.136  -1.421   6.783  0.00  0.00    +0.002 A 
ATOM     23  C   UNL     1       5.955  -0.494   7.400  0.00  0.00    +0.004 A 
ATOM     24  C   UNL     1       5.426   0.389   8.323  0.00  0.00    -0.045 A 
ATOM     25  C   UNL     1       4.079   0.345   8.629  0.00  0.00    +0.004 A 
ATOM     26  C   UNL     1       3.259  -0.580   8.009  0.00  0.00    +0.002 A 
BRANCH  24  27
ATOM     27  C   UNL     1       6.319   1.399   8.997  0.00  0.00    +0.013 C 
ATOM     28  C   UNL     1       5.822   2.811   8.680  0.00  0.00    +0.012 C 
ATOM     29  C   UNL     1       6.290   1.176  10.510  0.00  0.00    +0.012 C 
ENDBRANCH  24  27
ENDBRANCH   1  21
TORSDOF 5
