REMARK  Name = ZINC37942930
REMARK  5 active torsions:
REMARK  status: ('A' for Active; 'I' for Inactive)
REMARK    1  A    between atoms: C_1  and  C_2
REMARK    2  A    between atoms: C_8  and  C_9
REMARK    3  A    between atoms: C_8  and  N_12
REMARK    4  A    between atoms: N_12  and  C_13
REMARK    5  A    between atoms: C_13  and  C_14
REMARK                            x       y       z     vdW  Elec       q    Type
REMARK                         _______ _______ _______ _____ _____    ______ ____
ROOT
ATOM      1  C   UNL     1       0.037   1.542   0.187  0.00  0.00    +0.006 C 
ATOM      2  C   UNL     1       0.077   0.013   0.166  0.00  0.00    -0.016 C 
ATOM      3  C   UNL     1      -1.350  -0.534   0.104  0.00  0.00    +0.002 C 
ATOM      4  C   UNL     1      -1.310  -2.063   0.083  0.00  0.00    +0.000 C 
ATOM      5  C   UNL     1      -0.623  -2.573   1.351  0.00  0.00    -0.001 C 
ATOM      6  C   UNL     1       0.805  -2.026   1.413  0.00  0.00    -0.003 C 
ATOM      7  C   UNL     1       0.764  -0.497   1.435  0.00  0.00    +0.012 C 
ENDROOT
BRANCH   7   8
ATOM      8  C   UNL     1      -0.005  -0.031   2.644  0.00  0.00    +0.200 C 
ATOM      9  O   UNL     1      -0.784  -0.781   3.193  0.00  0.00    -0.278 OA
ATOM     10  N   UNL     1       0.173   1.219   3.116  0.00  0.00    -0.330 N 
ATOM     11  H   UNL     1       0.743   1.841   2.638  0.00  0.00    +0.145 HD
ATOM     12  H   UNL     1      -0.269   1.496   3.933  0.00  0.00    +0.145 HD
ENDBRANCH   7   8
BRANCH   7  13
ATOM     13  N   UNL     1       2.135   0.029   1.494  0.00  0.00    +0.390 N 
ATOM     14  H   UNL     1       2.638  -0.250   0.665  0.00  0.00    -0.084 HD
ATOM     15  H   UNL     1       2.107   1.036   1.547  0.00  0.00    -0.084 HD
BRANCH  13  16
ATOM     16  C   UNL     1       2.813  -0.506   2.682  0.00  0.00    -0.049 C 
BRANCH  16  17
ATOM     17  C   UNL     1       4.257  -0.000   2.716  0.00  0.00    +0.101 C 
ATOM     18  C   UNL     1       5.013  -0.652   3.894  0.00  0.00    +0.032 C 
ATOM     19  C   UNL     1       5.880   0.523   4.420  0.00  0.00    +0.030 C 
ATOM     20  C   UNL     1       4.937   1.724   4.159  0.00  0.00    +0.160 C 
ATOM     21  O   UNL     1       4.270   1.417   2.923  0.00  0.00    -0.378 OA
ENDBRANCH  16  17
ENDBRANCH  13  16
ENDBRANCH   7  13
TORSDOF 4
