REMARK  Name = ZINC59022612
REMARK  12 active torsions:
REMARK  status: ('A' for Active; 'I' for Inactive)
REMARK    1  A    between atoms: C_1  and  C_2
REMARK    2  A    between atoms: C_7  and  N_8
REMARK    3  A    between atoms: C_9  and  C_11
REMARK    4  A    between atoms: C_11  and  S_12
REMARK    5  A    between atoms: S_12  and  C_13
REMARK    6  A    between atoms: N_18  and  N_19
REMARK    7  A    between atoms: C_20  and  C_21
REMARK    8  A    between atoms: C_20  and  C_22
REMARK    9  A    between atoms: C_25  and  O_30
REMARK   10  A    between atoms: C_27  and  O_28
REMARK   11  A    between atoms: O_28  and  C_29
REMARK   12  A    between atoms: O_30  and  C_31
REMARK                            x       y       z     vdW  Elec       q    Type
REMARK                         _______ _______ _______ _____ _____    ______ ____
ROOT
ATOM      1  C   UNL     1      -0.770  -0.092   7.678  0.00  0.00    +0.211 A 
ATOM      2  N   UNL     1      -0.757  -0.539   8.938  0.00  0.00    -0.186 NA
ATOM      3  C   UNL     1      -0.808   0.480   9.770  0.00  0.00    +0.232 A 
ATOM      4  N   UNL     1      -0.855   1.614   9.038  0.00  0.00    -0.245 N 
ATOM      5  N   UNL     1      -0.824   1.218   7.691  0.00  0.00    -0.144 NA
ATOM      6  N   UNL     1      -0.813   0.404  11.150  0.00  0.00    -0.205 N 
ATOM      7  H   UNL     1      -0.926   1.208  11.680  0.00  0.00    +0.177 HD
ATOM      8  H   UNL     1      -0.898   2.522   9.375  0.00  0.00    +0.192 HD
ENDROOT
BRANCH   6   9
ATOM      9  N   UNL     1      -0.654  -0.836  11.784  0.00  0.00    -0.184 NA
ATOM     10  C   UNL     1      -0.564  -0.897  13.078  0.00  0.00    +0.067 C 
ATOM     11  C   UNL     1      -0.257  -2.210  13.750  0.00  0.00    +0.068 C 
BRANCH  10  12
ATOM     12  C   UNL     1      -0.763   0.318  13.888  0.00  0.00    +0.039 A 
ATOM     13  C   UNL     1      -2.013   0.941  13.922  0.00  0.00    +0.017 A 
ATOM     14  C   UNL     1      -2.196   2.076  14.682  0.00  0.00    +0.046 A 
ATOM     15  C   UNL     1      -1.139   2.604  15.414  0.00  0.00    +0.124 A 
ATOM     16  C   UNL     1       0.105   1.993  15.387  0.00  0.00    +0.091 A 
ATOM     17  C   UNL     1       0.299   0.849  14.633  0.00  0.00    +0.132 A 
BRANCH  17  18
ATOM     18  O   UNL     1       1.516   0.246  14.609  0.00  0.00    -0.494 OA
ATOM     19  C   UNL     1       2.522   0.782  15.470  0.00  0.00    +0.277 C 
ENDBRANCH  17  18
BRANCH  15  20
ATOM     20  O   UNL     1      -1.327   3.724  16.160  0.00  0.00    -0.495 OA
ATOM     21  C   UNL     1      -2.633   4.304  16.143  0.00  0.00    +0.277 C 
ENDBRANCH  15  20
ENDBRANCH  10  12
ENDBRANCH   6   9
BRANCH   1  22
ATOM     22  S   UNL     1      -0.716  -1.101   6.234  0.00  0.00    -0.075 S 
BRANCH  22  23
ATOM     23  C   UNL     1      -0.754   0.090   4.866  0.00  0.00    +0.173 C 
BRANCH  23  25
ATOM     24  N   UNL     1      -0.731   0.033   2.393  0.00  0.00    -0.285 N 
ATOM     25  C   UNL     1      -0.712  -0.651   3.554  0.00  0.00    +0.227 C 
ATOM     26  O   UNL     1      -0.662  -1.863   3.543  0.00  0.00    -0.275 OA
ATOM     27  H   UNL     1      -0.709   1.003   2.401  0.00  0.00    +0.155 HD
BRANCH  24  34
ATOM     28  C   UNL     1      -2.154   1.220   0.234  0.00  0.00    +0.046 C 
ATOM     29  C   UNL     1      -1.464  -0.112   0.096  0.00  0.00    -0.028 A 
ATOM     30  C   UNL     1      -1.506  -0.791  -1.106  0.00  0.00    +0.020 A 
ATOM     31  C   UNL     1      -0.873  -2.014  -1.233  0.00  0.00    +0.018 A 
ATOM     32  C   UNL     1      -0.196  -2.561  -0.157  0.00  0.00    +0.017 A 
ATOM     33  C   UNL     1      -0.150  -1.887   1.047  0.00  0.00    +0.024 A 
ATOM     34  C   UNL     1      -0.780  -0.655   1.175  0.00  0.00    +0.036 A 
ATOM     35 BR   UNL     1      -0.934  -2.941  -2.880  0.00  0.00    -0.050 Br
ENDBRANCH  24  34
ENDBRANCH  23  25
ENDBRANCH  22  23
ENDBRANCH   1  22
TORSDOF 8
