REMARK  Name = ZINC36575578
REMARK  17 active torsions:
REMARK  status: ('A' for Active; 'I' for Inactive)
REMARK    1  A    between atoms: C_1  and  C_2
REMARK    2  A    between atoms: C_2  and  C_3
REMARK    3  A    between atoms: C_3  and  N_4
REMARK    4  A    between atoms: N_4  and  C_5
REMARK    5  A    between atoms: C_5  and  C_7
REMARK    6  A    between atoms: C_5  and  C_16
REMARK    7  A    between atoms: N_18  and  C_19
REMARK    8  A    between atoms: C_19  and  C_20
REMARK    9  A    between atoms: C_19  and  C_21
REMARK   10  A    between atoms: C_19  and  C_22
REMARK   11  A    between atoms: C_22  and  C_23
REMARK   12  A    between atoms: C_23  and  C_24
REMARK   13  A    between atoms: C_23  and  C_25
REMARK   14  A    between atoms: C_23  and  C_26
REMARK   15  A    between atoms: C_27  and  C_29
REMARK   16  A    between atoms: C_29  and  N_30
REMARK   17  A    between atoms: C_31  and  C_33
REMARK                            x       y       z     vdW  Elec       q    Type
REMARK                         _______ _______ _______ _____ _____    ______ ____
ROOT
ATOM      1  C   UNL     1       1.598  -2.129  -0.791  0.00  0.00    +0.192 C 
ENDROOT
BRANCH   1   2
ATOM      2  C   UNL     1       2.669  -1.331  -0.094  0.00  0.00    -0.015 A 
ATOM      3  C   UNL     1       2.818   0.015  -0.373  0.00  0.00    +0.010 A 
ATOM      4  C   UNL     1       3.799   0.751   0.265  0.00  0.00    +0.050 A 
ATOM      5  C   UNL     1       4.635   0.141   1.186  0.00  0.00    +0.166 A 
ATOM      6  C   UNL     1       4.484  -1.214   1.467  0.00  0.00    +0.167 A 
ATOM      7  C   UNL     1       3.496  -1.945   0.829  0.00  0.00    +0.055 A 
ATOM      8  O   UNL     1       5.418  -1.573   2.397  0.00  0.00    -0.453 OA
ATOM      9  C   UNL     1       6.402  -0.523   2.379  0.00  0.00    +0.466 C 
ATOM     10  O   UNL     1       5.662   0.632   1.940  0.00  0.00    -0.453 OA
ENDBRANCH   1   2
BRANCH   1  11
ATOM     11  C   UNL     1       2.019  -2.401  -2.212  0.00  0.00    +0.238 C 
ATOM     12  O   UNL     1       1.374  -1.948  -3.134  0.00  0.00    -0.273 OA
ATOM     13  N   UNL     1       3.114  -3.148  -2.459  0.00  0.00    -0.308 N 
ATOM     14  H   UNL     1       3.630  -3.510  -1.722  0.00  0.00    +0.149 HD
BRANCH  13  15
ATOM     15  C   UNL     1       3.524  -3.412  -3.841  0.00  0.00    +0.030 C 
ATOM     16  C   UNL     1       2.470  -4.283  -4.528  0.00  0.00    +0.031 C 
ATOM     17  C   UNL     1       3.662  -2.088  -4.594  0.00  0.00    +0.031 C 
BRANCH  15  18
ATOM     18  C   UNL     1       4.868  -4.143  -3.843  0.00  0.00    +0.031 C 
BRANCH  18  19
ATOM     19  C   UNL     1       5.751  -3.589  -2.722  0.00  0.00    -0.036 C 
ATOM     20  C   UNL     1       5.432  -4.317  -1.415  0.00  0.00    +0.010 C 
ATOM     21  C   UNL     1       7.223  -3.804  -3.079  0.00  0.00    +0.010 C 
ATOM     22  C   UNL     1       5.481  -2.093  -2.552  0.00  0.00    +0.010 C 
ENDBRANCH  18  19
ENDBRANCH  15  18
ENDBRANCH  13  15
ENDBRANCH   1  11
BRANCH   1  23
ATOM     23  N   UNL     1       0.344  -1.370  -0.791  0.00  0.00    -0.285 N 
ATOM     24  C   UNL     1      -0.341  -1.203   0.357  0.00  0.00    +0.234 C 
ATOM     25  O   UNL     1       0.079  -1.681   1.390  0.00  0.00    -0.274 OA
BRANCH  23  26
ATOM     26  C   UNL     1      -0.163  -0.793  -2.038  0.00  0.00    +0.108 C 
BRANCH  26  28
ATOM     27  C   UNL     1      -1.617  -1.201  -4.029  0.00  0.00    +0.005 C 
ATOM     28  C   UNL     1      -1.018  -1.830  -2.769  0.00  0.00    +0.016 C 
ENDBRANCH  26  28
ENDBRANCH  23  26
BRANCH  24  29
ATOM     29  C   UNL     1      -1.630  -0.422   0.358  0.00  0.00    +0.200 C 
BRANCH  29  30
ATOM     30  N   UNL     1      -2.178  -0.384   1.716  0.00  0.00    -0.303 N 
ATOM     31  C   UNL     1      -3.334   0.264   1.959  0.00  0.00    +0.244 C 
ATOM     32  O   UNL     1      -3.923   0.817   1.051  0.00  0.00    -0.270 OA
ATOM     33  H   UNL     1      -1.708  -0.826   2.441  0.00  0.00    +0.150 HD
BRANCH  31  34
ATOM     34  C   UNL     1      -3.886   0.302   3.330  0.00  0.00    +0.037 A 
ATOM     35  C   UNL     1      -3.210  -0.327   4.376  0.00  0.00    +0.013 A 
ATOM     36  C   UNL     1      -3.730  -0.287   5.653  0.00  0.00    +0.001 A 
ATOM     37  C   UNL     1      -4.921   0.374   5.898  0.00  0.00    +0.000 A 
ATOM     38  C   UNL     1      -5.597   0.999   4.865  0.00  0.00    +0.001 A 
ATOM     39  C   UNL     1      -5.084   0.973   3.585  0.00  0.00    +0.013 A 
ENDBRANCH  31  34
ENDBRANCH  29  30
ENDBRANCH  24  29
ENDBRANCH   1  23
TORSDOF 11
