REMARK  Name = ZINC35938654
REMARK  9 active torsions:
REMARK  status: ('A' for Active; 'I' for Inactive)
REMARK    1  A    between atoms: C_1  and  C_2
REMARK    2  A    between atoms: C_2  and  C_3
REMARK    3  A    between atoms: C_3  and  C_4
REMARK    4  A    between atoms: C_4  and  C_5
REMARK    5  A    between atoms: C_8  and  C_11
REMARK    6  A    between atoms: C_19  and  C_21
REMARK    7  A    between atoms: C_21  and  C_23
REMARK    8  A    between atoms: C_21  and  N_24
REMARK    9  A    between atoms: C_32  and  C_34
REMARK                            x       y       z     vdW  Elec       q    Type
REMARK                         _______ _______ _______ _____ _____    ______ ____
ROOT
ATOM      1  C   UNL     1       2.512  -3.956   5.629  0.00  0.00    +0.247 C 
ATOM      2  O   UNL     1       3.704  -4.061   5.412  0.00  0.00    -0.270 OA
ATOM      3  N   UNL     1       2.035  -4.142   6.876  0.00  0.00    -0.295 N 
ATOM      4  C   UNL     1       0.588  -4.139   7.132  0.00  0.00    +0.127 C 
ATOM      5  C   UNL     1       0.212  -5.450   7.833  0.00  0.00    +0.126 C 
ATOM      6  N   UNL     1       1.130  -5.660   8.961  0.00  0.00    -0.300 N 
ATOM      7  C   UNL     1       2.577  -5.663   8.706  0.00  0.00    +0.126 C 
ATOM      8  C   UNL     1       2.953  -4.357   8.004  0.00  0.00    +0.127 C 
ATOM      9  C   UNL     1       0.653  -5.845  10.208  0.00  0.00    +0.202 C 
ATOM     10  O   UNL     1      -0.542  -5.930  10.394  0.00  0.00    -0.277 OA
ENDROOT
BRANCH   1  14
ATOM     11  C   UNL     1      -0.149  -3.004   2.458  0.00  0.00    -0.047 A 
ATOM     12  C   UNL     1       0.969  -3.781   2.210  0.00  0.00    +0.004 A 
ATOM     13  C   UNL     1       1.837  -4.094   3.235  0.00  0.00    +0.013 A 
ATOM     14  C   UNL     1       1.586  -3.625   4.526  0.00  0.00    +0.037 A 
ATOM     15  C   UNL     1       0.457  -2.841   4.770  0.00  0.00    +0.013 A 
ATOM     16  C   UNL     1      -0.401  -2.531   3.734  0.00  0.00    +0.004 A 
BRANCH  11  17
ATOM     17  C   UNL     1      -1.093  -2.667   1.333  0.00  0.00    +0.035 C 
BRANCH  17  18
ATOM     18  C   UNL     1      -0.645  -1.366   0.664  0.00  0.00    +0.004 C 
BRANCH  18  20
ATOM     19  C   UNL     1      -1.155   0.278  -1.147  0.00  0.00    +0.004 C 
ATOM     20  C   UNL     1      -1.603  -1.023  -0.478  0.00  0.00    -0.003 C 
ENDBRANCH  18  20
ENDBRANCH  17  18
ENDBRANCH  11  17
ENDBRANCH   1  14
BRANCH   9  21
ATOM     21  C   UNL     1       1.605  -5.948  11.372  0.00  0.00    +0.018 C 
ATOM     22  C   UNL     1       2.011  -4.543  11.823  0.00  0.00    -0.004 C 
BRANCH  21  23
ATOM     23  N   UNL     1       0.948  -6.649  12.483  0.00  0.00    +0.395 N 
ATOM     24  C   UNL     1      -0.210  -5.864  12.932  0.00  0.00    -0.071 C 
ATOM     25  C   UNL     1      -0.691  -6.416  14.285  0.00  0.00    +0.024 C 
ATOM     26  C   UNL     1      -0.771  -7.903  14.161  0.00  0.00    -0.010 A 
ATOM     27  C   UNL     1      -0.239  -8.661  13.161  0.00  0.00    -0.047 A 
ATOM     28  C   UNL     1      -0.443 -10.036  13.248  0.00  0.00    +0.010 A 
ATOM     29  C   UNL     1      -1.136 -10.553  14.290  0.00  0.00    +0.045 A 
ATOM     30  S   UNL     1      -1.546  -9.086  15.225  0.00  0.00    -0.101 S 
ATOM     31  C   UNL     1       0.531  -7.982  12.033  0.00  0.00    -0.005 C 
ATOM     32  H   UNL     1       1.600  -6.744  13.247  0.00  0.00    -0.079 HD
BRANCH  31  33
ATOM     33  C   UNL     1       1.748  -8.802  11.688  0.00  0.00    -0.057 A 
ATOM     34  C   UNL     1       2.878  -8.730  12.481  0.00  0.00    +0.002 A 
ATOM     35  C   UNL     1       3.994  -9.482  12.164  0.00  0.00    +0.000 A 
ATOM     36  C   UNL     1       3.980 -10.306  11.054  0.00  0.00    +0.000 A 
ATOM     37  C   UNL     1       2.850 -10.378  10.261  0.00  0.00    +0.000 A 
ATOM     38  C   UNL     1       1.732  -9.630  10.581  0.00  0.00    +0.002 A 
ENDBRANCH  31  33
ENDBRANCH  21  23
ENDBRANCH   9  21
TORSDOF 7
