REMARK  Name = ZINC37746301
REMARK  5 active torsions:
REMARK  status: ('A' for Active; 'I' for Inactive)
REMARK    1  A    between atoms: C_1  and  C_2
REMARK    2  A    between atoms: C_5  and  O_19
REMARK    3  A    between atoms: C_6  and  N_8
REMARK    4  A    between atoms: N_8  and  S_9
REMARK    5  A    between atoms: S_9  and  N_12
REMARK                            x       y       z     vdW  Elec       q    Type
REMARK                         _______ _______ _______ _____ _____    ______ ____
ROOT
ATOM      1  N   UNL     1       0.052  -2.794   2.398  0.00  0.00    -0.203 N 
ATOM      2  H   UNL     1       0.596  -3.594   2.474  0.00  0.00    +0.175 HD
ENDROOT
BRANCH   1   8
ATOM      3  C   UNL     1      -0.480   1.297  -0.275  0.00  0.00    +0.044 C 
ATOM      4  C   UNL     1      -0.386  -0.203  -0.176  0.00  0.00    -0.048 A 
ATOM      5  C   UNL     1      -0.474  -0.977  -1.318  0.00  0.00    +0.007 A 
ATOM      6  C   UNL     1      -0.388  -2.355  -1.233  0.00  0.00    +0.047 A 
ATOM      7  C   UNL     1      -0.213  -2.963  -0.001  0.00  0.00    +0.139 A 
ATOM      8  C   UNL     1      -0.124  -2.184   1.150  0.00  0.00    +0.091 A 
ATOM      9  C   UNL     1      -0.206  -0.803   1.057  0.00  0.00    +0.031 A 
BRANCH   7  10
ATOM     10  O   UNL     1      -0.129  -4.318   0.084  0.00  0.00    -0.505 OA
ATOM     11  H   UNL     1       0.772  -4.662   0.008  0.00  0.00    +0.292 HD
ENDBRANCH   7  10
ENDBRANCH   1   8
BRANCH   1  12
ATOM     12  S   UNL     1      -0.668  -2.150   3.743  0.00  0.00    +0.112 S 
ATOM     13  O   UNL     1      -0.407  -3.049   4.813  0.00  0.00    -0.138 OA
ATOM     14  O   UNL     1      -0.290  -0.781   3.790  0.00  0.00    -0.138 OA
BRANCH  12  15
ATOM     15  N   UNL     1      -2.303  -2.182   3.486  0.00  0.00    -0.164 NA
ATOM     16  C   UNL     1      -2.927  -1.042   2.852  0.00  0.00    +0.111 C 
ATOM     17  C   UNL     1      -3.352  -0.016   3.931  0.00  0.00    +0.017 C 
ATOM     18  C   UNL     1      -4.497  -0.527   4.700  0.00  0.00    +0.001 C 
ATOM     19  C   UNL     1      -4.208  -1.803   5.485  0.00  0.00    +0.001 C 
ATOM     20  C   UNL     1      -4.398  -2.998   4.585  0.00  0.00    +0.017 C 
ATOM     21  C   UNL     1      -3.063  -3.375   3.908  0.00  0.00    +0.111 C 
ENDBRANCH  12  15
ENDBRANCH   1  12
TORSDOF 4
