REMARK  Name = ZINC00333474
REMARK  7 active torsions:
REMARK  status: ('A' for Active; 'I' for Inactive)
REMARK    1  A    between atoms: C_1  and  C_2
REMARK    2  A    between atoms: C_5  and  C_22
REMARK    3  A    between atoms: C_6  and  N_8
REMARK    4  A    between atoms: C_9  and  C_11
REMARK    5  A    between atoms: C_11  and  C_12
REMARK    6  A    between atoms: C_12  and  C_14
REMARK    7  A    between atoms: C_12  and  C_20
REMARK                            x       y       z     vdW  Elec       q    Type
REMARK                         _______ _______ _______ _____ _____    ______ ____
ROOT
ATOM      1  N   UNL     1      -1.733   3.654   2.228  0.00  0.00    -0.285 N 
ATOM      2  C   UNL     1      -0.921   3.286   1.216  0.00  0.00    +0.218 C 
ATOM      3  O   UNL     1      -1.370   2.672   0.271  0.00  0.00    -0.275 OA
ATOM      4  H   UNL     1      -1.361   4.073   3.019  0.00  0.00    +0.155 HD
ENDROOT
BRANCH   1  10
ATOM      5  C   UNL     1      -5.736   2.985  -0.547  0.00  0.00    +0.044 C 
ATOM      6  C   UNL     1      -5.077   3.101   0.803  0.00  0.00    -0.049 A 
ATOM      7  C   UNL     1      -5.836   2.987   1.954  0.00  0.00    +0.004 A 
ATOM      8  C   UNL     1      -5.236   3.093   3.195  0.00  0.00    +0.005 A 
ATOM      9  C   UNL     1      -3.875   3.314   3.289  0.00  0.00    -0.029 A 
ATOM     10  C   UNL     1      -3.111   3.429   2.136  0.00  0.00    +0.037 A 
ATOM     11  C   UNL     1      -3.718   3.328   0.891  0.00  0.00    +0.027 A 
ATOM     12  C   UNL     1      -3.222   3.430   4.642  0.00  0.00    +0.045 C 
ENDBRANCH   1  10
BRANCH   2  13
ATOM     13  C   UNL     1       0.543   3.638   1.259  0.00  0.00    +0.113 C 
BRANCH  13  14
ATOM     14  C   UNL     1       1.232   3.109  -0.000  0.00  0.00    +0.139 C 
BRANCH  14  15
ATOM     15  C   UNL     1       2.690   3.573  -0.017  0.00  0.00    +0.133 C 
ATOM     16  C   UNL     1       3.362   3.141  -1.339  0.00  0.00    +0.034 C 
ATOM     17  C   UNL     1       4.780   2.722  -0.866  0.00  0.00    +0.031 C 
ATOM     18  C   UNL     1       4.462   2.130   0.530  0.00  0.00    +0.160 C 
ATOM     19  O   UNL     1       3.409   2.955   1.056  0.00  0.00    -0.376 OA
ENDBRANCH  14  15
BRANCH  14  20
ATOM     20  C   UNL     1       1.184   1.603  -0.004  0.00  0.00    +0.362 C 
ATOM     21  O   UNL     1       2.211   0.966  -0.018  0.00  0.00    -0.246 OA
ATOM     22  O   UNL     1       0.001   0.969   0.010  0.00  0.00    -0.246 OA
ENDBRANCH  14  20
ENDBRANCH  13  14
ENDBRANCH   2  13
TORSDOF 5
