REMARK  Name = ZINC27554762
REMARK  9 active torsions:
REMARK  status: ('A' for Active; 'I' for Inactive)
REMARK    1  A    between atoms: C_1  and  C_2
REMARK    2  A    between atoms: C_2  and  C_3
REMARK    3  A    between atoms: C_8  and  N_9
REMARK    4  A    between atoms: C_12  and  C_17
REMARK    5  A    between atoms: C_17  and  N_18
REMARK    6  A    between atoms: N_18  and  C_19
REMARK    7  A    between atoms: N_18  and  C_20
REMARK    8  A    between atoms: C_20  and  C_22
REMARK    9  A    between atoms: C_20  and  C_23
REMARK                            x       y       z     vdW  Elec       q    Type
REMARK                         _______ _______ _______ _____ _____    ______ ____
ROOT
ATOM      1  N   UNL     1      -3.398   0.550  -3.361  0.00  0.00    -0.283 N 
ATOM      2  C   UNL     1      -2.381   1.288  -2.788  0.00  0.00    +0.224 A 
ATOM      3  N   UNL     1      -1.758   0.832  -1.703  0.00  0.00    -0.201 NA
ATOM      4  C   UNL     1      -0.788   1.539  -1.150  0.00  0.00    +0.120 A 
ATOM      5  N   UNL     1      -0.425   2.695  -1.677  0.00  0.00    -0.202 NA
ATOM      6  C   UNL     1      -1.040   3.155  -2.764  0.00  0.00    +0.217 A 
ATOM      7  N   UNL     1      -2.019   2.449  -3.320  0.00  0.00    -0.181 NA
ATOM      8  N   UNL     1      -0.660   4.363  -3.314  0.00  0.00    -0.327 N 
ATOM      9  H   UNL     1      -3.633  -0.454  -2.980  0.00  0.00    +0.155 HD
ATOM     10  H   UNL     1      -1.168   4.742  -4.213  0.00  0.00    +0.145 HD
ATOM     11  H   UNL     1       0.150   4.946  -2.853  0.00  0.00    +0.145 HD
ENDROOT
BRANCH   1  17
ATOM     12  C   UNL     1      -4.769   0.234  -5.324  0.00  0.00    -0.026 A 
ATOM     13  C   UNL     1      -5.491   0.762  -6.376  0.00  0.00    +0.005 A 
ATOM     14  C   UNL     1      -5.580   2.132  -6.537  0.00  0.00    +0.000 A 
ATOM     15  C   UNL     1      -4.947   2.979  -5.646  0.00  0.00    +0.002 A 
ATOM     16  C   UNL     1      -4.226   2.458  -4.590  0.00  0.00    +0.023 A 
ATOM     17  C   UNL     1      -4.130   1.082  -4.428  0.00  0.00    +0.037 A 
BRANCH  12  19
ATOM     18  C   UNL     1      -5.747  -1.729  -4.167  0.00  0.00    +0.009 C 
ATOM     19  C   UNL     1      -4.672  -1.259  -5.149  0.00  0.00    +0.033 C 
ENDBRANCH  12  19
ENDBRANCH   1  17
BRANCH   4  20
ATOM     20  C   UNL     1      -0.090   1.022   0.082  0.00  0.00    -0.001 C 
BRANCH  20  21
ATOM     21  N   UNL     1      -0.787   1.508   1.280  0.00  0.00    +0.387 N 
ATOM     22  C   UNL     1      -2.135   0.932   1.375  0.00  0.00    -0.095 C 
ATOM     23  H   UNL     1      -0.892   2.600   1.191  0.00  0.00    -0.081 HD
BRANCH  21  24
ATOM     24  C   UNL     1      -0.008   1.227   2.493  0.00  0.00    -0.034 C 
ATOM     25  C   UNL     1      -0.704   1.852   3.704  0.00  0.00    -0.008 C 
BRANCH  24  26
ATOM     26  C   UNL     1       1.373   1.813   2.350  0.00  0.00    -0.024 A 
ATOM     27  C   UNL     1       2.572   1.254   2.644  0.00  0.00    +0.009 A 
ATOM     28  C   UNL     1       3.725   1.986   2.428  0.00  0.00    +0.008 A 
ATOM     29  C   UNL     1       3.621   3.243   1.930  0.00  0.00    +0.045 A 
ATOM     30  S   UNL     1       1.855   3.421   1.743  0.00  0.00    -0.103 S 
ENDBRANCH  24  26
ENDBRANCH  21  24
ENDBRANCH  20  21
ENDBRANCH   4  20
TORSDOF 6
