REMARK  Name = ZINC01821179
REMARK  8 active torsions:
REMARK  status: ('A' for Active; 'I' for Inactive)
REMARK    1  A    between atoms: C_1  and  O_2
REMARK    2  A    between atoms: O_2  and  C_3
REMARK    3  A    between atoms: C_6  and  C_9
REMARK    4  A    between atoms: N_10  and  N_11
REMARK    5  A    between atoms: C_13  and  C_27
REMARK    6  A    between atoms: C_15  and  N_16
REMARK    7  A    between atoms: C_17  and  C_18
REMARK    8  A    between atoms: C_23  and  O_24
REMARK                            x       y       z     vdW  Elec       q    Type
REMARK                         _______ _______ _______ _____ _____    ______ ____
ROOT
ATOM      1  N   UNL     1       3.159  -4.408  -5.519  0.00  0.00    -0.205 N 
ATOM      2  C   UNL     1       3.762  -3.781  -6.576  0.00  0.00    +0.142 A 
ATOM      3  C   UNL     1       4.232  -4.757  -7.401  0.00  0.00    +0.068 A 
ATOM      4  N   UNL     1       3.924  -5.950  -6.860  0.00  0.00    -0.322 N 
ATOM      5  C   UNL     1       3.283  -5.757  -5.724  0.00  0.00    +0.230 A 
ATOM      6  H   UNL     1       4.142  -6.814  -7.242  0.00  0.00    +0.169 HD
ENDROOT
BRANCH   3   7
ATOM      7  C   UNL     1       4.960  -4.543  -8.676  0.00  0.00    -0.000 A 
ATOM      8  C   UNL     1       5.383  -5.635  -9.432  0.00  0.00    +0.010 A 
ATOM      9  C   UNL     1       6.059  -5.430 -10.617  0.00  0.00    +0.001 A 
ATOM     10  C   UNL     1       6.316  -4.143 -11.056  0.00  0.00    +0.000 A 
ATOM     11  C   UNL     1       5.898  -3.056 -10.310  0.00  0.00    +0.001 A 
ATOM     12  C   UNL     1       5.217  -3.249  -9.126  0.00  0.00    +0.010 A 
ENDBRANCH   3   7
BRANCH   1  14
ATOM     13  C   UNL     1       2.491  -2.490  -4.359  0.00  0.00    +0.141 C 
ATOM     14  N   UNL     1       2.537  -3.786  -4.428  0.00  0.00    -0.172 NA
BRANCH  13  18
ATOM     15  C   UNL     1       0.605  -0.607  -1.055  0.00  0.00    +0.120 A 
ATOM     16  C   UNL     1       1.172   0.165  -2.061  0.00  0.00    +0.046 A 
ATOM     17  C   UNL     1       1.785  -0.442  -3.136  0.00  0.00    +0.013 A 
ATOM     18  C   UNL     1       1.837  -1.836  -3.212  0.00  0.00    -0.005 A 
ATOM     19  C   UNL     1       1.265  -2.609  -2.197  0.00  0.00    +0.013 A 
ATOM     20  C   UNL     1       0.659  -1.993  -1.124  0.00  0.00    +0.046 A 
BRANCH  15  22
ATOM     21  C   UNL     1      -0.017   1.425   0.010  0.00  0.00    +0.277 C 
ATOM     22  O   UNL     1       0.002  -0.004   0.002  0.00  0.00    -0.495 OA
ENDBRANCH  15  22
ENDBRANCH  13  18
ENDBRANCH   1  14
BRANCH   5  23
ATOM     23  N   UNL     1       2.821  -6.732  -4.899  0.00  0.00    -0.220 NA
ATOM     24  C   UNL     1       3.002  -7.989  -5.206  0.00  0.00    +0.126 C 
BRANCH  24  25
ATOM     25  C   UNL     1       2.502  -9.043  -4.314  0.00  0.00    +0.037 A 
ATOM     26  C   UNL     1       2.699 -10.391  -4.636  0.00  0.00    +0.028 A 
ATOM     27  C   UNL     1       2.227 -11.374  -3.793  0.00  0.00    +0.020 A 
ATOM     28  C   UNL     1       1.557 -11.035  -2.627  0.00  0.00    +0.034 A 
ATOM     29  C   UNL     1       1.355  -9.708  -2.297  0.00  0.00    +0.061 A 
ATOM     30  C   UNL     1       1.828  -8.704  -3.129  0.00  0.00    +0.139 A 
ATOM     31 BR   UNL     1       0.440  -9.260  -0.704  0.00  0.00    -0.046 Br
ATOM     32 BR   UNL     1       2.493 -13.195  -4.229  0.00  0.00    -0.050 Br
BRANCH  30  33
ATOM     33  O   UNL     1       1.635  -7.401  -2.803  0.00  0.00    -0.505 OA
ATOM     34  H   UNL     1       0.811  -7.028  -3.144  0.00  0.00    +0.292 HD
ENDBRANCH  30  33
ENDBRANCH  24  25
ENDBRANCH   5  23
TORSDOF 7
