REMARK  Name = ZINC06674477
REMARK  4 active torsions:
REMARK  status: ('A' for Active; 'I' for Inactive)
REMARK    1  A    between atoms: C_1  and  C_2
REMARK    2  A    between atoms: C_10  and  C_12
REMARK    3  A    between atoms: C_14  and  C_25
REMARK    4  A    between atoms: N_16  and  C_19
REMARK                            x       y       z     vdW  Elec       q    Type
REMARK                         _______ _______ _______ _____ _____    ______ ____
ROOT
ATOM      1  C   UNL     1       5.072  -0.056  -0.052  0.00  0.00    +0.161 C 
ATOM      2  C   UNL     1       3.692  -0.681  -0.036  0.00  0.00    +0.082 C 
ATOM      3  N   UNL     1       3.860  -1.965  -0.044  0.00  0.00    -0.176 NA
ATOM      4  N   UNL     1       5.202  -2.332  -0.058  0.00  0.00    -0.160 N 
ATOM      5  C   UNL     1       6.006  -1.250  -0.060  0.00  0.00    +0.251 C 
ATOM      6  O   UNL     1       7.219  -1.234  -0.070  0.00  0.00    -0.273 OA
ENDROOT
BRANCH   1  16
ATOM      7  C   UNL     1       9.256   3.497  -0.691  0.00  0.00    +0.067 C 
ATOM      8  C   UNL     1       8.522   2.744   0.388  0.00  0.00    +0.060 A 
ATOM      9  C   UNL     1       7.276   2.192   0.115  0.00  0.00    +0.204 A 
ATOM     10  C   UNL     1       6.618   1.505   1.121  0.00  0.00    +0.037 A 
ATOM     11  C   UNL     1       7.227   1.394   2.364  0.00  0.00    +0.003 A 
ATOM     12  C   UNL     1       8.465   1.968   2.561  0.00  0.00    +0.089 A 
ATOM     13  N   UNL     1       9.068   2.617   1.581  0.00  0.00    -0.361 N 
ATOM     14  C   UNL     1       6.294   0.607   3.250  0.00  0.00    +0.197 C 
ATOM     15  O   UNL     1       5.373  -0.059   2.365  0.00  0.00    -0.366 OA
ATOM     16  C   UNL     1       5.293   0.789   1.204  0.00  0.00    +0.171 C 
ATOM     17  O   UNL     1       6.715   2.325  -1.115  0.00  0.00    -0.286 OA
ATOM     18  H   UNL     1      10.055   3.058   1.784  0.00  0.00    +0.165 HD
ENDBRANCH   1  16
BRANCH   4  19
ATOM     19  C   UNL     1       5.659  -3.655  -0.068  0.00  0.00    +0.060 A 
ATOM     20  C   UNL     1       7.022  -3.921  -0.087  0.00  0.00    +0.025 A 
ATOM     21  C   UNL     1       7.470  -5.227  -0.091  0.00  0.00    +0.002 A 
ATOM     22  C   UNL     1       6.562  -6.271  -0.088  0.00  0.00    +0.000 A 
ATOM     23  C   UNL     1       5.204  -6.010  -0.075  0.00  0.00    +0.002 A 
ATOM     24  C   UNL     1       4.750  -4.705  -0.065  0.00  0.00    +0.025 A 
ENDBRANCH   4  19
BRANCH   2  25
ATOM     25  C   UNL     1       2.404   0.035  -0.021  0.00  0.00    -0.001 A 
ATOM     26  C   UNL     1       1.203  -0.679  -0.013  0.00  0.00    +0.010 A 
ATOM     27  C   UNL     1       0.002  -0.003   0.001  0.00  0.00    +0.001 A 
ATOM     28  C   UNL     1      -0.017   1.381   0.007  0.00  0.00    +0.000 A 
ATOM     29  C   UNL     1       1.168   2.095  -0.001  0.00  0.00    +0.001 A 
ATOM     30  C   UNL     1       2.377   1.432  -0.015  0.00  0.00    +0.010 A 
ENDBRANCH   2  25
TORSDOF 3
