REMARK  Name = ZINC04128021
REMARK  8 active torsions:
REMARK  status: ('A' for Active; 'I' for Inactive)
REMARK    1  A    between atoms: C_1  and  C_2
REMARK    2  A    between atoms: C_5  and  N_9
REMARK    3  A    between atoms: C_10  and  C_12
REMARK    4  A    between atoms: N_23  and  C_35
REMARK    5  A    between atoms: C_24  and  C_26
REMARK    6  A    between atoms: N_28  and  C_29
REMARK    7  A    between atoms: C_35  and  C_36
REMARK    8  A    between atoms: C_35  and  C_37
REMARK                            x       y       z     vdW  Elec       q    Type
REMARK                         _______ _______ _______ _____ _____    ______ ____
ROOT
ATOM      1  C   UNL     1      -2.569   4.140   0.252  0.00  0.00    +0.123 C 
ATOM      2  C   UNL     1      -3.299   3.755   1.580  0.00  0.00    +0.155 C 
ATOM      3  C   UNL     1      -2.301   3.995   2.720  0.00  0.00    +0.004 C 
ATOM      4  C   UNL     1      -2.185   5.320   2.876  0.00  0.00    +0.009 C 
ATOM      5  C   UNL     1      -3.068   5.878   1.819  0.00  0.00    +0.127 C 
ATOM      6  C   UNL     1      -2.346   5.651   0.440  0.00  0.00    +0.128 C 
ATOM      7  C   UNL     1      -3.154   6.528  -0.473  0.00  0.00    +0.224 C 
ATOM      8  O   UNL     1      -3.269   6.377  -1.671  0.00  0.00    -0.275 OA
ATOM      9  N   UNL     1      -3.740   7.515   0.275  0.00  0.00    -0.284 N 
ATOM     10  C   UNL     1      -3.476   7.315   1.720  0.00  0.00    +0.199 C 
ATOM     11  O   UNL     1      -4.170   4.934   1.741  0.00  0.00    -0.358 OA
ENDROOT
BRANCH   1  13
ATOM     12  N   UNL     1      -1.237   2.068   0.019  0.00  0.00    -0.285 N 
ATOM     13  C   UNL     1      -1.256   3.412   0.128  0.00  0.00    +0.224 C 
ATOM     14  O   UNL     1      -0.215   4.035   0.127  0.00  0.00    -0.275 OA
ATOM     15  H   UNL     1      -2.070   1.576  -0.048  0.00  0.00    +0.155 HD
BRANCH  12  20
ATOM     16  C   UNL     1       3.709  -0.710  -0.067  0.00  0.00    +0.045 C 
ATOM     17  C   UNL     1       2.396   0.029  -0.042  0.00  0.00    -0.032 A 
ATOM     18  C   UNL     1       2.293   1.274  -0.635  0.00  0.00    +0.006 A 
ATOM     19  C   UNL     1       1.091   1.953  -0.615  0.00  0.00    +0.023 A 
ATOM     20  C   UNL     1      -0.017   1.385   0.002  0.00  0.00    +0.035 A 
ATOM     21  C   UNL     1       0.089   0.134   0.596  0.00  0.00    +0.043 A 
ATOM     22  C   UNL     1       1.295  -0.541   0.573  0.00  0.00    +0.046 A 
ATOM     23 CL   UNL     1       1.428  -2.104   1.315  0.00  0.00    -0.083 Cl
ENDBRANCH  12  20
ENDBRANCH   1  13
BRANCH  10  24
ATOM     24  C   UNL     1      -2.358   8.214   2.182  0.00  0.00    +0.237 C 
ATOM     25  O   UNL     1      -1.644   8.761   1.369  0.00  0.00    -0.274 OA
ATOM     26  N   UNL     1      -2.153   8.411   3.500  0.00  0.00    -0.311 N 
ATOM     27  H   UNL     1      -2.724   7.974   4.150  0.00  0.00    +0.149 HD
BRANCH  26  28
ATOM     28  C   UNL     1      -1.066   9.285   3.949  0.00  0.00    +0.073 C 
ATOM     29  C   UNL     1       0.237   8.486   4.014  0.00  0.00    +0.022 C 
ATOM     30  C   UNL     1       1.372   9.399   4.483  0.00  0.00    +0.002 C 
ATOM     31  C   UNL     1       1.042   9.951   5.872  0.00  0.00    +0.000 C 
ATOM     32  C   UNL     1      -0.261  10.750   5.806  0.00  0.00    +0.002 C 
ATOM     33  C   UNL     1      -1.396   9.837   5.337  0.00  0.00    +0.022 C 
ENDBRANCH  26  28
ENDBRANCH  10  24
BRANCH   9  34
ATOM     34  C   UNL     1      -4.515   8.626  -0.283  0.00  0.00    +0.071 C 
ATOM     35  C   UNL     1      -3.633   9.433  -1.239  0.00  0.00    +0.028 C 
ATOM     36  C   UNL     1      -5.722   8.075  -1.045  0.00  0.00    +0.028 C 
ENDBRANCH   9  34
TORSDOF 5
