REMARK  Name = ZINC02726708
REMARK  6 active torsions:
REMARK  status: ('A' for Active; 'I' for Inactive)
REMARK    1  A    between atoms: C_12  and  C_14
REMARK    2  A    between atoms: C_14  and  C_15
REMARK    3  A    between atoms: C_18  and  O_22
REMARK    4  A    between atoms: C_19  and  O_21
REMARK    5  A    between atoms: N_25  and  C_28
REMARK    6  A    between atoms: C_28  and  C_29
REMARK                            x       y       z     vdW  Elec       q    Type
REMARK                         _______ _______ _______ _____ _____    ______ ____
ROOT
ATOM      1  C   UNL     1       2.528   7.721   0.041  0.00  0.00    +0.000 A 
ATOM      2  C   UNL     1       3.823   8.194   0.150  0.00  0.00    +0.002 A 
ATOM      3  C   UNL     1       4.527   8.031   1.325  0.00  0.00    +0.023 A 
ATOM      4  C   UNL     1       3.938   7.388   2.411  0.00  0.00    +0.036 A 
ATOM      5  C   UNL     1       2.634   6.916   2.290  0.00  0.00    -0.028 A 
ATOM      6  C   UNL     1       1.936   7.080   1.115  0.00  0.00    +0.004 A 
ATOM      7  C   UNL     1       2.300   6.287   3.613  0.00  0.00    +0.050 C 
ATOM      8  C   UNL     1       1.932   4.808   3.460  0.00  0.00    +0.088 C 
ATOM      9  C   UNL     1       0.377   4.787   3.473  0.00  0.00    +0.073 C 
ATOM     10  C   UNL     1      -0.036   6.268   3.605  0.00  0.00    -0.053 C 
ATOM     11  C   UNL     1       0.025   4.300   2.085  0.00  0.00    +0.224 C 
ATOM     12  O   UNL     1      -1.101   4.136   1.666  0.00  0.00    -0.275 OA
ATOM     13  N   UNL     1       1.148   4.077   1.394  0.00  0.00    -0.237 N 
ATOM     14  C   UNL     1       2.275   4.334   2.066  0.00  0.00    +0.225 C 
ATOM     15  O   UNL     1       3.397   4.207   1.627  0.00  0.00    -0.275 OA
ATOM     16  C   UNL     1       3.537   6.461   4.452  0.00  0.00    +0.211 C 
ATOM     17  O   UNL     1       3.693   6.093   5.597  0.00  0.00    -0.277 OA
ATOM     18  N   UNL     1       4.437   7.106   3.685  0.00  0.00    -0.286 N 
ATOM     19  H   UNL     1       5.329   7.347   3.983  0.00  0.00    +0.155 HD
ATOM     20  N   UNL     1       1.132   6.908   4.214  0.00  0.00    +0.394 N 
ATOM     21  H   UNL     1       1.126   7.916   4.019  0.00  0.00    -0.083 HD
ATOM     22  H   UNL     1       1.131   6.756   5.229  0.00  0.00    -0.083 HD
ENDROOT
BRANCH  10  23
ATOM     23  C   UNL     1      -1.272   6.399   4.497  0.00  0.00    +0.020 C 
BRANCH  23  24
ATOM     24  C   UNL     1      -1.685   7.846   4.575  0.00  0.00    -0.045 A 
ATOM     25  C   UNL     1      -1.173   8.657   5.571  0.00  0.00    +0.007 A 
ATOM     26  C   UNL     1      -1.545   9.986   5.643  0.00  0.00    +0.049 A 
ATOM     27  C   UNL     1      -2.441  10.506   4.724  0.00  0.00    +0.158 A 
ATOM     28  C   UNL     1      -2.961   9.688   3.725  0.00  0.00    +0.158 A 
ATOM     29  C   UNL     1      -2.580   8.358   3.654  0.00  0.00    +0.052 A 
BRANCH  28  30
ATOM     30  O   UNL     1      -3.842  10.194   2.820  0.00  0.00    -0.503 OA
ATOM     31  H   UNL     1      -4.768  10.120   3.089  0.00  0.00    +0.292 HD
ENDBRANCH  28  30
BRANCH  27  32
ATOM     32  O   UNL     1      -2.812  11.812   4.797  0.00  0.00    -0.503 OA
ATOM     33  H   UNL     1      -3.591  11.970   5.348  0.00  0.00    +0.292 HD
ENDBRANCH  27  32
ENDBRANCH  23  24
ENDBRANCH  10  23
BRANCH  13  34
ATOM     34  C   UNL     1       1.143   3.595   0.010  0.00  0.00    +0.151 C 
BRANCH  34  35
ATOM     35  C   UNL     1       1.169   2.089   0.002  0.00  0.00    -0.026 A 
ATOM     36  C   UNL     1      -0.017   1.378   0.010  0.00  0.00    +0.009 A 
ATOM     37  C   UNL     1       0.002  -0.004   0.002  0.00  0.00    +0.050 A 
ATOM     38  C   UNL     1       1.211  -0.681  -0.013  0.00  0.00    +0.166 A 
ATOM     39  C   UNL     1       2.405   0.035  -0.021  0.00  0.00    +0.167 A 
ATOM     40  C   UNL     1       2.379   1.420  -0.012  0.00  0.00    +0.054 A 
ATOM     41  O   UNL     1       3.444  -0.851  -0.036  0.00  0.00    -0.453 OA
ATOM     42  C   UNL     1       2.873  -2.106  -0.450  0.00  0.00    +0.466 C 
ATOM     43  O   UNL     1       1.501  -2.015  -0.024  0.00  0.00    -0.453 OA
ENDBRANCH  34  35
ENDBRANCH  13  34
TORSDOF 6
