REMARK  Name = ZINC14478260
REMARK  7 active torsions:
REMARK  status: ('A' for Active; 'I' for Inactive)
REMARK    1  A    between atoms: C_1  and  C_2
REMARK    2  A    between atoms: C_2  and  C_3
REMARK    3  A    between atoms: C_2  and  C_4
REMARK    4  A    between atoms: C_4  and  O_5
REMARK    5  A    between atoms: O_5  and  C_6
REMARK    6  A    between atoms: C_13  and  C_22
REMARK    7  A    between atoms: C_27  and  N_28
REMARK                            x       y       z     vdW  Elec       q    Type
REMARK                         _______ _______ _______ _____ _____    ______ ____
ROOT
ATOM      1  C   UNL     1       2.348   1.397  -0.191  0.00  0.00    +0.142 A 
ATOM      2  C   UNL     1       1.139   2.069  -0.193  0.00  0.00    +0.047 A 
ATOM      3  C   UNL     1      -0.042   1.353  -0.128  0.00  0.00    +0.004 A 
ATOM      4  C   UNL     1      -0.013  -0.024  -0.064  0.00  0.00    +0.006 A 
ATOM      5  C   UNL     1       1.195  -0.711  -0.062  0.00  0.00    -0.016 A 
ATOM      6  C   UNL     1       2.379   0.001  -0.124  0.00  0.00    +0.074 A 
ATOM      7  N   UNL     1       3.627  -0.628  -0.119  0.00  0.00    -0.334 N 
ATOM      8  C   UNL     1       3.560  -1.993  -0.643  0.00  0.00    +0.107 C 
ATOM      9  C   UNL     1       2.564  -2.808   0.185  0.00  0.00    +0.029 C 
ATOM     10  C   UNL     1       1.154  -2.209   0.004  0.00  0.00    +0.049 C 
ATOM     11  C   UNL     1       0.672  -2.788  -1.306  0.00  0.00    -0.023 C 
ATOM     12  C   UNL     1       1.343  -3.872  -1.602  0.00  0.00    -0.030 C 
ATOM     13  C   UNL     1       2.365  -4.177  -0.525  0.00  0.00    +0.033 C 
ATOM     14  H   UNL     1       4.035  -0.614   0.804  0.00  0.00    +0.147 HD
ENDROOT
BRANCH   8  15
ATOM     15  C   UNL     1       4.924  -2.630  -0.559  0.00  0.00    +0.003 A 
ATOM     16  C   UNL     1       5.195  -3.554   0.433  0.00  0.00    +0.008 A 
ATOM     17  C   UNL     1       6.444  -4.142   0.507  0.00  0.00    +0.000 A 
ATOM     18  C   UNL     1       7.425  -3.798  -0.405  0.00  0.00    +0.002 A 
ATOM     19  C   UNL     1       7.155  -2.871  -1.394  0.00  0.00    +0.033 A 
ATOM     20  C   UNL     1       5.904  -2.287  -1.471  0.00  0.00    +0.131 A 
BRANCH  20  21
ATOM     21  N   UNL     1       5.615  -1.293  -2.529  0.00  0.00    +0.057 N 
ATOM     22  O   UNL     1       6.441  -1.068  -3.396  0.00  0.00    -0.126 OA
ATOM     23  O   UNL     1       4.551  -0.700  -2.534  0.00  0.00    -0.126 OA
ENDBRANCH  20  21
ENDBRANCH   8  15
BRANCH   1  24
ATOM     24  O   UNL     1       3.512   2.098  -0.256  0.00  0.00    -0.490 OA
BRANCH  24  25
ATOM     25  C   UNL     1       3.410   3.522  -0.322  0.00  0.00    +0.232 C 
BRANCH  25  27
ATOM     26  C   UNL     1       5.489   3.713  -1.695  0.00  0.00    +0.010 C 
ATOM     27  C   UNL     1       4.811   4.131  -0.388  0.00  0.00    +0.020 C 
ATOM     28  C   UNL     1       4.707   5.657  -0.334  0.00  0.00    +0.010 C 
ENDBRANCH  25  27
ENDBRANCH  24  25
ENDBRANCH   1  24
TORSDOF 5
