REMARK  Name = ZINC36801705
REMARK  9 active torsions:
REMARK  status: ('A' for Active; 'I' for Inactive)
REMARK    1  A    between atoms: C_1  and  C_2
REMARK    2  A    between atoms: C_2  and  C_3
REMARK    3  A    between atoms: C_10  and  C_12
REMARK    4  A    between atoms: C_12  and  C_14
REMARK    5  A    between atoms: C_12  and  S_15
REMARK    6  A    between atoms: S_15  and  C_16
REMARK    7  A    between atoms: C_19  and  C_28
REMARK    8  A    between atoms: N_20  and  C_21
REMARK    9  A    between atoms: C_21  and  C_22
REMARK                            x       y       z     vdW  Elec       q    Type
REMARK                         _______ _______ _______ _____ _____    ______ ____
ROOT
ATOM      1  C   UNL     1       6.064   2.218  -1.475  0.00  0.00    +0.193 A 
ATOM      2  N   UNL     1       6.855   2.078  -0.437  0.00  0.00    -0.122 NA
ATOM      3  N   UNL     1       8.060   2.393  -0.753  0.00  0.00    -0.128 NA
ATOM      4  C   UNL     1       8.114   2.753  -2.015  0.00  0.00    +0.167 A 
ATOM      5  N   UNL     1       6.838   2.647  -2.519  0.00  0.00    -0.300 N 
ENDROOT
BRANCH   4   6
ATOM      6  C   UNL     1       9.316   3.185  -2.755  0.00  0.00    +0.044 A 
ATOM      7  C   UNL     1       9.728   2.734  -3.968  0.00  0.00    +0.095 A 
ATOM      8  N   UNL     1      10.882   3.368  -4.327  0.00  0.00    -0.360 N 
ATOM      9  H   UNL     1      11.367   3.213  -5.153  0.00  0.00    +0.165 HD
ATOM     10  C   UNL     1      11.260   4.261  -3.347  0.00  0.00    +0.047 A 
ATOM     11  C   UNL     1      10.300   4.193  -2.324  0.00  0.00    +0.010 A 
ATOM     12  C   UNL     1      10.425   5.000  -1.195  0.00  0.00    +0.011 A 
ATOM     13  C   UNL     1      11.492   5.865  -1.090  0.00  0.00    +0.001 A 
ATOM     14  C   UNL     1      12.439   5.935  -2.101  0.00  0.00    +0.002 A 
ATOM     15  C   UNL     1      12.333   5.137  -3.220  0.00  0.00    +0.026 A 
ENDBRANCH   4   6
BRANCH   1  16
ATOM     16  S   UNL     1       4.331   1.904  -1.518  0.00  0.00    -0.074 S 
BRANCH  16  17
ATOM     17  C   UNL     1       3.939   1.371   0.171  0.00  0.00    +0.137 C 
ATOM     18  C   UNL     1       4.181   2.530   1.140  0.00  0.00    +0.029 C 
BRANCH  17  25
ATOM     19  C   UNL     1       0.697  -0.361   1.265  0.00  0.00    +0.076 C 
ATOM     20  C   UNL     1       0.741  -1.885   1.410  0.00  0.00    +0.022 C 
ATOM     21  C   UNL     1       1.567  -2.252   2.645  0.00  0.00    +0.003 C 
ATOM     22  C   UNL     1       2.999  -1.742   2.472  0.00  0.00    +0.019 C 
ATOM     23  C   UNL     1       2.981  -0.216   2.339  0.00  0.00    +0.108 C 
ATOM     24  N   UNL     1       2.073   0.155   1.245  0.00  0.00    -0.298 N 
ATOM     25  C   UNL     1       2.494   0.950   0.242  0.00  0.00    +0.229 C 
ATOM     26  O   UNL     1       1.710   1.327  -0.603  0.00  0.00    -0.274 OA
BRANCH  19  28
ATOM     27  C   UNL     1      -1.426  -0.565  -0.037  0.00  0.00    +0.006 C 
ATOM     28  C   UNL     1      -0.008   0.010  -0.042  0.00  0.00    +0.019 C 
ENDBRANCH  19  28
ENDBRANCH  17  25
ENDBRANCH  16  17
ENDBRANCH   1  16
BRANCH   5  29
ATOM     29  C   UNL     1       6.399   2.935  -3.887  0.00  0.00    +0.157 C 
BRANCH  29  30
ATOM     30  C   UNL     1       6.097   4.429  -4.021  0.00  0.00    +0.138 C 
ATOM     31  C   UNL     1       5.519   4.722  -5.422  0.00  0.00    +0.035 C 
ATOM     32  C   UNL     1       6.193   6.074  -5.780  0.00  0.00    +0.031 C 
ATOM     33  C   UNL     1       7.574   5.904  -5.099  0.00  0.00    +0.160 C 
ATOM     34  O   UNL     1       7.307   5.183  -3.884  0.00  0.00    -0.375 OA
ENDBRANCH  29  30
ENDBRANCH   5  29
TORSDOF 7
