REMARK  Name = ZINC22649359
REMARK  6 active torsions:
REMARK  status: ('A' for Active; 'I' for Inactive)
REMARK    1  A    between atoms: C_1  and  C_2
REMARK    2  A    between atoms: C_7  and  C_8
REMARK    3  A    between atoms: C_8  and  C_9
REMARK    4  A    between atoms: N_11  and  C_12
REMARK    5  A    between atoms: C_21  and  C_27
REMARK    6  A    between atoms: C_22  and  C_26
REMARK                            x       y       z     vdW  Elec       q    Type
REMARK                         _______ _______ _______ _____ _____    ______ ____
ROOT
ATOM      1  C   UNL     1       0.002  -0.004   0.002  0.00  0.00    +0.078 C 
ATOM      2  C   UNL     1      -0.019   1.527   0.010  0.00  0.00    +0.028 C 
ATOM      3  C   UNL     1       1.420   2.056  -0.001  0.00  0.00    +0.055 C 
ATOM      4  C   UNL     1       2.177   1.369  -1.112  0.00  0.00    +0.020 A 
ATOM      5  C   UNL     1       1.758   0.236  -1.717  0.00  0.00    -0.017 A 
ATOM      6  C   UNL     1       2.744  -0.099  -2.723  0.00  0.00    +0.003 A 
ATOM      7  C   UNL     1       2.841  -1.146  -3.645  0.00  0.00    +0.010 A 
ATOM      8  C   UNL     1       3.941  -1.149  -4.467  0.00  0.00    +0.004 A 
ATOM      9  C   UNL     1       4.916  -0.168  -4.396  0.00  0.00    -0.046 A 
ATOM     10  C   UNL     1       4.846   0.878  -3.494  0.00  0.00    -0.024 A 
ATOM     11  C   UNL     1       3.740   0.908  -2.646  0.00  0.00    +0.050 A 
ATOM     12  N   UNL     1       3.364   1.777  -1.662  0.00  0.00    -0.357 N 
ATOM     13  H   UNL     1       3.859   2.686  -1.291  0.00  0.00    +0.166 HD
ATOM     14  C   UNL     1       5.916   1.937  -3.430  0.00  0.00    +0.046 C 
ATOM     15  C   UNL     1       6.094  -0.243  -5.333  0.00  0.00    +0.044 C 
ATOM     16  C   UNL     1       0.489  -0.497  -1.366  0.00  0.00    +0.059 C 
ENDROOT
BRANCH   1  19
ATOM     17  C   UNL     1      -1.791  -0.655   1.518  0.00  0.00    +0.218 C 
ATOM     18  O   UNL     1      -1.071  -0.361   2.449  0.00  0.00    -0.275 OA
ATOM     19  N   UNL     1      -1.349  -0.513   0.253  0.00  0.00    -0.312 N 
ATOM     20  H   UNL     1      -2.002  -0.779  -0.591  0.00  0.00    +0.149 HD
BRANCH  17  21
ATOM     21  C   UNL     1      -3.181  -1.178   1.776  0.00  0.00    +0.131 C 
BRANCH  21  28
ATOM     22  C   UNL     1      -4.090   1.172   3.190  0.00  0.00    +0.044 C 
ATOM     23  C   UNL     1      -3.861  -0.116   3.938  0.00  0.00    -0.047 A 
ATOM     24  C   UNL     1      -4.090  -0.175   5.300  0.00  0.00    +0.003 A 
ATOM     25  C   UNL     1      -3.876  -1.355   5.987  0.00  0.00    +0.000 A 
ATOM     26  C   UNL     1      -3.436  -2.478   5.311  0.00  0.00    +0.000 A 
ATOM     27  C   UNL     1      -3.211  -2.421   3.949  0.00  0.00    +0.004 A 
ATOM     28  C   UNL     1      -3.426  -1.240   3.262  0.00  0.00    -0.036 A 
ENDBRANCH  21  28
ENDBRANCH  17  21
ENDBRANCH   1  19
TORSDOF 3
