REMARK  Name = ZINC13500540
REMARK  14 active torsions:
REMARK  status: ('A' for Active; 'I' for Inactive)
REMARK    1  A    between atoms: C_1  and  C_2
REMARK    2  A    between atoms: C_12  and  C_14
REMARK    3  A    between atoms: C_14  and  N_66
REMARK    4  A    between atoms: C_15  and  C_16
REMARK    5  A    between atoms: C_15  and  N_66
REMARK    6  A    between atoms: C_16  and  C_17
REMARK    7  A    between atoms: C_17  and  O_18
REMARK    8  A    between atoms: C_19  and  C_21
REMARK    9  A    between atoms: C_19  and  C_33
REMARK   10  A    between atoms: C_19  and  N_66
REMARK   11  A    between atoms: N_25  and  C_26
REMARK   12  A    between atoms: C_26  and  C_27
REMARK   13  A    between atoms: C_33  and  C_34
REMARK   14  A    between atoms: C_33  and  C_35
REMARK                            x       y       z     vdW  Elec       q    Type
REMARK                         _______ _______ _______ _____ _____    ______ ____
ROOT
ATOM      1  N   UNL     1       5.547   2.132  -1.577  0.00  0.00    +0.389 N 
ATOM      2  H   UNL     1       5.635   2.848  -0.846  0.00  0.00    -0.080 HD
ENDROOT
BRANCH   1   3
ATOM      3  C   UNL     1       5.965   0.827  -1.024  0.00  0.00    -0.037 C 
BRANCH   3  15
ATOM      4  C   UNL     1       4.917   1.376   5.441  0.00  0.00    +0.046 C 
ATOM      5  C   UNL     1       4.226   0.549   4.388  0.00  0.00    -0.026 A 
ATOM      6  C   UNL     1       3.174  -0.272   4.733  0.00  0.00    +0.005 A 
ATOM      7  C   UNL     1       2.529  -1.038   3.772  0.00  0.00    +0.001 A 
ATOM      8  C   UNL     1       2.925  -0.992   2.465  0.00  0.00    +0.010 A 
ATOM      9  C   UNL     1       3.989  -0.165   2.092  0.00  0.00    -0.001 A 
ATOM     10  C   UNL     1       4.646   0.613   3.064  0.00  0.00    +0.052 A 
ATOM     11  N   UNL     1       5.696   1.426   2.691  0.00  0.00    -0.322 N 
ATOM     12  H   UNL     1       6.147   1.961   3.362  0.00  0.00    +0.169 HD
ATOM     13  C   UNL     1       6.102   1.487   1.410  0.00  0.00    +0.251 A 
ATOM     14  O   UNL     1       7.033   2.217   1.117  0.00  0.00    -0.268 OA
ATOM     15  C   UNL     1       5.477   0.727   0.398  0.00  0.00    +0.001 A 
ATOM     16  C   UNL     1       4.436  -0.087   0.700  0.00  0.00    +0.017 A 
ENDBRANCH   3  15
ENDBRANCH   1   3
BRANCH   1  17
ATOM     17  C   UNL     1       6.415   2.500  -2.715  0.00  0.00    -0.075 C 
BRANCH  17  18
ATOM     18  C   UNL     1       7.860   2.609  -2.223  0.00  0.00    +0.009 C 
BRANCH  18  19
ATOM     19  C   UNL     1       8.749   3.119  -3.358  0.00  0.00    +0.154 C 
BRANCH  19  20
ATOM     20  O   UNL     1      10.098   3.221  -2.898  0.00  0.00    -0.395 OA
ATOM     21  H   UNL     1      10.719   3.539  -3.568  0.00  0.00    +0.209 HD
ENDBRANCH  19  20
ENDBRANCH  18  19
ENDBRANCH  17  18
ENDBRANCH   1  17
BRANCH   1  22
ATOM     22  C   UNL     1       4.138   2.067  -2.017  0.00  0.00    +0.006 C 
BRANCH  22  23
ATOM     23  C   UNL     1       3.253   1.982  -0.800  0.00  0.00    +0.139 A 
ATOM     24  N   UNL     1       3.370   2.681   0.303  0.00  0.00    -0.115 NA
ATOM     25  N   UNL     1       2.430   2.317   1.105  0.00  0.00    -0.023 NA
ATOM     26  N   UNL     1       1.714   1.408   0.542  0.00  0.00    -0.044 NA
ATOM     27  N   UNL     1       2.187   1.177  -0.636  0.00  0.00    -0.226 N 
BRANCH  27  28
ATOM     28  C   UNL     1       1.667   0.213  -1.609  0.00  0.00    +0.182 C 
BRANCH  28  29
ATOM     29  C   UNL     1       0.639   0.886  -2.482  0.00  0.00    -0.026 A 
ATOM     30  C   UNL     1       1.028   1.508  -3.654  0.00  0.00    +0.005 A 
ATOM     31  C   UNL     1       0.086   2.126  -4.454  0.00  0.00    +0.000 A 
ATOM     32  C   UNL     1      -1.245   2.126  -4.081  0.00  0.00    +0.000 A 
ATOM     33  C   UNL     1      -1.635   1.499  -2.913  0.00  0.00    +0.000 A 
ATOM     34  C   UNL     1      -0.693   0.881  -2.112  0.00  0.00    +0.005 A 
ENDBRANCH  28  29
ENDBRANCH  27  28
ENDBRANCH  22  23
BRANCH  22  35
ATOM     35  C   UNL     1       3.800   3.333  -2.806  0.00  0.00    -0.024 C 
ATOM     36  C   UNL     1       4.546   4.525  -2.203  0.00  0.00    +0.006 C 
ATOM     37  C   UNL     1       4.223   3.153  -4.266  0.00  0.00    +0.006 C 
ENDBRANCH  22  35
ENDBRANCH   1  22
TORSDOF 11
