REMARK  Name = ZINC23077150
REMARK  9 active torsions:
REMARK  status: ('A' for Active; 'I' for Inactive)
REMARK    1  A    between atoms: C_1  and  C_2
REMARK    2  A    between atoms: C_4  and  C_26
REMARK    3  A    between atoms: C_8  and  N_25
REMARK    4  A    between atoms: C_9  and  C_11
REMARK    5  A    between atoms: C_11  and  O_13
REMARK    6  A    between atoms: O_13  and  C_14
REMARK    7  A    between atoms: C_14  and  C_15
REMARK    8  A    between atoms: N_21  and  C_22
REMARK    9  A    between atoms: N_21  and  C_23
REMARK                            x       y       z     vdW  Elec       q    Type
REMARK                         _______ _______ _______ _____ _____    ______ ____
ROOT
ATOM      1  C   UNL     1      -1.787  -3.423   0.148  0.00  0.00    +0.348 C 
ATOM      2  O   UNL     1      -2.984  -3.205   0.173  0.00  0.00    -0.244 OA
ENDROOT
BRANCH   1  11
ATOM      3  C   UNL     1      -1.365   2.091  -0.013  0.00  0.00    +0.044 C 
ATOM      4  C   UNL     1      -0.053   1.351  -0.021  0.00  0.00    -0.037 A 
ATOM      5  C   UNL     1       1.137   2.039  -0.068  0.00  0.00    +0.025 A 
ATOM      6  C   UNL     1       2.343   1.355  -0.081  0.00  0.00    +0.014 A 
ATOM      7  N   UNL     1       2.364   0.036  -0.047  0.00  0.00    -0.353 N 
ATOM      8  C   UNL     1       1.253  -0.667  -0.001  0.00  0.00    +0.088 A 
ATOM      9  C   UNL     1      -0.026  -0.065   0.015  0.00  0.00    +0.030 A 
ATOM     10  C   UNL     1      -1.145  -0.994   0.068  0.00  0.00    +0.055 A 
ATOM     11  C   UNL     1      -0.872  -2.345   0.096  0.00  0.00    +0.119 A 
ATOM     12  S   UNL     1       0.908  -2.408   0.053  0.00  0.00    -0.062 S 
ATOM     13  C   UNL     1       3.639   2.123  -0.133  0.00  0.00    +0.063 C 
ATOM     14  H   UNL     1       3.325  -0.499  -0.057  0.00  0.00    +0.166 HD
BRANCH  10  15
ATOM     15  N   UNL     1      -2.452  -0.532   0.088  0.00  0.00    -0.356 N 
ATOM     16  H   UNL     1      -3.288  -1.246   0.128  0.00  0.00    +0.142 HD
ATOM     17  H   UNL     1      -2.654   0.549   0.065  0.00  0.00    +0.142 HD
ENDBRANCH  10  15
ENDBRANCH   1  11
BRANCH   1  18
ATOM     18  O   UNL     1      -1.331  -4.694   0.170  0.00  0.00    -0.453 OA
BRANCH  18  19
ATOM     19  C   UNL     1      -2.311  -5.733   0.222  0.00  0.00    +0.308 C 
BRANCH  19  20
ATOM     20  C   UNL     1      -1.621  -7.073   0.239  0.00  0.00    +0.173 A 
ATOM     21  N   UNL     1      -1.290  -7.629   1.392  0.00  0.00    -0.196 NA
ATOM     22  C   UNL     1      -0.681  -8.812   1.412  0.00  0.00    +0.217 A 
ATOM     23  N   UNL     1      -0.406  -9.435   0.271  0.00  0.00    -0.181 NA
ATOM     24  C   UNL     1      -0.740  -8.873  -0.886  0.00  0.00    +0.222 A 
ATOM     25  N   UNL     1      -1.354  -7.691  -0.897  0.00  0.00    -0.196 NA
ATOM     26  N   UNL     1      -0.457  -9.515  -2.074  0.00  0.00    -0.306 N 
ATOM     27  C   UNL     1       0.213 -10.818  -2.060  0.00  0.00    +0.132 C 
ATOM     28  C   UNL     1      -0.826  -8.895  -3.349  0.00  0.00    +0.132 C 
ATOM     29  N   UNL     1      -0.336  -9.392   2.615  0.00  0.00    -0.327 N 
ATOM     30  H   UNL     1       0.167 -10.370   2.631  0.00  0.00    +0.145 HD
ATOM     31  H   UNL     1      -0.564  -8.875   3.560  0.00  0.00    +0.145 HD
ENDBRANCH  19  20
ENDBRANCH  18  19
ENDBRANCH   1  18
TORSDOF 5
