REMARK  Name = ZINC09540504
REMARK  10 active torsions:
REMARK  status: ('A' for Active; 'I' for Inactive)
REMARK    1  A    between atoms: C_1  and  N_2
REMARK    2  A    between atoms: N_2  and  C_3
REMARK    3  A    between atoms: N_2  and  C_4
REMARK    4  A    between atoms: C_7  and  N_10
REMARK    5  A    between atoms: C_11  and  C_13
REMARK    6  A    between atoms: C_13  and  S_14
REMARK    7  A    between atoms: S_14  and  C_15
REMARK    8  A    between atoms: C_18  and  C_27
REMARK    9  A    between atoms: N_19  and  C_20
REMARK   10  A    between atoms: C_20  and  C_21
REMARK                            x       y       z     vdW  Elec       q    Type
REMARK                         _______ _______ _______ _____ _____    ______ ____
ROOT
ATOM      1  C   UNL     1     -10.033  -2.883   0.662  0.00  0.00    +0.192 A 
ATOM      2  N   UNL     1     -10.058  -4.193   0.726  0.00  0.00    -0.122 NA
ATOM      3  N   UNL     1     -11.268  -4.617   0.639  0.00  0.00    -0.128 NA
ATOM      4  C   UNL     1     -12.091  -3.602   0.513  0.00  0.00    +0.167 A 
ATOM      5  N   UNL     1     -11.326  -2.458   0.529  0.00  0.00    -0.300 N 
ENDROOT
BRANCH   4   6
ATOM      6  C   UNL     1     -13.560  -3.674   0.384  0.00  0.00    +0.044 A 
ATOM      7  C   UNL     1     -14.471  -2.922   1.053  0.00  0.00    +0.095 A 
ATOM      8  N   UNL     1     -15.732  -3.275   0.668  0.00  0.00    -0.360 N 
ATOM      9  H   UNL     1     -16.549  -2.877   1.008  0.00  0.00    +0.165 HD
ATOM     10  C   UNL     1     -15.679  -4.279  -0.275  0.00  0.00    +0.047 A 
ATOM     11  C   UNL     1     -14.323  -4.571  -0.501  0.00  0.00    +0.010 A 
ATOM     12  C   UNL     1     -13.965  -5.554  -1.422  0.00  0.00    +0.011 A 
ATOM     13  C   UNL     1     -14.947  -6.234  -2.109  0.00  0.00    +0.001 A 
ATOM     14  C   UNL     1     -16.285  -5.944  -1.889  0.00  0.00    +0.002 A 
ATOM     15  C   UNL     1     -16.654  -4.980  -0.977  0.00  0.00    +0.026 A 
ENDBRANCH   4   6
BRANCH   1  16
ATOM     16  S   UNL     1      -8.600  -1.860   0.739  0.00  0.00    -0.077 S 
BRANCH  16  17
ATOM     17  C   UNL     1      -7.230  -3.036   0.912  0.00  0.00    +0.173 C 
BRANCH  17  19
ATOM     18  N   UNL     1      -4.767  -2.953   1.123  0.00  0.00    -0.285 N 
ATOM     19  C   UNL     1      -5.928  -2.281   0.991  0.00  0.00    +0.227 C 
ATOM     20  O   UNL     1      -5.924  -1.070   0.934  0.00  0.00    -0.275 OA
ATOM     21  H   UNL     1      -4.761  -3.923   1.093  0.00  0.00    +0.155 HD
BRANCH  18  25
ATOM     22  C   UNL     1      -1.197  -0.864   1.659  0.00  0.00    +0.029 A 
ATOM     23  C   UNL     1      -2.381  -0.361   2.183  0.00  0.00    +0.025 A 
ATOM     24  C   UNL     1      -3.563  -1.053   2.005  0.00  0.00    +0.025 A 
ATOM     25  C   UNL     1      -3.567  -2.251   1.303  0.00  0.00    +0.034 A 
ATOM     26  C   UNL     1      -2.383  -2.754   0.780  0.00  0.00    +0.025 A 
ATOM     27  C   UNL     1      -1.203  -2.059   0.952  0.00  0.00    +0.025 A 
BRANCH  22  29
ATOM     28  C   UNL     1       1.248  -0.690   1.282  0.00  0.00    +0.129 C 
ATOM     29  N   UNL     1       0.000  -0.163   1.839  0.00  0.00    -0.336 N 
ATOM     30  C   UNL     1       0.006   1.097   2.586  0.00  0.00    +0.129 C 
ENDBRANCH  22  29
ENDBRANCH  18  25
ENDBRANCH  17  19
ENDBRANCH  16  17
ENDBRANCH   1  16
BRANCH   5  31
ATOM     31  C   UNL     1     -11.799  -1.076   0.425  0.00  0.00    +0.157 C 
BRANCH  31  32
ATOM     32  C   UNL     1     -11.962  -0.703  -1.050  0.00  0.00    +0.138 C 
ATOM     33  C   UNL     1     -12.548   0.726  -1.182  0.00  0.00    +0.035 C 
ATOM     34  C   UNL     1     -12.035   1.125  -2.593  0.00  0.00    +0.031 C 
ATOM     35  C   UNL     1     -10.663   0.419  -2.655  0.00  0.00    +0.160 C 
ATOM     36  O   UNL     1     -10.680  -0.646  -1.695  0.00  0.00    -0.375 OA
ENDBRANCH  31  32
ENDBRANCH   5  31
TORSDOF 8
