REMARK  Name = ZINC18204027
REMARK  7 active torsions:
REMARK  status: ('A' for Active; 'I' for Inactive)
REMARK    1  A    between atoms: C_1  and  C_2
REMARK    2  A    between atoms: C_8  and  C_10
REMARK    3  A    between atoms: C_10  and  S_11
REMARK    4  A    between atoms: S_11  and  C_12
REMARK    5  A    between atoms: C_14  and  N_28
REMARK    6  A    between atoms: C_15  and  N_19
REMARK    7  A    between atoms: C_20  and  C_22
REMARK                            x       y       z     vdW  Elec       q    Type
REMARK                         _______ _______ _______ _____ _____    ______ ____
ROOT
ATOM      1  C   UNL     1      -6.267  -5.422  -0.006  0.00  0.00    +0.171 A 
ATOM      2  N   UNL     1      -5.603  -6.546  -0.177  0.00  0.00    -0.207 NA
ATOM      3  C   UNL     1      -6.230  -7.727  -0.183  0.00  0.00    +0.146 A 
ATOM      4  C   UNL     1      -7.609  -7.777  -0.006  0.00  0.00    +0.139 A 
ATOM      5  C   UNL     1      -8.307  -6.574   0.175  0.00  0.00    +0.275 A 
ATOM      6  O   UNL     1      -9.518  -6.576   0.334  0.00  0.00    -0.266 OA
ATOM      7  N   UNL     1      -7.617  -5.415   0.177  0.00  0.00    -0.300 N 
ATOM      8  H   UNL     1      -8.083  -4.574   0.305  0.00  0.00    +0.171 HD
ENDROOT
BRANCH   4   9
ATOM      9  N   UNL     1      -8.290  -9.009  -0.010  0.00  0.00    -0.274 N 
ATOM     10  C   UNL     1      -9.273  -9.233  -0.904  0.00  0.00    +0.248 C 
ATOM     11  O   UNL     1      -9.511  -8.408  -1.765  0.00  0.00    -0.270 OA
ATOM     12  H   UNL     1      -8.051  -9.697   0.631  0.00  0.00    +0.155 HD
BRANCH  10  13
ATOM     13  C   UNL     1     -10.061 -10.482  -0.839  0.00  0.00    +0.037 A 
ATOM     14  C   UNL     1      -9.794 -11.429   0.152  0.00  0.00    +0.013 A 
ATOM     15  C   UNL     1     -10.534 -12.592   0.208  0.00  0.00    +0.001 A 
ATOM     16  C   UNL     1     -11.539 -12.821  -0.715  0.00  0.00    +0.000 A 
ATOM     17  C   UNL     1     -11.809 -11.887  -1.700  0.00  0.00    +0.001 A 
ATOM     18  C   UNL     1     -11.080 -10.717  -1.763  0.00  0.00    +0.013 A 
ENDBRANCH  10  13
ENDBRANCH   4   9
BRANCH   3  19
ATOM     19  N   UNL     1      -5.511  -8.895  -0.365  0.00  0.00    -0.341 N 
ATOM     20  H   UNL     1      -4.549  -8.858  -0.489  0.00  0.00    +0.144 HD
ATOM     21  H   UNL     1      -5.967  -9.750  -0.370  0.00  0.00    +0.144 HD
ENDBRANCH   3  19
BRANCH   1  22
ATOM     22  S   UNL     1      -5.389  -3.894  -0.006  0.00  0.00    -0.078 S 
BRANCH  22  23
ATOM     23  C   UNL     1      -3.662  -4.380  -0.277  0.00  0.00    +0.173 C 
BRANCH  23  31
ATOM     24  C   UNL     1      -0.036   1.513  -0.312  0.00  0.00    +0.089 C 
ATOM     25  C   UNL     1      -0.024   0.010  -0.429  0.00  0.00    +0.136 A 
ATOM     26  C   UNL     1      -1.097  -0.796  -0.347  0.00  0.00    +0.091 A 
ATOM     27  C   UNL     1      -0.657  -2.129  -0.509  0.00  0.00    +0.168 A 
ATOM     28  N   UNL     1       0.639  -2.106  -0.682  0.00  0.00    -0.063 NA
ATOM     29  O   UNL     1       1.059  -0.754  -0.640  0.00  0.00    -0.358 OA
ATOM     30  N   UNL     1      -1.463  -3.268  -0.488  0.00  0.00    -0.267 N 
ATOM     31  C   UNL     1      -2.792  -3.150  -0.300  0.00  0.00    +0.229 C 
ATOM     32  O   UNL     1      -3.288  -2.053  -0.148  0.00  0.00    -0.275 OA
ATOM     33  H   UNL     1      -1.066  -4.145  -0.610  0.00  0.00    +0.156 HD
ENDBRANCH  23  31
ENDBRANCH  22  23
ENDBRANCH   1  22
TORSDOF 6
