REMARK  Name = ZINC12316965
REMARK  7 active torsions:
REMARK  status: ('A' for Active; 'I' for Inactive)
REMARK    1  A    between atoms: C_1  and  N_2
REMARK    2  A    between atoms: N_2  and  C_3
REMARK    3  A    between atoms: C_3  and  C_4
REMARK    4  A    between atoms: C_9  and  C_10
REMARK    5  A    between atoms: C_9  and  N_60
REMARK    6  A    between atoms: C_10  and  C_11
REMARK    7  A    between atoms: C_18  and  C_20
REMARK                            x       y       z     vdW  Elec       q    Type
REMARK                         _______ _______ _______ _____ _____    ______ ____
ROOT
ATOM      1  C   UNL     1      -3.801  -1.606   1.731  0.00  0.00    +0.003 C 
ATOM      2  C   UNL     1      -2.615  -2.389   2.301  0.00  0.00    -0.014 C 
ATOM      3  C   UNL     1      -2.897  -2.741   3.763  0.00  0.00    -0.078 C 
ATOM      4  C   UNL     1      -5.284  -2.797   3.349  0.00  0.00    -0.078 C 
ATOM      5  C   UNL     1      -5.073  -2.447   1.874  0.00  0.00    -0.014 C 
ATOM      6  N   UNL     1      -4.120  -3.570   3.830  0.00  0.00    +0.380 N 
ATOM      7  H   UNL     1      -3.996  -4.394   3.229  0.00  0.00    -0.082 HD
ENDROOT
BRANCH   1   8
ATOM      8  C   UNL     1      -3.552  -1.304   0.252  0.00  0.00    +0.111 C 
BRANCH   8  10
ATOM      9  C   UNL     1      -2.609   1.049   0.134  0.00  0.00    +0.132 C 
ATOM     10  N   UNL     1      -2.405  -0.402   0.125  0.00  0.00    -0.299 N 
ATOM     11  C   UNL     1      -1.161  -0.907  -0.001  0.00  0.00    +0.264 C 
ATOM     12  O   UNL     1      -1.000  -2.108  -0.101  0.00  0.00    -0.268 OA
BRANCH  11  13
ATOM     13  C   UNL     1       0.001  -0.004  -0.017  0.00  0.00    +0.124 A 
ATOM     14  C   UNL     1       0.421   0.784  -1.058  0.00  0.00    +0.005 A 
ATOM     15  C   UNL     1       1.561   1.454  -0.596  0.00  0.00    +0.067 A 
ATOM     16  N   UNL     1       1.775   1.073   0.630  0.00  0.00    -0.178 NA
ATOM     17  N   UNL     1       0.885   0.221   1.005  0.00  0.00    -0.272 N 
ATOM     18  H   UNL     1       0.846  -0.212   1.906  0.00  0.00    +0.189 HD
ATOM     19  C   UNL     1       2.346   2.429  -1.439  0.00  0.00    +0.057 C 
ATOM     20  C   UNL     1       1.953   2.217  -2.906  0.00  0.00    +0.007 C 
ATOM     21  C   UNL     1       0.429   2.236  -3.045  0.00  0.00    +0.005 C 
ATOM     22  C   UNL     1      -0.162   0.958  -2.433  0.00  0.00    +0.039 C 
ENDBRANCH  11  13
ENDBRANCH   8  10
ENDBRANCH   1   8
BRANCH   6  23
ATOM     23  C   UNL     1      -4.350  -4.018   5.218  0.00  0.00    -0.074 C 
BRANCH  23  24
ATOM     24  C   UNL     1      -3.240  -4.995   5.612  0.00  0.00    +0.016 C 
BRANCH  24  25
ATOM     25  C   UNL     1      -3.473  -5.480   7.019  0.00  0.00    -0.049 A 
ATOM     26  C   UNL     1      -2.922  -4.794   8.086  0.00  0.00    +0.005 A 
ATOM     27  C   UNL     1      -3.140  -5.236   9.378  0.00  0.00    +0.020 A 
ATOM     28  C   UNL     1      -3.900  -6.370   9.602  0.00  0.00    +0.041 A 
ATOM     29  C   UNL     1      -4.445  -7.059   8.534  0.00  0.00    +0.020 A 
ATOM     30  C   UNL     1      -4.231  -6.614   7.243  0.00  0.00    +0.005 A 
ATOM     31 CL   UNL     1      -4.168  -6.929  11.224  0.00  0.00    -0.084 Cl
ENDBRANCH  24  25
ENDBRANCH  23  24
ENDBRANCH   6  23
TORSDOF 6
