REMARK  Name = ZINC03358168
REMARK  7 active torsions:
REMARK  status: ('A' for Active; 'I' for Inactive)
REMARK    1  A    between atoms: C_9  and  C_10
REMARK    2  A    between atoms: C_9  and  C_12
REMARK    3  A    between atoms: C_12  and  C_14
REMARK    4  A    between atoms: C_14  and  O_15
REMARK    5  A    between atoms: O_15  and  C_16
REMARK    6  A    between atoms: C_16  and  C_18
REMARK    7  A    between atoms: C_18  and  C_19
REMARK                            x       y       z     vdW  Elec       q    Type
REMARK                         _______ _______ _______ _____ _____    ______ ____
ROOT
ATOM      1  C   UNL     1      -0.018   1.503   0.010  0.00  0.00    +0.312 C 
ENDROOT
BRANCH   1   2
ATOM      2  C   UNL     1       0.002  -0.004   0.002  0.00  0.00    +0.214 C 
ATOM      3  O   UNL     1       1.063  -0.598  -0.011  0.00  0.00    -0.288 OA
BRANCH   2  12
ATOM      4  C   UNL     1      -1.817  -6.649  -0.016  0.00  0.00    +0.002 A 
ATOM      5  C   UNL     1      -0.432  -6.631  -0.029  0.00  0.00    +0.002 A 
ATOM      6  C   UNL     1       0.248  -5.429  -0.029  0.00  0.00    +0.025 A 
ATOM      7  C   UNL     1      -0.459  -4.235  -0.016  0.00  0.00    +0.054 A 
ATOM      8  C   UNL     1      -1.855  -4.254  -0.003  0.00  0.00    +0.054 A 
ATOM      9  C   UNL     1      -2.530  -5.467  -0.003  0.00  0.00    +0.025 A 
ATOM     10  N   UNL     1      -2.282  -2.931   0.008  0.00  0.00    -0.300 N 
ATOM     11  C   UNL     1      -1.186  -2.129   0.002  0.00  0.00    +0.114 C 
ATOM     12  C   UNL     1      -1.205  -0.723   0.010  0.00  0.00    +0.133 C 
ATOM     13  N   UNL     1      -0.068  -2.901  -0.019  0.00  0.00    -0.300 N 
ATOM     14  H   UNL     1      -3.205  -2.631   0.018  0.00  0.00    +0.153 HD
ATOM     15  H   UNL     1       0.846  -2.576  -0.031  0.00  0.00    +0.153 HD
BRANCH  12  16
ATOM     16  C   UNL     1      -2.455  -0.024   0.025  0.00  0.00    +0.106 C 
ATOM     17  N   UNL     1      -3.446   0.530   0.038  0.00  0.00    -0.191 NA
ENDBRANCH  12  16
ENDBRANCH   2  12
ENDBRANCH   1   2
BRANCH   1  18
ATOM     18  O   UNL     1       1.344   2.005   0.000  0.00  0.00    -0.456 OA
BRANCH  18  19
ATOM     19  C   UNL     1       1.502   3.338   0.006  0.00  0.00    +0.312 C 
ATOM     20  O   UNL     1       0.534   4.061   0.019  0.00  0.00    -0.250 OA
BRANCH  19  21
ATOM     21  C   UNL     1       2.886   3.933  -0.004  0.00  0.00    +0.159 C 
BRANCH  21  22
ATOM     22  C   UNL     1       2.787   5.437   0.005  0.00  0.00    +0.009 A 
ATOM     23  C   UNL     1       2.823   6.252  -1.058  0.00  0.00    +0.200 A 
ATOM     24  O   UNL     1       2.702   7.532  -0.665  0.00  0.00    -0.463 OA
ATOM     25  C   UNL     1       2.591   7.614   0.677  0.00  0.00    +0.135 A 
ATOM     26  C   UNL     1       2.638   6.303   1.180  0.00  0.00    +0.024 A 
ATOM     27  C   UNL     1       2.546   6.079   2.551  0.00  0.00    +0.015 A 
ATOM     28  C   UNL     1       2.409   7.147   3.415  0.00  0.00    -0.043 A 
ATOM     29  C   UNL     1       2.362   8.443   2.919  0.00  0.00    -0.041 A 
ATOM     30  C   UNL     1       2.454   8.675   1.560  0.00  0.00    +0.050 A 
ATOM     31  C   UNL     1       2.208   9.420   4.066  0.00  0.00    +0.036 C 
ATOM     32  C   UNL     1       2.606   8.628   5.329  0.00  0.00    +0.009 C 
ATOM     33  C   UNL     1       2.289   7.173   4.924  0.00  0.00    +0.036 C 
ENDBRANCH  21  22
ENDBRANCH  19  21
ENDBRANCH  18  19
ENDBRANCH   1  18
TORSDOF 7
