REMARK  Name = ZINC36557499
REMARK  23 active torsions:
REMARK  status: ('A' for Active; 'I' for Inactive)
REMARK    1  A    between atoms: C_1  and  C_2
REMARK    2  A    between atoms: C_2  and  C_3
REMARK    3  A    between atoms: C_3  and  C_4
REMARK    4  A    between atoms: C_4  and  C_5
REMARK    5  A    between atoms: C_5  and  C_6
REMARK    6  A    between atoms: C_7  and  C_8
REMARK    7  A    between atoms: N_10  and  C_11
REMARK    8  A    between atoms: N_10  and  C_18
REMARK    9  A    between atoms: C_11  and  C_12
REMARK   10  A    between atoms: C_15  and  C_17
REMARK   11  A    between atoms: C_18  and  C_20
REMARK   12  A    between atoms: C_18  and  C_25
REMARK   13  A    between atoms: C_21  and  C_22
REMARK   14  A    between atoms: C_22  and  C_23
REMARK   15  A    between atoms: C_23  and  C_24
REMARK   16  A    between atoms: N_27  and  C_28
REMARK   17  A    between atoms: C_28  and  C_29
REMARK   18  A    between atoms: C_28  and  C_30
REMARK   19  A    between atoms: C_28  and  C_31
REMARK   20  A    between atoms: C_31  and  C_32
REMARK   21  A    between atoms: C_32  and  C_33
REMARK   22  A    between atoms: C_32  and  C_34
REMARK   23  A    between atoms: C_32  and  C_35
REMARK                            x       y       z     vdW  Elec       q    Type
REMARK                         _______ _______ _______ _____ _____    ______ ____
ROOT
ATOM      1  C   UNL     1      -1.320  -9.417   1.511  0.00  0.00    +0.186 C 
ENDROOT
BRANCH   1   2
ATOM      2  C   UNL     1      -1.213  -9.294   3.009  0.00  0.00    +0.238 C 
ATOM      3  O   UNL     1      -0.773  -8.278   3.505  0.00  0.00    -0.273 OA
ATOM      4  N   UNL     1      -1.607 -10.313   3.798  0.00  0.00    -0.308 N 
ATOM      5  H   UNL     1      -1.958 -11.126   3.402  0.00  0.00    +0.149 HD
BRANCH   4   6
ATOM      6  C   UNL     1      -1.503 -10.194   5.255  0.00  0.00    +0.030 C 
ATOM      7  C   UNL     1      -0.029 -10.122   5.657  0.00  0.00    +0.031 C 
ATOM      8  C   UNL     1      -2.220  -8.923   5.715  0.00  0.00    +0.031 C 
BRANCH   6   9
ATOM      9  C   UNL     1      -2.152 -11.412   5.914  0.00  0.00    +0.031 C 
BRANCH   9  10
ATOM     10  C   UNL     1      -3.667 -11.361   5.700  0.00  0.00    -0.036 C 
ATOM     11  C   UNL     1      -3.965 -11.034   4.236  0.00  0.00    +0.010 C 
ATOM     12  C   UNL     1      -4.278 -12.718   6.055  0.00  0.00    +0.010 C 
ATOM     13  C   UNL     1      -4.272 -10.279   6.598  0.00  0.00    +0.010 C 
ENDBRANCH   9  10
ENDBRANCH   6   9
ENDBRANCH   4   6
ENDBRANCH   1   2
BRANCH   1  16
ATOM     14  C   UNL     1      -1.398  -7.002   1.193  0.00  0.00    +0.240 C 
ATOM     15  O   UNL     1      -2.313  -6.956   1.992  0.00  0.00    -0.271 OA
ATOM     16  N   UNL     1      -0.832  -8.186   0.884  0.00  0.00    -0.276 N 
BRANCH  14  18
ATOM     17  C   UNL     1      -1.467  -4.598   0.869  0.00  0.00    -0.022 C 
ATOM     18  C   UNL     1      -0.908  -5.766   0.564  0.00  0.00    +0.063 C 
BRANCH  17  19
ATOM     19  C   UNL     1      -0.965  -3.332   0.224  0.00  0.00    +0.027 C 
BRANCH  19  20
ATOM     20  C   UNL     1      -2.131  -2.607  -0.451  0.00  0.00    +0.004 C 
BRANCH  20  21
ATOM     21  C   UNL     1      -1.622  -1.321  -1.105  0.00  0.00    +0.000 C 
BRANCH  21  23
ATOM     22  C   UNL     1      -2.279   0.690  -2.435  0.00  0.00    +0.004 C 
ATOM     23  C   UNL     1      -2.788  -0.596  -1.780  0.00  0.00    -0.003 C 
ENDBRANCH  21  23
ENDBRANCH  20  21
ENDBRANCH  19  20
ENDBRANCH  17  19
ENDBRANCH  14  18
BRANCH  16  24
ATOM     24  C   UNL     1       0.271  -8.241  -0.079  0.00  0.00    +0.183 C 
BRANCH  24  25
ATOM     25  C   UNL     1       1.573  -7.974   0.633  0.00  0.00    +0.122 A 
ATOM     26  C   UNL     1       2.410  -8.909   1.117  0.00  0.00    +0.046 A 
ATOM     27  C   UNL     1       3.498  -8.221   1.700  0.00  0.00    +0.045 A 
ATOM     28  C   UNL     1       3.261  -6.907   1.538  0.00  0.00    +0.102 A 
ATOM     29  O   UNL     1       2.096  -6.764   0.885  0.00  0.00    -0.463 OA
ATOM     30  C   UNL     1       4.153  -5.786   2.004  0.00  0.00    +0.086 C 
ENDBRANCH  24  25
ENDBRANCH  16  24
ENDBRANCH   1  16
BRANCH   1  31
ATOM     31  C   UNL     1      -2.760  -9.640   1.126  0.00  0.00    +0.000 C 
ATOM     32  C   UNL     1      -3.337  -8.845   0.260  0.00  0.00    -0.029 C 
BRANCH  32  33
ATOM     33  C   UNL     1      -4.803  -9.005  -0.049  0.00  0.00    +0.027 C 
BRANCH  33  34
ATOM     34  C   UNL     1      -5.558  -7.750   0.395  0.00  0.00    +0.001 C 
ATOM     35  C   UNL     1      -7.060  -7.961   0.192  0.00  0.00    +0.004 C 
ENDBRANCH  33  34
ENDBRANCH  32  33
ENDBRANCH   1  31
TORSDOF 15
