REMARK  Name = ZINC43743801
REMARK  4 active torsions:
REMARK  status: ('A' for Active; 'I' for Inactive)
REMARK    1  A    between atoms: C_1  and  C_2
REMARK    2  A    between atoms: C_5  and  C_8
REMARK    3  A    between atoms: C_8  and  C_10
REMARK    4  A    between atoms: C_33  and  C_38
REMARK                            x       y       z     vdW  Elec       q    Type
REMARK                         _______ _______ _______ _____ _____    ______ ____
ROOT
ATOM      1  C   UNL     1       0.120  -4.913   1.328  0.00  0.00    +0.066 C 
ATOM      2  C   UNL     1       1.577  -5.027   1.811  0.00  0.00    -0.055 C 
ATOM      3  C   UNL     1       1.917  -3.863   2.751  0.00  0.00    -0.016 C 
ATOM      4  C   UNL     1       2.297  -4.530   4.093  0.00  0.00    -0.020 C 
ATOM      5  C   UNL     1       1.567  -5.893   4.019  0.00  0.00    -0.076 C 
ATOM      6  N   UNL     1       1.680  -6.292   2.573  0.00  0.00    +0.395 N 
ATOM      7  C   UNL     1       0.527  -7.138   2.225  0.00  0.00    +0.060 C 
ATOM      8  C   UNL     1      -0.342  -6.375   1.230  0.00  0.00    +0.085 C 
ATOM      9  C   UNL     1      -0.190  -6.900  -0.170  0.00  0.00    -0.011 A 
ATOM     10  C   UNL     1       0.887  -7.045  -1.016  0.00  0.00    +0.006 A 
ATOM     11  C   UNL     1       0.706  -7.572  -2.282  0.00  0.00    +0.000 A 
ATOM     12  C   UNL     1      -0.557  -7.953  -2.696  0.00  0.00    +0.002 A 
ATOM     13  C   UNL     1      -1.639  -7.810  -1.851  0.00  0.00    +0.023 A 
ATOM     14  C   UNL     1      -1.466  -7.280  -0.575  0.00  0.00    +0.038 A 
ATOM     15  N   UNL     1      -2.388  -7.038   0.446  0.00  0.00    -0.285 N 
ATOM     16  C   UNL     1      -1.808  -6.506   1.539  0.00  0.00    +0.228 C 
ATOM     17  O   UNL     1      -2.361  -6.194   2.572  0.00  0.00    -0.275 OA
ATOM     18  C   UNL     1      -0.256  -7.506   3.459  0.00  0.00    -0.025 A 
ATOM     19  C   UNL     1      -0.924  -6.764   4.407  0.00  0.00    +0.024 A 
ATOM     20  C   UNL     1      -1.567  -7.399   5.456  0.00  0.00    +0.042 A 
ATOM     21  C   UNL     1      -1.535  -8.780   5.547  0.00  0.00    +0.025 A 
ATOM     22  C   UNL     1      -0.866  -9.525   4.599  0.00  0.00    -0.028 A 
ATOM     23  C   UNL     1      -0.217  -8.893   3.541  0.00  0.00    +0.039 A 
ATOM     24  N   UNL     1       0.514  -9.419   2.473  0.00  0.00    -0.286 N 
ATOM     25  C   UNL     1       0.984  -8.458   1.657  0.00  0.00    +0.212 C 
ATOM     26  O   UNL     1       1.647  -8.622   0.655  0.00  0.00    -0.277 OA
ATOM     27  C   UNL     1      -0.837 -11.028   4.708  0.00  0.00    +0.046 C 
ATOM     28 CL   UNL     1      -2.411  -6.467   6.653  0.00  0.00    -0.084 Cl
ATOM     29  H   UNL     1      -3.336  -7.230   0.375  0.00  0.00    +0.155 HD
ATOM     30  H   UNL     1       0.665 -10.367   2.336  0.00  0.00    +0.155 HD
ATOM     31  H   UNL     1       2.555  -6.757   2.385  0.00  0.00    -0.079 HD
ENDROOT
BRANCH   1  32
ATOM     32  C   UNL     1       0.058  -4.245  -0.021  0.00  0.00    +0.166 C 
ATOM     33  O   UNL     1       1.038  -4.230  -0.736  0.00  0.00    -0.292 OA
BRANCH  32  38
ATOM     34  C   UNL     1      -4.823  -1.772  -1.783  0.00  0.00    +0.044 C 
ATOM     35  C   UNL     1      -3.543  -2.420  -1.321  0.00  0.00    -0.050 A 
ATOM     36  C   UNL     1      -2.465  -2.505  -2.184  0.00  0.00    +0.004 A 
ATOM     37  C   UNL     1      -1.290  -3.097  -1.769  0.00  0.00    +0.011 A 
ATOM     38  C   UNL     1      -1.191  -3.612  -0.472  0.00  0.00    +0.018 A 
ATOM     39  C   UNL     1      -2.286  -3.521   0.394  0.00  0.00    +0.011 A 
ATOM     40  C   UNL     1      -3.451  -2.922  -0.034  0.00  0.00    +0.004 A 
ENDBRANCH  32  38
ENDBRANCH   1  32
TORSDOF 2
