REMARK  Name = ZINC10315591
REMARK  10 active torsions:
REMARK  status: ('A' for Active; 'I' for Inactive)
REMARK    1  A    between atoms: C_1  and  C_2
REMARK    2  A    between atoms: C_3  and  C_19
REMARK    3  A    between atoms: N_10  and  C_11
REMARK    4  A    between atoms: C_11  and  C_12
REMARK    5  A    between atoms: C_19  and  N_51
REMARK    6  A    between atoms: C_20  and  C_21
REMARK    7  A    between atoms: C_20  and  N_51
REMARK    8  A    between atoms: C_21  and  S_22
REMARK    9  A    between atoms: S_22  and  C_23
REMARK   10  A    between atoms: N_27  and  C_28
REMARK                            x       y       z     vdW  Elec       q    Type
REMARK                         _______ _______ _______ _____ _____    ______ ____
ROOT
ATOM      1  C   UNL     1      -2.694  -0.871   1.830  0.00  0.00    +0.064 C 
ATOM      2  C   UNL     1      -1.927   0.422   1.931  0.00  0.00    +0.018 A 
ATOM      3  C   UNL     1      -0.926   0.791   1.116  0.00  0.00    -0.036 A 
ATOM      4  C   UNL     1      -0.465   2.105   1.571  0.00  0.00    +0.001 A 
ATOM      5  C   UNL     1       0.530   2.986   1.142  0.00  0.00    +0.010 A 
ATOM      6  C   UNL     1       0.716   4.170   1.798  0.00  0.00    +0.001 A 
ATOM      7  C   UNL     1      -0.076   4.504   2.888  0.00  0.00    +0.002 A 
ATOM      8  C   UNL     1      -1.068   3.653   3.323  0.00  0.00    +0.026 A 
ATOM      9  C   UNL     1      -1.272   2.440   2.673  0.00  0.00    +0.050 A 
ATOM     10  N   UNL     1      -2.147   1.395   2.868  0.00  0.00    -0.339 N 
ENDROOT
BRANCH  10  11
ATOM     11  C   UNL     1      -3.164   1.335   3.921  0.00  0.00    +0.158 C 
BRANCH  11  12
ATOM     12  C   UNL     1      -4.493   1.774   3.362  0.00  0.00    -0.009 A 
ATOM     13  C   UNL     1      -5.362   0.841   2.829  0.00  0.00    +0.007 A 
ATOM     14  C   UNL     1      -6.580   1.244   2.316  0.00  0.00    +0.000 A 
ATOM     15  C   UNL     1      -6.931   2.581   2.336  0.00  0.00    +0.001 A 
ATOM     16  C   UNL     1      -6.064   3.515   2.868  0.00  0.00    +0.020 A 
ATOM     17  C   UNL     1      -4.846   3.112   3.386  0.00  0.00    +0.046 A 
ATOM     18 CL   UNL     1      -3.758   4.284   4.061  0.00  0.00    -0.083 Cl
ENDBRANCH  11  12
ENDBRANCH  10  11
BRANCH   3  19
ATOM     19  C   UNL     1      -0.377  -0.000  -0.043  0.00  0.00    -0.044 C 
BRANCH  19  20
ATOM     20  N   UNL     1      -1.119   0.356  -1.267  0.00  0.00    +0.382 N 
ATOM     21  H   UNL     1      -1.011   1.361  -1.448  0.00  0.00    -0.085 HD
ATOM     22  H   UNL     1      -2.114   0.137  -1.135  0.00  0.00    -0.085 HD
BRANCH  20  23
ATOM     23  C   UNL     1      -0.602  -0.405  -2.420  0.00  0.00    -0.071 C 
BRANCH  23  24
ATOM     24  C   UNL     1      -1.389  -0.015  -3.672  0.00  0.00    +0.058 C 
BRANCH  24  25
ATOM     25  S   UNL     1      -0.762  -0.944  -5.093  0.00  0.00    -0.086 S 
BRANCH  25  26
ATOM     26  C   UNL     1      -1.816  -0.317  -6.358  0.00  0.00    +0.209 A 
ATOM     27  N   UNL     1      -2.768   0.579  -6.210  0.00  0.00    -0.102 NA
ATOM     28  N   UNL     1      -3.345   0.812  -7.333  0.00  0.00    -0.022 NA
ATOM     29  N   UNL     1      -2.816   0.097  -8.266  0.00  0.00    -0.043 NA
ATOM     30  N   UNL     1      -1.796  -0.662  -7.667  0.00  0.00    -0.223 N 
ATOM     31  C   UNL     1      -0.903  -1.623  -8.319  0.00  0.00    +0.177 C 
ENDBRANCH  25  26
ENDBRANCH  24  25
ENDBRANCH  23  24
ENDBRANCH  20  23
ENDBRANCH  19  20
ENDBRANCH   3  19
TORSDOF 8
