REMARK  Name = ZINC33516749
REMARK  6 active torsions:
REMARK  status: ('A' for Active; 'I' for Inactive)
REMARK    1  A    between atoms: C_1  and  C_2
REMARK    2  A    between atoms: C_2  and  C_3
REMARK    3  A    between atoms: C_2  and  C_4
REMARK    4  A    between atoms: C_4  and  C_5
REMARK    5  A    between atoms: C_11  and  C_14
REMARK    6  A    between atoms: N_24  and  C_27
REMARK                            x       y       z     vdW  Elec       q    Type
REMARK                         _______ _______ _______ _____ _____    ______ ____
ROOT
ATOM      1  C   UNL     1       0.072  -0.041   2.397  0.00  0.00    -0.058 C 
ATOM      2  C   UNL     1       0.910  -0.398   3.642  0.00  0.00    +0.073 C 
ATOM      3  C   UNL     1       1.755   0.872   3.930  0.00  0.00    +0.076 C 
ATOM      4  C   UNL     1       1.360   1.870   2.822  0.00  0.00    -0.028 C 
ATOM      5  N   UNL     1      -0.010   1.442   2.406  0.00  0.00    +0.386 N 
ATOM      6  C   UNL     1       1.225   1.350   5.263  0.00  0.00    +0.229 C 
ATOM      7  O   UNL     1       1.615   2.329   5.862  0.00  0.00    -0.275 OA
ATOM      8  N   UNL     1       0.257   0.524   5.678  0.00  0.00    -0.210 N 
ATOM      9  C   UNL     1      -0.004  -0.507   4.842  0.00  0.00    +0.228 C 
ATOM     10  O   UNL     1      -0.831  -1.377   5.016  0.00  0.00    -0.275 OA
ATOM     11  H   UNL     1      -0.220   1.790   1.483  0.00  0.00    -0.085 HD
ATOM     12  H   UNL     1      -0.704   1.753   3.069  0.00  0.00    -0.085 HD
ENDROOT
BRANCH   4  13
ATOM     13  C   UNL     1       1.313   3.273   3.372  0.00  0.00    -0.059 A 
ATOM     14  C   UNL     1       0.211   3.697   4.091  0.00  0.00    +0.003 A 
ATOM     15  C   UNL     1       0.166   4.983   4.595  0.00  0.00    +0.021 A 
ATOM     16  C   UNL     1       1.226   5.847   4.381  0.00  0.00    +0.059 A 
ATOM     17  C   UNL     1       2.330   5.422   3.662  0.00  0.00    +0.059 A 
ATOM     18  C   UNL     1       2.375   4.133   3.162  0.00  0.00    +0.023 A 
ATOM     19 CL   UNL     1       3.659   6.505   3.392  0.00  0.00    -0.082 Cl
ATOM     20 CL   UNL     1       1.170   7.462   5.014  0.00  0.00    -0.082 Cl
ENDBRANCH   4  13
BRANCH   8  21
ATOM     21  C   UNL     1      -0.429   0.707   6.886  0.00  0.00    +0.044 A 
ATOM     22  C   UNL     1      -1.785   1.008   6.878  0.00  0.00    +0.024 A 
ATOM     23  C   UNL     1      -2.459   1.187   8.070  0.00  0.00    +0.002 A 
ATOM     24  C   UNL     1      -1.784   1.069   9.271  0.00  0.00    +0.000 A 
ATOM     25  C   UNL     1      -0.434   0.769   9.283  0.00  0.00    +0.002 A 
ATOM     26  C   UNL     1       0.243   0.583   8.094  0.00  0.00    +0.024 A 
ENDBRANCH   8  21
BRANCH   1  27
ATOM     27  C   UNL     1       0.771  -0.528   1.126  0.00  0.00    -0.012 C 
BRANCH  27  29
ATOM     28  C   UNL     1      -0.741  -2.506   0.913  0.00  0.00    +0.007 C 
ATOM     29  C   UNL     1       0.714  -2.056   1.066  0.00  0.00    -0.019 C 
ATOM     30  C   UNL     1       1.529  -2.550  -0.130  0.00  0.00    +0.007 C 
ENDBRANCH  27  29
ENDBRANCH   1  27
TORSDOF 4
