REMARK  Name = ZINC45118715
REMARK  9 active torsions:
REMARK  status: ('A' for Active; 'I' for Inactive)
REMARK    1  A    between atoms: C_1  and  C_2
REMARK    2  A    between atoms: C_2  and  C_3
REMARK    3  A    between atoms: C_2  and  N_4
REMARK    4  A    between atoms: C_7  and  C_10
REMARK    5  A    between atoms: C_10  and  N_11
REMARK    6  A    between atoms: N_11  and  C_12
REMARK    7  A    between atoms: C_14  and  N_22
REMARK    8  A    between atoms: C_16  and  S_18
REMARK    9  A    between atoms: S_18  and  N_21
REMARK                            x       y       z     vdW  Elec       q    Type
REMARK                         _______ _______ _______ _____ _____    ______ ____
ROOT
ATOM      1  C   UNL     1      -5.705  -4.458  -0.264  0.00  0.00    +0.031 A 
ATOM      2  C   UNL     1      -5.681  -4.769   1.088  0.00  0.00    +0.045 A 
ATOM      3  C   UNL     1      -6.707  -5.520   1.643  0.00  0.00    +0.028 A 
ATOM      4  C   UNL     1      -7.755  -5.960   0.842  0.00  0.00    +0.051 A 
ATOM      5  C   UNL     1      -7.776  -5.650  -0.504  0.00  0.00    +0.108 A 
ATOM      6  C   UNL     1      -6.758  -4.896  -1.058  0.00  0.00    +0.051 A 
ENDROOT
BRANCH   5   7
ATOM      7  S   UNL     1      -9.106  -6.209  -1.515  0.00  0.00    +0.056 S 
ATOM      8  O   UNL     1      -8.614  -6.250  -2.847  0.00  0.00    -0.153 OA
ATOM      9  O   UNL     1      -9.653  -7.351  -0.870  0.00  0.00    -0.153 OA
BRANCH   7  10
ATOM     10  N   UNL     1     -10.275  -5.038  -1.478  0.00  0.00    -0.204 NA
ATOM     11  H   UNL     1     -10.138  -4.231  -0.956  0.00  0.00    +0.144 HD
ATOM     12  H   UNL     1     -11.098  -5.158  -1.977  0.00  0.00    +0.144 HD
ENDBRANCH   7  10
ENDBRANCH   5   7
BRANCH   3  13
ATOM     13  N   UNL     1      -6.687  -5.835   3.003  0.00  0.00    -0.358 N 
ATOM     14  H   UNL     1      -5.956  -5.528   3.561  0.00  0.00    +0.142 HD
ATOM     15  H   UNL     1      -7.405  -6.361   3.390  0.00  0.00    +0.142 HD
ENDBRANCH   3  13
BRANCH   1  16
ATOM     16  N   UNL     1      -4.674  -3.702  -0.826  0.00  0.00    -0.344 N 
ATOM     17  H   UNL     1      -4.693  -3.482  -1.771  0.00  0.00    +0.146 HD
BRANCH  16  18
ATOM     18  C   UNL     1      -3.564  -3.241   0.011  0.00  0.00    +0.103 C 
BRANCH  18  22
ATOM     19  N   UNL     1      -1.376  -0.512   0.012  0.00  0.00    +0.381 N 
ATOM     20  C   UNL     1      -2.083  -0.102  -1.228  0.00  0.00    -0.078 C 
ATOM     21  C   UNL     1      -3.236  -1.131  -1.335  0.00  0.00    -0.015 C 
ATOM     22  C   UNL     1      -2.579  -2.440  -0.843  0.00  0.00    -0.012 C 
ATOM     23  C   UNL     1      -1.374  -1.992   0.004  0.00  0.00    -0.074 C 
ATOM     24  H   UNL     1      -1.868  -0.170   0.824  0.00  0.00    -0.081 HD
BRANCH  19  26
ATOM     25  C   UNL     1      -0.019   1.526   0.010  0.00  0.00    -0.014 C 
ATOM     26  C   UNL     1       0.002  -0.004   0.002  0.00  0.00    -0.075 C 
ATOM     27  C   UNL     1       0.742  -0.511   1.242  0.00  0.00    -0.014 C 
ENDBRANCH  19  26
ENDBRANCH  18  22
ENDBRANCH  16  18
ENDBRANCH   1  16
TORSDOF 7
