REMARK  Name = ZINC33143852
REMARK  7 active torsions:
REMARK  status: ('A' for Active; 'I' for Inactive)
REMARK    1  A    between atoms: C_9  and  S_11
REMARK    2  A    between atoms: S_11  and  C_12
REMARK    3  A    between atoms: C_12  and  C_13
REMARK    4  A    between atoms: N_15  and  C_16
REMARK    5  A    between atoms: C_17  and  C_32
REMARK    6  A    between atoms: N_20  and  C_21
REMARK    7  A    between atoms: C_21  and  C_22
REMARK                            x       y       z     vdW  Elec       q    Type
REMARK                         _______ _______ _______ _____ _____    ______ ____
ROOT
ATOM      1  C   UNL     1       1.079   3.578   0.317  0.00  0.00    +0.123 A 
ATOM      2  C   UNL     1       2.161   4.448   0.248  0.00  0.00    +0.095 A 
ATOM      3  C   UNL     1       1.588   5.783   0.092  0.00  0.00    -0.007 A 
ATOM      4  C   UNL     1       0.249   5.640   0.086  0.00  0.00    +0.025 A 
ATOM      5  N   UNL     1      -0.058   4.316   0.221  0.00  0.00    -0.329 N 
ATOM      6  C   UNL     1      -0.716   6.795  -0.049  0.00  0.00    +0.054 C 
ATOM      7  C   UNL     1       0.038   8.095   0.251  0.00  0.00    +0.006 C 
ATOM      8  C   UNL     1       1.328   8.142  -0.574  0.00  0.00    +0.005 C 
ATOM      9  C   UNL     1       2.313   7.096  -0.036  0.00  0.00    +0.038 C 
ENDROOT
BRANCH   1  12
ATOM     10  C   UNL     1       1.469   1.666   1.659  0.00  0.00    +0.229 C 
ATOM     11  O   UNL     1       1.780   2.388   2.583  0.00  0.00    -0.275 OA
ATOM     12  N   UNL     1       1.149   2.200   0.464  0.00  0.00    -0.270 N 
ATOM     13  H   UNL     1       0.942   1.544  -0.394  0.00  0.00    +0.156 HD
BRANCH  10  14
ATOM     14  C   UNL     1       1.435   0.171   1.849  0.00  0.00    +0.173 C 
BRANCH  14  15
ATOM     15  S   UNL     1       1.912  -0.232   3.548  0.00  0.00    -0.079 S 
BRANCH  15  24
ATOM     16  C   UNL     1       1.651  -6.504   3.944  0.00  0.00    +0.002 A 
ATOM     17  C   UNL     1       1.265  -6.399   2.616  0.00  0.00    +0.002 A 
ATOM     18  C   UNL     1       1.161  -5.165   2.013  0.00  0.00    +0.030 A 
ATOM     19  C   UNL     1       1.447  -4.010   2.745  0.00  0.00    +0.090 A 
ATOM     20  C   UNL     1       1.837  -4.122   4.089  0.00  0.00    +0.067 A 
ATOM     21  C   UNL     1       1.936  -5.372   4.680  0.00  0.00    +0.028 A 
ATOM     22  N   UNL     1       2.048  -2.828   4.538  0.00  0.00    -0.333 N 
ATOM     23  H   UNL     1       2.365  -2.651   5.577  0.00  0.00    +0.168 HD
ATOM     24  C   UNL     1       1.790  -1.989   3.492  0.00  0.00    +0.168 A 
ATOM     25  N   UNL     1       1.432  -2.685   2.441  0.00  0.00    -0.222 NA
ENDBRANCH  15  24
ENDBRANCH  14  15
ENDBRANCH  10  14
ENDBRANCH   1  12
BRANCH   2  26
ATOM     26  C   UNL     1       3.550   4.106   0.313  0.00  0.00    +0.103 C 
ATOM     27  N   UNL     1       4.652   3.835   0.365  0.00  0.00    -0.191 NA
ENDBRANCH   2  26
BRANCH   5  28
ATOM     28  C   UNL     1      -1.417   3.770   0.257  0.00  0.00    +0.154 C 
BRANCH  28  29
ATOM     29  C   UNL     1      -1.858   3.593   1.711  0.00  0.00    +0.138 C 
ATOM     30  C   UNL     1      -3.242   2.912   1.760  0.00  0.00    +0.035 C 
ATOM     31  C   UNL     1      -3.941   3.668   2.923  0.00  0.00    +0.031 C 
ATOM     32  C   UNL     1      -3.342   5.087   2.752  0.00  0.00    +0.160 C 
ATOM     33  O   UNL     1      -1.983   4.874   2.340  0.00  0.00    -0.375 OA
ENDBRANCH  28  29
ENDBRANCH   5  28
TORSDOF 7
