REMARK  Name = ZINC08645241
REMARK  5 active torsions:
REMARK  status: ('A' for Active; 'I' for Inactive)
REMARK    1  A    between atoms: C_1  and  C_2
REMARK    2  A    between atoms: C_2  and  C_22
REMARK    3  A    between atoms: N_5  and  C_9
REMARK    4  A    between atoms: C_9  and  C_10
REMARK    5  A    between atoms: C_10  and  N_11
REMARK                            x       y       z     vdW  Elec       q    Type
REMARK                         _______ _______ _______ _____ _____    ______ ____
ROOT
ATOM      1  C   UNL     1       1.675  -1.315   4.140  0.00  0.00    +0.047 C 
ATOM      2  C   UNL     1       0.681  -0.155   4.233  0.00  0.00    +0.136 C 
ATOM      3  C   UNL     1      -0.239  -0.138   3.028  0.00  0.00    +0.251 C 
ATOM      4  O   UNL     1      -1.018  -1.002   2.690  0.00  0.00    -0.272 OA
ATOM      5  N   UNL     1      -0.008   1.038   2.411  0.00  0.00    -0.222 N 
ATOM      6  C   UNL     1       0.914   1.761   3.056  0.00  0.00    +0.310 C 
ATOM      7  O   UNL     1       1.287   2.860   2.693  0.00  0.00    -0.252 OA
ATOM      8  N   UNL     1       1.384   1.137   4.151  0.00  0.00    -0.281 N 
ATOM      9  H   UNL     1       2.054   1.472   4.767  0.00  0.00    +0.152 HD
ENDROOT
BRANCH   2  10
ATOM     10  C   UNL     1      -0.117  -0.244   5.508  0.00  0.00    -0.008 A 
ATOM     11  C   UNL     1      -0.081   0.774   6.411  0.00  0.00    +0.007 A 
ATOM     12  C   UNL     1      -0.813   0.709   7.595  0.00  0.00    +0.001 A 
ATOM     13  C   UNL     1      -1.586  -0.374   7.883  0.00  0.00    +0.008 A 
ATOM     14  C   UNL     1      -1.649  -1.444   6.975  0.00  0.00    -0.018 A 
ATOM     15  C   UNL     1      -0.908  -1.376   5.768  0.00  0.00    -0.012 A 
ATOM     16  C   UNL     1      -0.967  -2.450   4.862  0.00  0.00    +0.009 A 
ATOM     17  C   UNL     1      -1.739  -3.532   5.150  0.00  0.00    +0.001 A 
ATOM     18  C   UNL     1      -2.471  -3.597   6.335  0.00  0.00    +0.001 A 
ATOM     19  C   UNL     1      -2.435  -2.579   7.237  0.00  0.00    +0.008 A 
ENDBRANCH   2  10
BRANCH   5  20
ATOM     20  C   UNL     1      -0.689   1.473   1.189  0.00  0.00    +0.137 C 
BRANCH  20  21
ATOM     21  C   UNL     1       0.110   1.011  -0.032  0.00  0.00    +0.136 C 
BRANCH  21  22
ATOM     22  N   UNL     1      -0.570   1.446  -1.254  0.00  0.00    -0.233 N 
ATOM     23  C   UNL     1      -1.495   0.722  -1.909  0.00  0.00    +0.254 C 
ATOM     24  O   UNL     1      -1.891  -0.380  -1.587  0.00  0.00    -0.270 OA
ATOM     25  C   UNL     1      -1.949   1.492  -3.086  0.00  0.00    +0.049 A 
ATOM     26  C   UNL     1      -2.865   1.260  -4.100  0.00  0.00    +0.014 A 
ATOM     27  C   UNL     1      -3.056   2.216  -5.085  0.00  0.00    +0.001 A 
ATOM     28  C   UNL     1      -2.339   3.398  -5.064  0.00  0.00    +0.001 A 
ATOM     29  C   UNL     1      -1.420   3.643  -4.056  0.00  0.00    +0.014 A 
ATOM     30  C   UNL     1      -1.218   2.697  -3.064  0.00  0.00    +0.049 A 
ATOM     31  C   UNL     1      -0.348   2.621  -1.871  0.00  0.00    +0.254 C 
ATOM     32  O   UNL     1       0.435   3.475  -1.510  0.00  0.00    -0.270 OA
ENDBRANCH  21  22
ENDBRANCH  20  21
ENDBRANCH   5  20
TORSDOF 4
