REMARK  Name = ZINC50362168
REMARK  8 active torsions:
REMARK  status: ('A' for Active; 'I' for Inactive)
REMARK    1  A    between atoms: C_1  and  C_2
REMARK    2  A    between atoms: C_2  and  N_3
REMARK    3  A    between atoms: N_3  and  C_4
REMARK    4  A    between atoms: N_3  and  C_10
REMARK    5  A    between atoms: C_4  and  C_5
REMARK    6  A    between atoms: C_10  and  C_12
REMARK    7  A    between atoms: C_10  and  C_14
REMARK    8  A    between atoms: C_12  and  N_13
REMARK                            x       y       z     vdW  Elec       q    Type
REMARK                         _______ _______ _______ _____ _____    ______ ____
ROOT
ATOM      1  C   UNL     1       0.205  -2.083  -1.308  0.00  0.00    -0.018 C 
ENDROOT
BRANCH   1   2
ATOM      2  C   UNL     1       0.775  -3.085  -0.337  0.00  0.00    +0.092 A 
ATOM      3  C   UNL     1       1.289  -4.286  -0.658  0.00  0.00    +0.059 A 
ATOM      4  C   UNL     1       1.704  -4.890   0.552  0.00  0.00    +0.070 A 
ATOM      5  C   UNL     1       1.419  -4.020   1.540  0.00  0.00    +0.184 A 
ATOM      6  O   UNL     1       0.861  -2.927   0.994  0.00  0.00    -0.454 OA
ATOM      7 BR   UNL     1       1.753  -4.290   3.381  0.00  0.00    -0.007 Br
ATOM      8 BR   UNL     1       2.506  -6.592   0.744  0.00  0.00    -0.046 Br
ENDBRANCH   1   2
BRANCH   1   9
ATOM      9  N   UNL     1       0.774  -0.756  -1.033  0.00  0.00    +0.388 N 
ATOM     10  H   UNL     1       0.429  -0.095  -1.712  0.00  0.00    -0.080 HD
BRANCH   9  12
ATOM     11  C   UNL     1       0.837   1.118   0.542  0.00  0.00    -0.017 C 
ATOM     12  C   UNL     1       0.380  -0.325   0.315  0.00  0.00    -0.081 C 
ENDBRANCH   9  12
BRANCH   9  13
ATOM     13  C   UNL     1       2.239  -0.825  -1.117  0.00  0.00    -0.035 C 
BRANCH  13  14
ATOM     14  C   UNL     1       2.648  -1.120  -2.537  0.00  0.00    -0.027 A 
ATOM     15  C   UNL     1       2.983  -0.256  -3.526  0.00  0.00    +0.009 A 
ATOM     16  C   UNL     1       3.329  -0.759  -4.766  0.00  0.00    +0.008 A 
ATOM     17  C   UNL     1       3.324  -2.101  -4.956  0.00  0.00    +0.045 A 
ATOM     18  S   UNL     1       2.825  -2.700  -3.350  0.00  0.00    -0.103 S 
ENDBRANCH  13  14
ENDBRANCH   9  13
ENDBRANCH   1   9
BRANCH   1  19
ATOM     19  C   UNL     1      -1.315  -2.028  -1.151  0.00  0.00    -0.094 C 
BRANCH  19  20
ATOM     20  N   UNL     1      -1.860  -0.978  -2.022  0.00  0.00    +0.377 N 
ATOM     21  H   UNL     1      -1.688  -1.218  -2.986  0.00  0.00    -0.090 HD
ATOM     22  H   UNL     1      -2.854  -0.895  -1.868  0.00  0.00    -0.090 HD
ATOM     23  H   UNL     1      -1.413  -0.099  -1.808  0.00  0.00    -0.090 HD
ENDBRANCH  19  20
ENDBRANCH   1  19
TORSDOF 7
