REMARK  Name = ZINC09873203
REMARK  12 active torsions:
REMARK  status: ('A' for Active; 'I' for Inactive)
REMARK    1  A    between atoms: C_1  and  C_2
REMARK    2  A    between atoms: C_2  and  C_3
REMARK    3  A    between atoms: C_2  and  C_4
REMARK    4  A    between atoms: C_4  and  C_5
REMARK    5  A    between atoms: N_7  and  C_8
REMARK    6  A    between atoms: C_11  and  C_14
REMARK    7  A    between atoms: C_14  and  C_16
REMARK    8  A    between atoms: C_16  and  S_17
REMARK    9  A    between atoms: S_17  and  C_18
REMARK   10  A    between atoms: C_21  and  C_29
REMARK   11  A    between atoms: N_22  and  C_23
REMARK   12  A    between atoms: C_29  and  N_65
REMARK                            x       y       z     vdW  Elec       q    Type
REMARK                         _______ _______ _______ _____ _____    ______ ____
ROOT
ATOM      1  S   UNL     1       2.152   6.089   0.062  0.00  0.00    -0.078 S 
ENDROOT
BRANCH   1   2
ATOM      2  C   UNL     1       3.799   6.717   0.064  0.00  0.00    +0.196 A 
ATOM      3  N   UNL     1       4.904   6.009   0.059  0.00  0.00    -0.122 NA
ATOM      4  N   UNL     1       5.924   6.791   0.058  0.00  0.00    -0.135 NA
ATOM      5  C   UNL     1       5.536   8.035   0.072  0.00  0.00    +0.122 A 
ATOM      6  N   UNL     1       4.167   8.034   0.076  0.00  0.00    -0.276 N 
BRANCH   6   7
ATOM      7  C   UNL     1       3.318   9.151   0.091  0.00  0.00    +0.050 A 
ATOM      8  C   UNL     1       3.303  10.027  -0.986  0.00  0.00    +0.026 A 
ATOM      9  C   UNL     1       2.463  11.123  -0.971  0.00  0.00    +0.002 A 
ATOM     10  C   UNL     1       1.646  11.355   0.120  0.00  0.00    +0.000 A 
ATOM     11  C   UNL     1       1.663  10.487   1.197  0.00  0.00    +0.002 A 
ATOM     12  C   UNL     1       2.497   9.386   1.185  0.00  0.00    +0.026 A 
ENDBRANCH   6   7
BRANCH   5  13
ATOM     13  C   UNL     1       6.429   9.249   0.082  0.00  0.00    -0.001 C 
BRANCH  13  18
ATOM     14  C   UNL     1       7.248   8.472   2.239  0.00  0.00    -0.078 C 
ATOM     15  C   UNL     1       7.972   9.139   3.435  0.00  0.00    -0.020 C 
ATOM     16  C   UNL     1       8.606  10.396   2.797  0.00  0.00    -0.020 C 
ATOM     17  C   UNL     1       7.780  10.662   1.525  0.00  0.00    -0.078 C 
ATOM     18  N   UNL     1       6.740   9.633   1.492  0.00  0.00    +0.384 N 
ATOM     19  H   UNL     1       5.887   9.988   1.940  0.00  0.00    -0.081 HD
ENDBRANCH  13  18
ENDBRANCH   5  13
ENDBRANCH   1   2
BRANCH   1  20
ATOM     20  C   UNL     1       2.494   4.311   0.043  0.00  0.00    +0.157 C 
BRANCH  20  21
ATOM     21  C   UNL     1       1.194   3.550   0.039  0.00  0.00    +0.173 C 
ATOM     22  O   UNL     1       0.140   4.149   0.048  0.00  0.00    -0.291 OA
BRANCH  21  26
ATOM     23  C   UNL     1       1.221  -0.686  -0.005  0.00  0.00    +0.033 A 
ATOM     24  C   UNL     1       0.010   0.000   0.005  0.00  0.00    +0.024 A 
ATOM     25  C   UNL     1      -0.004   1.371   0.020  0.00  0.00    +0.013 A 
ATOM     26  C   UNL     1       1.203   2.081   0.024  0.00  0.00    +0.018 A 
ATOM     27  C   UNL     1       2.420   1.387   0.013  0.00  0.00    +0.013 A 
ATOM     28  C   UNL     1       2.423   0.016  -0.001  0.00  0.00    +0.024 A 
BRANCH  23  31
ATOM     29  C   UNL     1       2.186  -2.740  -0.702  0.00  0.00    +0.217 C 
ATOM     30  O   UNL     1       3.086  -2.125  -1.233  0.00  0.00    -0.275 OA
ATOM     31  N   UNL     1       1.230  -2.079  -0.020  0.00  0.00    -0.285 N 
ATOM     32  H   UNL     1       0.547  -2.573   0.461  0.00  0.00    +0.155 HD
BRANCH  29  33
ATOM     33  C   UNL     1       2.137  -4.242  -0.803  0.00  0.00    +0.099 C 
BRANCH  33  35
ATOM     34  C   UNL     1       3.350  -6.267  -1.623  0.00  0.00    +0.008 C 
ATOM     35  C   UNL     1       3.330  -4.737  -1.624  0.00  0.00    -0.008 C 
ATOM     36  C   UNL     1       3.205  -4.230  -3.062  0.00  0.00    +0.008 C 
ENDBRANCH  33  35
ENDBRANCH  29  33
ENDBRANCH  23  31
ENDBRANCH  21  26
ENDBRANCH  20  21
ENDBRANCH   1  20
TORSDOF 10
