REMARK  Name = ZINC04965392
REMARK  5 active torsions:
REMARK  status: ('A' for Active; 'I' for Inactive)
REMARK    1  A    between atoms: C_6  and  N_7
REMARK    2  A    between atoms: N_10  and  C_11
REMARK    3  A    between atoms: C_11  and  C_17
REMARK    4  A    between atoms: N_19  and  C_20
REMARK    5  A    between atoms: C_20  and  C_21
REMARK                            x       y       z     vdW  Elec       q    Type
REMARK                         _______ _______ _______ _____ _____    ______ ____
ROOT
ATOM      1  C   UNL     1      -2.332  -4.212  -0.201  0.00  0.00    +0.112 C 
ATOM      2  C   UNL     1      -1.675  -4.832   1.035  0.00  0.00    +0.035 C 
ATOM      3  C   UNL     1      -2.388  -4.334   2.294  0.00  0.00    +0.003 C 
ATOM      4  C   UNL     1      -3.862  -4.742   2.241  0.00  0.00    +0.000 C 
ATOM      5  C   UNL     1      -4.518  -4.123   1.005  0.00  0.00    +0.003 C 
ATOM      6  C   UNL     1      -3.805  -4.620  -0.254  0.00  0.00    +0.035 C 
ENDROOT
BRANCH   1  10
ATOM      7  N   UNL     1      -0.934  -0.830   0.137  0.00  0.00    -0.269 N 
ATOM      8  C   UNL     1      -1.023  -2.164  -0.031  0.00  0.00    +0.305 C 
ATOM      9  O   UNL     1      -0.012  -2.837  -0.096  0.00  0.00    -0.252 OA
ATOM     10  N   UNL     1      -2.232  -2.753  -0.127  0.00  0.00    -0.285 N 
ATOM     11  H   UNL     1      -1.739  -0.302   0.261  0.00  0.00    +0.156 HD
ATOM     12  H   UNL     1      -3.035  -2.210  -0.148  0.00  0.00    +0.151 HD
BRANCH   7  18
ATOM     13  C   UNL     1       0.462   1.062  -0.417  0.00  0.00    +0.026 A 
ATOM     14  C   UNL     1       1.699   1.677  -0.420  0.00  0.00    +0.040 A 
ATOM     15  C   UNL     1       2.796   1.030   0.123  0.00  0.00    +0.124 A 
ATOM     16  C   UNL     1       2.656  -0.234   0.671  0.00  0.00    +0.040 A 
ATOM     17  C   UNL     1       1.421  -0.852   0.676  0.00  0.00    +0.026 A 
ATOM     18  C   UNL     1       0.319  -0.205   0.132  0.00  0.00    +0.035 A 
ATOM     19  F   UNL     1       4.005   1.633   0.119  0.00  0.00    -0.205 F 
ENDBRANCH   7  18
ENDBRANCH   1  10
BRANCH   1  20
ATOM     20  C   UNL     1      -1.630  -4.702  -1.441  0.00  0.00    +0.237 C 
ATOM     21  O   UNL     1      -1.032  -5.758  -1.423  0.00  0.00    -0.273 OA
ATOM     22  N   UNL     1      -1.667  -3.968  -2.571  0.00  0.00    -0.309 N 
ATOM     23  H   UNL     1      -2.082  -3.091  -2.566  0.00  0.00    +0.149 HD
BRANCH  22  24
ATOM     24  C   UNL     1      -1.079  -4.494  -3.806  0.00  0.00    +0.139 C 
BRANCH  24  25
ATOM     25  C   UNL     1      -1.251  -3.485  -4.912  0.00  0.00    -0.027 A 
ATOM     26  C   UNL     1      -2.384  -3.517  -5.704  0.00  0.00    +0.009 A 
ATOM     27  C   UNL     1      -2.546  -2.594  -6.721  0.00  0.00    +0.050 A 
ATOM     28  C   UNL     1      -1.573  -1.635  -6.948  0.00  0.00    +0.166 A 
ATOM     29  C   UNL     1      -0.432  -1.603  -6.151  0.00  0.00    +0.167 A 
ATOM     30  C   UNL     1      -0.278  -2.528  -5.130  0.00  0.00    +0.054 A 
ATOM     31  O   UNL     1       0.366  -0.578  -6.571  0.00  0.00    -0.453 OA
ATOM     32  C   UNL     1      -0.104  -0.240  -7.889  0.00  0.00    +0.466 C 
ATOM     33  O   UNL     1      -1.490  -0.629  -7.868  0.00  0.00    -0.453 OA
ENDBRANCH  24  25
ENDBRANCH  22  24
ENDBRANCH   1  20
TORSDOF 5
