REMARK  Name = ZINC58895694
REMARK  6 active torsions:
REMARK  status: ('A' for Active; 'I' for Inactive)
REMARK    1  A    between atoms: C_1  and  C_2
REMARK    2  A    between atoms: C_2  and  C_4
REMARK    3  A    between atoms: C_2  and  N_13
REMARK    4  A    between atoms: N_16  and  C_17
REMARK    5  A    between atoms: C_22  and  S_23
REMARK    6  A    between atoms: S_23  and  C_24
REMARK                            x       y       z     vdW  Elec       q    Type
REMARK                         _______ _______ _______ _____ _____    ______ ____
ROOT
ATOM      1  N   UNL     1       0.684  -0.493  -1.199  0.00  0.00    -0.293 N 
ATOM      2  C   UNL     1       0.005  -0.612  -2.357  0.00  0.00    +0.304 C 
ATOM      3  O   UNL     1      -1.177  -0.332  -2.401  0.00  0.00    -0.252 OA
ATOM      4  N   UNL     1       0.637  -1.043  -3.467  0.00  0.00    -0.268 N 
ATOM      5  H   UNL     1       1.628  -0.717  -1.165  0.00  0.00    +0.151 HD
ATOM      6  H   UNL     1       1.596  -1.189  -3.454  0.00  0.00    +0.156 HD
ENDROOT
BRANCH   4   7
ATOM      7  C   UNL     1      -0.092  -1.280  -4.641  0.00  0.00    +0.048 A 
ATOM      8  C   UNL     1      -1.444  -1.579  -4.572  0.00  0.00    +0.024 A 
ATOM      9  C   UNL     1      -2.161  -1.813  -5.730  0.00  0.00    +0.002 A 
ATOM     10  C   UNL     1      -1.534  -1.750  -6.961  0.00  0.00    +0.001 A 
ATOM     11  C   UNL     1      -0.187  -1.452  -7.041  0.00  0.00    +0.016 A 
ATOM     12  C   UNL     1       0.540  -1.210  -5.883  0.00  0.00    +0.029 A 
BRANCH  12  13
ATOM     13  S   UNL     1       2.256  -0.824  -5.981  0.00  0.00    -0.120 S 
BRANCH  13  14
ATOM     14  C   UNL     1       2.611  -0.850  -7.760  0.00  0.00    +0.051 C 
ATOM     15  C   UNL     1       2.490  -2.289  -8.302  0.00  0.00    +0.014 C 
ATOM     16  C   UNL     1       3.622  -2.394  -9.355  0.00  0.00    +0.001 C 
ATOM     17  C   UNL     1       4.772  -1.588  -8.703  0.00  0.00    +0.001 C 
ATOM     18  C   UNL     1       4.061  -0.404  -8.015  0.00  0.00    +0.014 C 
ENDBRANCH  13  14
ENDBRANCH  12  13
ENDBRANCH   4   7
BRANCH   1  20
ATOM     19  C   UNL     1      -0.014   1.505   0.027  0.00  0.00    +0.033 C 
ATOM     20  C   UNL     1      -0.002  -0.025   0.007  0.00  0.00    +0.102 C 
BRANCH  20  21
ATOM     21  C   UNL     1       0.720  -0.537   1.227  0.00  0.00    -0.024 A 
ATOM     22  C   UNL     1       2.103  -0.555   1.253  0.00  0.00    +0.009 A 
ATOM     23  C   UNL     1       2.770  -1.024   2.369  0.00  0.00    +0.050 A 
ATOM     24  C   UNL     1       2.054  -1.477   3.466  0.00  0.00    +0.166 A 
ATOM     25  C   UNL     1       0.661  -1.459   3.439  0.00  0.00    +0.167 A 
ATOM     26  C   UNL     1      -0.000  -0.982   2.319  0.00  0.00    +0.055 A 
ATOM     27  O   UNL     1       0.196  -1.950   4.625  0.00  0.00    -0.453 OA
ATOM     28  C   UNL     1       1.309  -2.648   5.214  0.00  0.00    +0.466 C 
ATOM     29  O   UNL     1       2.461  -1.980   4.667  0.00  0.00    -0.453 OA
ENDBRANCH  20  21
ENDBRANCH   1  20
TORSDOF 5
