REMARK  Name = ZINC09484005
REMARK  7 active torsions:
REMARK  status: ('A' for Active; 'I' for Inactive)
REMARK    1  A    between atoms: C_1  and  O_2
REMARK    2  A    between atoms: O_2  and  C_3
REMARK    3  A    between atoms: C_6  and  O_26
REMARK    4  A    between atoms: C_7  and  N_9
REMARK    5  A    between atoms: C_10  and  C_12
REMARK    6  A    between atoms: C_12  and  C_13
REMARK    7  A    between atoms: O_26  and  C_27
REMARK                            x       y       z     vdW  Elec       q    Type
REMARK                         _______ _______ _______ _____ _____    ______ ____
ROOT
ATOM      1  C   UNL     1      -3.792   5.901   0.285  0.00  0.00    +0.089 C 
ENDROOT
BRANCH   1   2
ATOM      2  C   UNL     1      -3.533   7.405   0.392  0.00  0.00    +0.025 C 
ATOM      3  C   UNL     1      -4.845   8.136   0.384  0.00  0.00    +0.200 C 
ATOM      4  O   UNL     1      -5.438   8.245  -0.668  0.00  0.00    -0.278 OA
ATOM      5  N   UNL     1      -5.392   8.672   1.483  0.00  0.00    -0.315 N 
ATOM      6  C   UNL     1      -4.716   8.645   2.773  0.00  0.00    +0.059 C 
ATOM      7  C   UNL     1      -5.702   8.435   3.920  0.00  0.00    +0.020 C 
ATOM      8  C   UNL     1      -4.927   8.488   5.247  0.00  0.00    +0.002 C 
ATOM      9  C   UNL     1      -3.856   7.396   5.269  0.00  0.00    -0.001 C 
ATOM     10  C   UNL     1      -2.890   7.588   4.095  0.00  0.00    -0.014 C 
ATOM     11  C   UNL     1      -3.680   7.520   2.789  0.00  0.00    -0.050 C 
ATOM     12  H   UNL     1      -6.265   9.091   1.417  0.00  0.00    +0.149 HD
ATOM     13  N   UNL     1      -2.791   7.683   1.632  0.00  0.00    +0.390 N 
ATOM     14  H   UNL     1      -2.435   8.646   1.609  0.00  0.00    -0.084 HD
ATOM     15  H   UNL     1      -2.003   7.029   1.712  0.00  0.00    -0.084 HD
ENDBRANCH   1   2
BRANCH   1  17
ATOM     16  N   UNL     1      -2.462   3.830   0.046  0.00  0.00    -0.283 N 
ATOM     17  C   UNL     1      -2.480   5.173   0.155  0.00  0.00    +0.216 C 
ATOM     18  O   UNL     1      -1.439   5.795   0.148  0.00  0.00    -0.276 OA
ATOM     19  H   UNL     1      -3.295   3.337  -0.014  0.00  0.00    +0.155 HD
BRANCH  16  24
ATOM     20  C   UNL     1       1.073   3.039  -0.618  0.00  0.00    +0.122 A 
ATOM     21  C   UNL     1       1.177   1.786  -0.031  0.00  0.00    +0.049 A 
ATOM     22  C   UNL     1       0.077   1.212   0.579  0.00  0.00    +0.051 A 
ATOM     23  C   UNL     1      -1.133   1.885   0.602  0.00  0.00    +0.141 A 
ATOM     24  C   UNL     1      -1.240   3.145   0.019  0.00  0.00    +0.079 A 
ATOM     25  C   UNL     1      -0.135   3.719  -0.593  0.00  0.00    +0.072 A 
BRANCH  20  27
ATOM     26  C   UNL     1       3.369   2.845  -1.206  0.00  0.00    +0.277 C 
ATOM     27  O   UNL     1       2.156   3.601  -1.217  0.00  0.00    -0.495 OA
ENDBRANCH  20  27
BRANCH  23  28
ATOM     28  O   UNL     1      -2.216   1.316   1.198  0.00  0.00    -0.493 OA
ATOM     29  C   UNL     1      -2.033   0.024   1.780  0.00  0.00    +0.277 C 
ENDBRANCH  23  28
ENDBRANCH  16  24
ENDBRANCH   1  17
TORSDOF 5
