REMARK  Name = ZINC65506963
REMARK  4 active torsions:
REMARK  status: ('A' for Active; 'I' for Inactive)
REMARK    1  A    between atoms: C_1  and  C_2
REMARK    2  A    between atoms: C_2  and  C_4
REMARK    3  A    between atoms: C_2  and  N_13
REMARK    4  A    between atoms: C_14  and  C_16
REMARK                            x       y       z     vdW  Elec       q    Type
REMARK                         _______ _______ _______ _____ _____    ______ ____
ROOT
ATOM      1  N   UNL     1       0.687  -0.491  -1.197  0.00  0.00    -0.303 N 
ATOM      2  C   UNL     1       2.031  -0.587  -1.215  0.00  0.00    +0.251 C 
ATOM      3  O   UNL     1       2.682  -0.196  -0.264  0.00  0.00    -0.270 OA
ATOM      4  H   UNL     1       0.173  -0.733  -1.983  0.00  0.00    +0.150 HD
ENDROOT
BRANCH   2   5
ATOM      5  C   UNL     1       2.710  -1.163  -2.381  0.00  0.00    +0.119 A 
ATOM      6  C   UNL     1       4.094  -1.381  -2.370  0.00  0.00    +0.131 A 
ATOM      7  N   UNL     1       4.684  -1.900  -3.427  0.00  0.00    -0.237 NA
ATOM      8  C   UNL     1       3.997  -2.228  -4.524  0.00  0.00    +0.140 A 
ATOM      9  C   UNL     1       4.679  -2.778  -5.622  0.00  0.00    +0.047 A 
ATOM     10  C   UNL     1       3.982  -3.116  -6.746  0.00  0.00    +0.005 A 
ATOM     11  C   UNL     1       2.598  -2.909  -6.788  0.00  0.00    +0.018 A 
ATOM     12  C   UNL     1       1.959  -2.378  -5.720  0.00  0.00    +0.096 A 
ATOM     13  N   UNL     1       2.646  -2.039  -4.595  0.00  0.00    -0.268 N 
ATOM     14  C   UNL     1       1.980  -1.516  -3.542  0.00  0.00    +0.270 A 
ATOM     15  O   UNL     1       0.774  -1.347  -3.593  0.00  0.00    -0.266 OA
ENDBRANCH   2   5
BRANCH   1  17
ATOM     16  C   UNL     1      -0.035   1.509   0.012  0.00  0.00    +0.035 C 
ATOM     17  C   UNL     1       0.002  -0.021   0.010  0.00  0.00    +0.126 C 
BRANCH  17  18
ATOM     18  C   UNL     1      -1.406  -0.557   0.030  0.00  0.00    +0.099 A 
ATOM     19  N   UNL     1      -2.273  -0.603  -0.950  0.00  0.00    -0.247 NA
ATOM     20  C   UNL     1      -3.491  -1.107  -0.792  0.00  0.00    +0.052 A 
ATOM     21  C   UNL     1      -3.761  -1.566   0.459  0.00  0.00    +0.013 A 
ATOM     22  S   UNL     1      -2.244  -1.251   1.317  0.00  0.00    -0.075 S 
ATOM     23  C   UNL     1      -5.026  -2.181   0.951  0.00  0.00    +0.044 C 
ATOM     24  C   UNL     1      -6.131  -1.891  -0.078  0.00  0.00    +0.006 C 
ATOM     25  C   UNL     1      -5.601  -2.216  -1.477  0.00  0.00    +0.006 C 
ATOM     26  C   UNL     1      -4.542  -1.191  -1.890  0.00  0.00    +0.056 C 
ENDBRANCH  17  18
ENDBRANCH   1  17
TORSDOF 3
