REMARK  Name = ZINC11348265
REMARK  6 active torsions:
REMARK  status: ('A' for Active; 'I' for Inactive)
REMARK    1  A    between atoms: C_1  and  C_2
REMARK    2  A    between atoms: C_4  and  C_25
REMARK    3  A    between atoms: C_6  and  C_8
REMARK    4  A    between atoms: C_8  and  S_9
REMARK    5  A    between atoms: S_9  and  C_10
REMARK    6  A    between atoms: C_13  and  C_15
REMARK                            x       y       z     vdW  Elec       q    Type
REMARK                         _______ _______ _______ _____ _____    ______ ____
ROOT
ATOM      1  C   UNL     1      -0.597  -2.079  -0.003  0.00  0.00    +0.278 A 
ATOM      2  N   UNL     1       0.712  -2.002  -0.015  0.00  0.00    -0.101 NA
ATOM      3  N   UNL     1       1.069  -0.766  -0.018  0.00  0.00    -0.106 NA
ATOM      4  C   UNL     1       0.002  -0.004   0.002  0.00  0.00    +0.251 A 
ATOM      5  O   UNL     1      -1.076  -0.819   0.008  0.00  0.00    -0.411 OA
ENDROOT
BRANCH   4   6
ATOM      6  C   UNL     1      -0.018   1.471   0.010  0.00  0.00    +0.063 A 
ATOM      7  C   UNL     1      -1.118   2.268   0.019  0.00  0.00    +0.097 A 
ATOM      8  N   UNL     1      -0.738   3.578   0.028  0.00  0.00    -0.360 N 
ATOM      9  H   UNL     1      -1.347   4.333   0.038  0.00  0.00    +0.165 HD
ATOM     10  C   UNL     1       0.637   3.675   0.016  0.00  0.00    +0.047 A 
ATOM     11  C   UNL     1       1.151   2.367   0.004  0.00  0.00    +0.012 A 
ATOM     12  C   UNL     1       2.529   2.159  -0.011  0.00  0.00    +0.011 A 
ATOM     13  C   UNL     1       3.382   3.240  -0.012  0.00  0.00    +0.001 A 
ATOM     14  C   UNL     1       2.876   4.532  -0.001  0.00  0.00    +0.002 A 
ATOM     15  C   UNL     1       1.516   4.754   0.013  0.00  0.00    +0.026 A 
ENDBRANCH   4   6
BRANCH   1  16
ATOM     16  S   UNL     1      -1.554  -3.558  -0.003  0.00  0.00    -0.061 S 
BRANCH  16  17
ATOM     17  C   UNL     1      -0.229  -4.791  -0.022  0.00  0.00    +0.114 C 
BRANCH  17  23
ATOM     18  C   UNL     1      -1.930  -8.781   2.474  0.00  0.00    +0.044 C 
ATOM     19  C   UNL     1      -1.641  -8.083   1.170  0.00  0.00    -0.050 A 
ATOM     20  C   UNL     1      -1.928  -8.710  -0.029  0.00  0.00    +0.006 A 
ATOM     21  C   UNL     1      -1.664  -8.069  -1.224  0.00  0.00    -0.050 A 
ATOM     22  C   UNL     1      -1.114  -6.801  -1.222  0.00  0.00    +0.007 A 
ATOM     23  C   UNL     1      -0.828  -6.173  -0.024  0.00  0.00    -0.037 A 
ATOM     24  C   UNL     1      -1.087  -6.816   1.172  0.00  0.00    +0.007 A 
ATOM     25  C   UNL     1      -1.976  -8.753  -2.531  0.00  0.00    +0.044 C 
ENDBRANCH  17  23
ENDBRANCH  16  17
ENDBRANCH   1  16
TORSDOF 4
