REMARK  Name = ZINC36006285
REMARK  7 active torsions:
REMARK  status: ('A' for Active; 'I' for Inactive)
REMARK    1  A    between atoms: C_4  and  N_7
REMARK    2  A    between atoms: C_12  and  N_19
REMARK    3  A    between atoms: C_14  and  C_16
REMARK    4  A    between atoms: N_19  and  C_20
REMARK    5  A    between atoms: C_23  and  N_26
REMARK    6  A    between atoms: N_26  and  S_27
REMARK    7  A    between atoms: S_27  and  C_30
REMARK                            x       y       z     vdW  Elec       q    Type
REMARK                         _______ _______ _______ _____ _____    ______ ____
ROOT
ATOM      1  N   UNL     1       7.076  -3.696   0.589  0.00  0.00    -0.326 N 
ATOM      2  H   UNL     1       7.642  -3.123   0.049  0.00  0.00    +0.148 HD
ENDROOT
BRANCH   1   8
ATOM      3  N   UNL     1       3.623  -0.651  -0.037  0.00  0.00    -0.214 N 
ATOM      4  C   UNL     1       3.885  -1.839   0.585  0.00  0.00    +0.168 A 
ATOM      5  C   UNL     1       5.230  -2.150   0.304  0.00  0.00    +0.079 A 
ATOM      6  C   UNL     1       5.737  -1.105  -0.499  0.00  0.00    +0.148 A 
ATOM      7  N   UNL     1       4.786  -0.236  -0.697  0.00  0.00    -0.172 NA
ATOM      8  C   UNL     1       5.764  -3.340   0.832  0.00  0.00    +0.133 A 
ATOM      9  N   UNL     1       4.975  -4.113   1.570  0.00  0.00    -0.216 NA
ATOM     10  C   UNL     1       3.719  -3.780   1.807  0.00  0.00    +0.137 A 
ATOM     11  N   UNL     1       3.175  -2.679   1.335  0.00  0.00    -0.212 NA
BRANCH   3  15
ATOM     12  C   UNL     1      -0.017   1.379   0.010  0.00  0.00    +0.000 A 
ATOM     13  C   UNL     1       1.170   2.089   0.002  0.00  0.00    +0.002 A 
ATOM     14  C   UNL     1       2.377   1.419  -0.013  0.00  0.00    +0.028 A 
ATOM     15  C   UNL     1       2.400   0.031  -0.021  0.00  0.00    +0.068 A 
ATOM     16  C   UNL     1       1.206  -0.680  -0.013  0.00  0.00    +0.028 A 
ATOM     17  C   UNL     1       0.002  -0.004   0.002  0.00  0.00    +0.002 A 
ENDBRANCH   3  15
BRANCH  10  18
ATOM     18  C   UNL     1       2.873  -4.699   2.651  0.00  0.00    +0.057 C 
ATOM     19  C   UNL     1       1.376  -4.397   2.743  0.00  0.00    +0.012 C 
ATOM     20  C   UNL     1       2.285  -4.130   3.944  0.00  0.00    +0.012 C 
ENDBRANCH  10  18
ENDBRANCH   1   8
BRANCH   1  21
ATOM     21  C   UNL     1       7.614  -4.939   1.148  0.00  0.00    +0.072 C 
ATOM     22  C   UNL     1       8.100  -4.688   2.577  0.00  0.00    +0.024 C 
ATOM     23  C   UNL     1       9.196  -3.620   2.562  0.00  0.00    +0.022 C 
ATOM     24  C   UNL     1      10.366  -4.102   1.702  0.00  0.00    +0.077 C 
ATOM     25  C   UNL     1       9.880  -4.354   0.273  0.00  0.00    +0.022 C 
ATOM     26  C   UNL     1       8.784  -5.421   0.288  0.00  0.00    +0.024 C 
BRANCH  24  27
ATOM     27  N   UNL     1      11.415  -3.079   1.687  0.00  0.00    -0.187 NA
ATOM     28  H   UNL     1      11.176  -2.139   1.702  0.00  0.00    +0.148 HD
BRANCH  27  29
ATOM     29  S   UNL     1      13.008  -3.529   1.646  0.00  0.00    +0.059 S 
ATOM     30  O   UNL     1      13.768  -2.328   1.613  0.00  0.00    -0.153 OA
ATOM     31  O   UNL     1      13.180  -4.511   2.658  0.00  0.00    -0.153 OA
BRANCH  29  32
ATOM     32  C   UNL     1      13.281  -4.339   0.105  0.00  0.00    +0.105 A 
ATOM     33  C   UNL     1      13.100  -5.706   0.002  0.00  0.00    +0.028 A 
ATOM     34  C   UNL     1      13.314  -6.342  -1.207  0.00  0.00    +0.002 A 
ATOM     35  C   UNL     1      13.708  -5.611  -2.312  0.00  0.00    +0.000 A 
ATOM     36  C   UNL     1      13.888  -4.245  -2.209  0.00  0.00    +0.002 A 
ATOM     37  C   UNL     1      13.670  -3.608  -1.002  0.00  0.00    +0.028 A 
ENDBRANCH  29  32
ENDBRANCH  27  29
ENDBRANCH  24  27
ENDBRANCH   1  21
TORSDOF 7
