REMARK  Name = ZINC66956911
REMARK  5 active torsions:
REMARK  status: ('A' for Active; 'I' for Inactive)
REMARK    1  A    between atoms: C_1  and  N_2
REMARK    2  A    between atoms: C_3  and  C_7
REMARK    3  A    between atoms: C_7  and  N_8
REMARK    4  A    between atoms: N_11  and  C_12
REMARK    5  A    between atoms: C_15  and  C_18
REMARK                            x       y       z     vdW  Elec       q    Type
REMARK                         _______ _______ _______ _____ _____    ______ ____
ROOT
ATOM      1  C   UNL     1      -3.228   1.112  -5.838  0.00  0.00    +0.035 A 
ATOM      2  C   UNL     1      -2.231   1.267  -6.794  0.00  0.00    +0.024 A 
ATOM      3  C   UNL     1      -2.536   1.790  -8.032  0.00  0.00    +0.013 A 
ATOM      4  C   UNL     1      -3.848   2.164  -8.326  0.00  0.00    +0.019 A 
ATOM      5  C   UNL     1      -4.848   2.007  -7.364  0.00  0.00    +0.013 A 
ATOM      6  C   UNL     1      -4.537   1.479  -6.130  0.00  0.00    +0.024 A 
ENDROOT
BRANCH   4   7
ATOM      7  C   UNL     1      -4.179   2.727  -9.653  0.00  0.00    +0.164 A 
ATOM      8  N   UNL     1      -5.262   3.406  -9.971  0.00  0.00    -0.129 NA
ATOM      9  N   UNL     1      -5.217   3.742 -11.215  0.00  0.00    -0.134 NA
ATOM     10  C   UNL     1      -4.119   3.302 -11.751  0.00  0.00    +0.134 A 
ATOM     11  N   UNL     1      -3.421   2.647 -10.780  0.00  0.00    -0.311 N 
ATOM     12  C   UNL     1      -2.123   2.004 -10.973  0.00  0.00    +0.125 C 
ATOM     13  C   UNL     1      -1.886   1.816 -12.476  0.00  0.00    +0.022 C 
ATOM     14  C   UNL     1      -2.136   3.139 -13.205  0.00  0.00    +0.009 C 
ATOM     15  C   UNL     1      -3.639   3.457 -13.173  0.00  0.00    +0.076 C 
ENDBRANCH   4   7
BRANCH   1  19
ATOM     16  N   UNL     1      -1.466   0.432  -2.760  0.00  0.00    -0.294 N 
ATOM     17  C   UNL     1      -1.730   0.867  -4.008  0.00  0.00    +0.304 C 
ATOM     18  O   UNL     1      -0.900   1.517  -4.614  0.00  0.00    -0.252 OA
ATOM     19  N   UNL     1      -2.915   0.582  -4.583  0.00  0.00    -0.269 N 
ATOM     20  H   UNL     1      -2.128  -0.086  -2.276  0.00  0.00    +0.151 HD
ATOM     21  H   UNL     1      -3.551   0.009  -4.127  0.00  0.00    +0.156 HD
BRANCH  16  22
ATOM     22  C   UNL     1      -0.178   0.742  -2.134  0.00  0.00    +0.161 C 
BRANCH  22  25
ATOM     23  C   UNL     1      -1.278   2.015   0.470  0.00  0.00    +0.172 C 
ATOM     24  N   UNL     1      -0.618   0.711   0.375  0.00  0.00    -0.270 N 
ATOM     25  C   UNL     1      -0.135   0.145  -0.751  0.00  0.00    +0.056 A 
ATOM     26  C   UNL     1       0.395  -1.054  -0.415  0.00  0.00    +0.046 A 
ATOM     27  C   UNL     1       0.229  -1.227   0.963  0.00  0.00    +0.134 A 
ATOM     28  N   UNL     1      -0.372  -0.167   1.439  0.00  0.00    -0.180 NA
ENDBRANCH  22  25
ENDBRANCH  16  22
ENDBRANCH   1  19
TORSDOF 4
