REMARK  Name = ZINC63303138
REMARK  3 active torsions:
REMARK  status: ('A' for Active; 'I' for Inactive)
REMARK    1  A    between atoms: C_6  and  N_7
REMARK    2  A    between atoms: C_8  and  C_10
REMARK    3  A    between atoms: C_10  and  N_11
REMARK                            x       y       z     vdW  Elec       q    Type
REMARK                         _______ _______ _______ _____ _____    ______ ____
ROOT
ATOM      1  N   UNL     1      -4.785   0.087   0.350  0.00  0.00    -0.291 N 
ATOM      2  C   UNL     1      -6.042  -0.384   0.471  0.00  0.00    +0.303 C 
ATOM      3  O   UNL     1      -6.236  -1.579   0.579  0.00  0.00    -0.253 OA
ATOM      4  N   UNL     1      -7.085   0.470   0.472  0.00  0.00    -0.283 N 
ATOM      5  C   UNL     1      -6.839   1.915   0.449  0.00  0.00    +0.114 C 
ATOM      6  C   UNL     1      -7.534   2.534  -0.778  0.00  0.00    +0.052 C 
ATOM      7  C   UNL     1      -8.923   1.948  -0.830  0.00  0.00    -0.035 C 
ATOM      8  C   UNL     1     -10.116   2.523  -0.918  0.00  0.00    +0.001 A 
ATOM      9  C   UNL     1     -10.515   3.927  -1.107  0.00  0.00    +0.030 A 
ATOM     10  C   UNL     1     -11.853   4.172  -1.132  0.00  0.00    +0.042 A 
ATOM     11  C   UNL     1     -12.821   3.171  -0.990  0.00  0.00    +0.022 A 
ATOM     12  C   UNL     1     -12.543   1.854  -0.821  0.00  0.00    +0.027 A 
ATOM     13  C   UNL     1     -11.171   1.472  -0.787  0.00  0.00    +0.043 A 
ATOM     14  N   UNL     1     -10.628   0.297  -0.662  0.00  0.00    -0.376 N 
ATOM     15  C   UNL     1      -9.176   0.446  -0.761  0.00  0.00    +0.124 C 
ATOM     16  C   UNL     1      -8.459  -0.058   0.490  0.00  0.00    +0.138 C 
ATOM     17 CL   UNL     1     -12.386   5.809  -1.352  0.00  0.00    -0.084 Cl
ATOM     18  H   UNL     1      -4.625   1.044   0.338  0.00  0.00    +0.151 HD
ATOM     19  H   UNL     1     -11.105  -0.537  -0.527  0.00  0.00    +0.160 HD
ENDROOT
BRANCH   1  20
ATOM     20  C   UNL     1      -3.661  -0.845   0.238  0.00  0.00    +0.202 C 
BRANCH  20  22
ATOM     21  N   UNL     1      -1.202  -0.722  -0.001  0.00  0.00    -0.284 N 
ATOM     22  C   UNL     1      -2.375  -0.069   0.116  0.00  0.00    +0.234 C 
ATOM     23  O   UNL     1      -2.396   1.144   0.122  0.00  0.00    -0.274 OA
ATOM     24  H   UNL     1      -1.191  -1.689  -0.080  0.00  0.00    +0.155 HD
BRANCH  21  30
ATOM     25  C   UNL     1       0.121   1.157   0.743  0.00  0.00    +0.027 A 
ATOM     26  C   UNL     1       1.307   1.866   0.736  0.00  0.00    +0.051 A 
ATOM     27  C   UNL     1       2.381   1.418  -0.018  0.00  0.00    +0.162 A 
ATOM     28  C   UNL     1       2.266   0.253  -0.767  0.00  0.00    +0.164 A 
ATOM     29  C   UNL     1       1.075  -0.457  -0.761  0.00  0.00    +0.072 A 
ATOM     30  C   UNL     1       0.001  -0.005  -0.006  0.00  0.00    +0.037 A 
ATOM     31  O   UNL     1       3.312  -0.206  -1.507  0.00  0.00    -0.485 OA
ATOM     32  C   UNL     1       4.362   0.726  -1.785  0.00  0.00    +0.270 C 
ATOM     33  C   UNL     1       4.714   1.456  -0.481  0.00  0.00    +0.270 C 
ATOM     34  O   UNL     1       3.541   2.132  -0.016  0.00  0.00    -0.485 OA
ENDBRANCH  21  30
ENDBRANCH  20  22
ENDBRANCH   1  20
TORSDOF 3
