REMARK  Name = ZINC35483242
REMARK  17 active torsions:
REMARK  status: ('A' for Active; 'I' for Inactive)
REMARK    1  A    between atoms: C_1  and  C_2
REMARK    2  A    between atoms: C_2  and  C_3
REMARK    3  A    between atoms: C_3  and  C_4
REMARK    4  A    between atoms: C_4  and  C_5
REMARK    5  A    between atoms: C_5  and  O_6
REMARK    6  A    between atoms: O_6  and  C_7
REMARK    7  A    between atoms: C_10  and  C_16
REMARK    8  A    between atoms: C_12  and  O_13
REMARK    9  A    between atoms: O_13  and  C_14
REMARK   10  A    between atoms: C_14  and  C_15
REMARK   11  A    between atoms: N_31  and  C_32
REMARK   12  A    between atoms: C_32  and  C_33
REMARK   13  A    between atoms: C_33  and  N_34
REMARK   14  A    between atoms: N_34  and  C_35
REMARK   15  A    between atoms: N_34  and  C_37
REMARK   16  A    between atoms: C_35  and  C_36
REMARK   17  A    between atoms: C_37  and  C_38
REMARK                            x       y       z     vdW  Elec       q    Type
REMARK                         _______ _______ _______ _____ _____    ______ ____
ROOT
ATOM      1  C   UNL     1      -7.152  -5.951  -0.064  0.00  0.00    +0.145 C 
ATOM      2  C   UNL     1      -7.537  -5.601   1.336  0.00  0.00    +0.072 A 
ATOM      3  C   UNL     1      -6.991  -6.036   2.626  0.00  0.00    +0.199 A 
ATOM      4  O   UNL     1      -5.957  -6.672   2.732  0.00  0.00    -0.287 OA
ATOM      5  C   UNL     1      -7.817  -5.627   3.789  0.00  0.00    +0.064 A 
ATOM      6  C   UNL     1      -7.543  -6.129   5.062  0.00  0.00    +0.015 A 
ATOM      7  C   UNL     1      -8.317  -5.746   6.122  0.00  0.00    +0.001 A 
ATOM      8  C   UNL     1      -9.371  -4.863   5.936  0.00  0.00    +0.004 A 
ATOM      9  C   UNL     1      -9.654  -4.356   4.687  0.00  0.00    +0.047 A 
ATOM     10  C   UNL     1      -8.878  -4.729   3.589  0.00  0.00    +0.139 A 
ATOM     11  O   UNL     1      -9.168  -4.212   2.374  0.00  0.00    -0.450 OA
ATOM     12  C   UNL     1      -8.586  -4.729   1.274  0.00  0.00    +0.199 A 
ATOM     13  C   UNL     1      -8.910  -4.496  -0.145  0.00  0.00    +0.283 C 
ATOM     14  O   UNL     1      -9.798  -3.771  -0.546  0.00  0.00    -0.267 OA
ATOM     15  N   UNL     1      -8.077  -5.207  -0.934  0.00  0.00    -0.285 N 
ENDROOT
BRANCH   1  19
ATOM     16  C   UNL     1      -3.121  -4.745  -0.828  0.00  0.00    +0.162 A 
ATOM     17  C   UNL     1      -4.140  -3.806  -0.828  0.00  0.00    +0.050 A 
ATOM     18  C   UNL     1      -5.442  -4.199  -0.581  0.00  0.00    +0.009 A 
ATOM     19  C   UNL     1      -5.731  -5.528  -0.333  0.00  0.00    -0.019 A 
ATOM     20  C   UNL     1      -4.719  -6.470  -0.332  0.00  0.00    +0.055 A 
ATOM     21  C   UNL     1      -3.412  -6.083  -0.585  0.00  0.00    +0.162 A 
BRANCH  16  22
ATOM     22  O   UNL     1      -1.839  -4.360  -1.072  0.00  0.00    -0.488 OA
BRANCH  22  23
ATOM     23  C   UNL     1      -1.615  -2.970  -1.313  0.00  0.00    +0.229 C 
BRANCH  23  24
ATOM     24  C   UNL     1      -0.124  -2.730  -1.565  0.00  0.00    +0.041 C 
BRANCH  24  25
ATOM     25  C   UNL     1       0.116  -1.241  -1.824  0.00  0.00    +0.003 C 
BRANCH  25  27
ATOM     26  C   UNL     1       1.847   0.487  -2.334  0.00  0.00    +0.004 C 
ATOM     27  C   UNL     1       1.606  -1.002  -2.076  0.00  0.00    -0.003 C 
ENDBRANCH  25  27
ENDBRANCH  24  25
ENDBRANCH  23  24
ENDBRANCH  22  23
ENDBRANCH  16  22
BRANCH  21  28
ATOM     28  O   UNL     1      -2.417  -7.010  -0.590  0.00  0.00    -0.489 OA
BRANCH  28  29
ATOM     29  C   UNL     1      -2.790  -8.365  -0.332  0.00  0.00    +0.226 C 
ATOM     30  C   UNL     1      -1.545  -9.254  -0.378  0.00  0.00    +0.048 C 
ENDBRANCH  28  29
ENDBRANCH  21  28
ENDBRANCH   1  19
BRANCH  15  31
ATOM     31  C   UNL     1      -8.089  -5.233  -2.399  0.00  0.00    +0.090 C 
BRANCH  31  32
ATOM     32  C   UNL     1      -9.014  -6.353  -2.881  0.00  0.00    -0.060 C 
BRANCH  32  33
ATOM     33  N   UNL     1      -9.026  -6.379  -4.350  0.00  0.00    +0.380 N 
ATOM     34  H   UNL     1      -9.281  -5.468  -4.700  0.00  0.00    -0.082 HD
BRANCH  33  35
ATOM     35  C   UNL     1      -7.690  -6.738  -4.845  0.00  0.00    -0.082 C 
ATOM     36  C   UNL     1      -7.665  -6.626  -6.370  0.00  0.00    -0.017 C 
ENDBRANCH  33  35
BRANCH  33  37
ATOM     37  C   UNL     1     -10.003  -7.373  -4.814  0.00  0.00    -0.082 C 
ATOM     38  C   UNL     1     -11.412  -6.926  -4.420  0.00  0.00    -0.017 C 
ENDBRANCH  33  37
ENDBRANCH  32  33
ENDBRANCH  31  32
ENDBRANCH  15  31
TORSDOF 13
