REMARK  Name = ZINC63698413
REMARK  8 active torsions:
REMARK  status: ('A' for Active; 'I' for Inactive)
REMARK    1  A    between atoms: C_4  and  S_7
REMARK    2  A    between atoms: S_7  and  N_10
REMARK    3  A    between atoms: C_14  and  C_16
REMARK    4  A    between atoms: C_16  and  N_17
REMARK    5  A    between atoms: C_18  and  C_20
REMARK    6  A    between atoms: N_22  and  C_23
REMARK    7  A    between atoms: C_23  and  C_24
REMARK    8  A    between atoms: C_24  and  C_25
REMARK                            x       y       z     vdW  Elec       q    Type
REMARK                         _______ _______ _______ _____ _____    ______ ____
ROOT
ATOM      1  N   UNL     1       2.210  -2.652   1.054  0.00  0.00    -0.306 N 
ATOM      2  C   UNL     1       0.896  -2.856   0.835  0.00  0.00    +0.299 C 
ATOM      3  O   UNL     1       0.110  -2.785   1.756  0.00  0.00    -0.265 OA
ATOM      4  H   UNL     1       2.830  -2.637   0.307  0.00  0.00    +0.149 HD
ENDROOT
BRANCH   2   5
ATOM      5  C   UNL     1       0.408  -3.171  -0.542  0.00  0.00    +0.299 C 
ATOM      6  O   UNL     1       1.202  -3.334  -1.445  0.00  0.00    -0.265 OA
ATOM      7  N   UNL     1      -0.914  -3.275  -0.781  0.00  0.00    -0.307 N 
ATOM      8  H   UNL     1      -1.549  -3.145  -0.059  0.00  0.00    +0.149 HD
BRANCH   7   9
ATOM      9  C   UNL     1      -1.393  -3.583  -2.130  0.00  0.00    +0.109 C 
BRANCH   9  10
ATOM     10  C   UNL     1      -2.922  -3.643  -2.128  0.00  0.00    +0.052 C 
BRANCH  10  11
ATOM     11  C   UNL     1      -3.414  -3.960  -3.517  0.00  0.00    -0.040 C 
ATOM     12  C   UNL     1      -3.733  -5.180  -4.007  0.00  0.00    -0.001 A 
ATOM     13  C   UNL     1      -3.716  -6.524  -3.418  0.00  0.00    +0.010 A 
ATOM     14  C   UNL     1      -4.098  -7.577  -4.176  0.00  0.00    +0.001 A 
ATOM     15  C   UNL     1      -4.510  -7.417  -5.506  0.00  0.00    +0.002 A 
ATOM     16  C   UNL     1      -4.552  -6.214  -6.117  0.00  0.00    +0.026 A 
ATOM     17  C   UNL     1      -4.172  -5.038  -5.414  0.00  0.00    +0.043 A 
ATOM     18  N   UNL     1      -4.127  -3.779  -5.779  0.00  0.00    -0.380 N 
ATOM     19  C   UNL     1      -3.659  -2.979  -4.641  0.00  0.00    +0.144 C 
ATOM     20  H   UNL     1      -4.366  -3.434  -6.653  0.00  0.00    +0.160 HD
ENDBRANCH  10  11
ENDBRANCH   9  10
ENDBRANCH   7   9
ENDBRANCH   2   5
BRANCH   1  21
ATOM     21  C   UNL     1       2.704  -2.452   2.419  0.00  0.00    +0.125 C 
BRANCH  21  26
ATOM     22  N   UNL     1       4.730  -2.056   3.749  0.00  0.00    -0.172 NA
ATOM     23  C   UNL     1       5.576  -3.171   4.211  0.00  0.00    +0.110 C 
ATOM     24  C   UNL     1       6.076  -3.853   2.913  0.00  0.00    +0.019 C 
ATOM     25  C   UNL     1       4.829  -3.733   1.998  0.00  0.00    +0.023 C 
ATOM     26  C   UNL     1       4.231  -2.369   2.402  0.00  0.00    +0.097 C 
BRANCH  22  27
ATOM     27  S   UNL     1       4.390  -0.682   4.609  0.00  0.00    +0.061 S 
ATOM     28  O   UNL     1       3.919   0.277   3.672  0.00  0.00    -0.153 OA
ATOM     29  O   UNL     1       5.511  -0.440   5.448  0.00  0.00    -0.153 OA
BRANCH  27  33
ATOM     30  C   UNL     1       0.911  -1.635   7.343  0.00  0.00    +0.000 A 
ATOM     31  C   UNL     1       2.201  -1.943   7.733  0.00  0.00    +0.002 A 
ATOM     32  C   UNL     1       3.264  -1.652   6.898  0.00  0.00    +0.028 A 
ATOM     33  C   UNL     1       3.036  -1.054   5.673  0.00  0.00    +0.105 A 
ATOM     34  C   UNL     1       1.746  -0.747   5.282  0.00  0.00    +0.028 A 
ATOM     35  C   UNL     1       0.683  -1.036   6.118  0.00  0.00    +0.002 A 
ENDBRANCH  27  33
ENDBRANCH  22  27
ENDBRANCH  21  26
ENDBRANCH   1  21
TORSDOF 8
