REMARK  Name = ZINC39380588
REMARK  6 active torsions:
REMARK  status: ('A' for Active; 'I' for Inactive)
REMARK    1  A    between atoms: C_1  and  O_2
REMARK    2  A    between atoms: O_2  and  C_3
REMARK    3  A    between atoms: C_5  and  N_26
REMARK    4  A    between atoms: N_16  and  C_19
REMARK    5  A    between atoms: C_19  and  C_20
REMARK    6  A    between atoms: C_27  and  C_29
REMARK                            x       y       z     vdW  Elec       q    Type
REMARK                         _______ _______ _______ _____ _____    ______ ____
ROOT
ATOM      1  C   UNL     1      -0.830  -1.087   0.116  0.00  0.00    +0.153 C 
ATOM      2  C   UNL     1      -1.157  -1.548  -1.321  0.00  0.00    +0.133 C 
ATOM      3  C   UNL     1      -0.719  -2.996  -1.383  0.00  0.00    -0.021 A 
ATOM      4  C   UNL     1      -0.480  -3.814  -2.474  0.00  0.00    +0.006 A 
ATOM      5  C   UNL     1      -0.084  -5.124  -2.288  0.00  0.00    +0.000 A 
ATOM      6  C   UNL     1       0.074  -5.621  -1.007  0.00  0.00    +0.000 A 
ATOM      7  C   UNL     1      -0.163  -4.806   0.082  0.00  0.00    +0.004 A 
ATOM      8  C   UNL     1      -0.560  -3.492  -0.102  0.00  0.00    -0.034 A 
ATOM      9  C   UNL     1      -0.878  -2.407   0.907  0.00  0.00    +0.021 C 
ATOM     10  C   UNL     1      -2.272  -2.614   1.493  0.00  0.00    -0.005 C 
ATOM     11  C   UNL     1      -2.548  -1.529   2.537  0.00  0.00    -0.078 C 
ATOM     12  N   UNL     1      -1.536  -1.600   3.599  0.00  0.00    +0.381 N 
ATOM     13  C   UNL     1      -0.208  -1.311   3.044  0.00  0.00    -0.078 C 
ATOM     14  C   UNL     1       0.166  -2.387   2.021  0.00  0.00    -0.005 C 
ATOM     15  H   UNL     1      -1.537  -2.525   4.001  0.00  0.00    -0.082 HD
ENDROOT
BRANCH   2  16
ATOM     16  N   UNL     1      -2.596  -1.438  -1.575  0.00  0.00    -0.302 N 
ATOM     17  C   UNL     1      -3.048  -1.292  -2.836  0.00  0.00    +0.251 C 
ATOM     18  O   UNL     1      -2.262  -1.251  -3.764  0.00  0.00    -0.270 OA
ATOM     19  H   UNL     1      -3.222  -1.471  -0.836  0.00  0.00    +0.150 HD
BRANCH  17  20
ATOM     20  C   UNL     1      -4.488  -1.182  -3.090  0.00  0.00    +0.074 A 
ATOM     21  C   UNL     1      -5.154  -1.034  -4.297  0.00  0.00    +0.021 A 
ATOM     22  C   UNL     1      -6.524  -0.959  -4.218  0.00  0.00    +0.008 A 
ATOM     23  C   UNL     1      -7.118  -1.032  -3.002  0.00  0.00    +0.046 A 
ATOM     24  S   UNL     1      -5.839  -1.213  -1.928  0.00  0.00    -0.092 S 
ENDBRANCH  17  20
ENDBRANCH   2  16
BRANCH   1  26
ATOM     25  C   UNL     1       0.481   0.918   0.039  0.00  0.00    +0.194 C 
ATOM     26  O   UNL     1       0.473  -0.504   0.179  0.00  0.00    -0.377 OA
ENDBRANCH   1  26
BRANCH  12  27
ATOM     27  C   UNL     1      -1.854  -0.616   4.642  0.00  0.00    -0.046 C 
BRANCH  27  28
ATOM     28  C   UNL     1      -3.163  -1.008   5.331  0.00  0.00    +0.136 C 
ATOM     29  C   UNL     1      -3.386  -0.169   6.576  0.00  0.00    +0.021 C 
ATOM     30  C   UNL     1      -3.403  -1.062   7.567  0.00  0.00    +0.132 C 
ATOM     31  N   UNL     1      -3.221  -2.313   7.089  0.00  0.00    -0.162 NA
ATOM     32  N   UNL     1      -3.082  -2.380   5.861  0.00  0.00    -0.182 NA
ENDBRANCH  27  28
ENDBRANCH  12  27
TORSDOF 5
