REMARK  Name = ZINC44183742
REMARK  6 active torsions:
REMARK  status: ('A' for Active; 'I' for Inactive)
REMARK    1  A    between atoms: C_1  and  C_2
REMARK    2  A    between atoms: C_2  and  C_3
REMARK    3  A    between atoms: C_6  and  C_9
REMARK    4  A    between atoms: C_9  and  C_11
REMARK    5  A    between atoms: C_9  and  O_22
REMARK    6  A    between atoms: C_11  and  N_12
REMARK                            x       y       z     vdW  Elec       q    Type
REMARK                         _______ _______ _______ _____ _____    ______ ____
ROOT
ATOM      1  C   UNL     1      -5.419  -2.005   0.043  0.00  0.00    +0.166 C 
ENDROOT
BRANCH   1   5
ATOM      2  C   UNL     1      -1.412  -0.526   0.013  0.00  0.00    -0.048 A 
ATOM      3  C   UNL     1      -2.051  -0.766   1.215  0.00  0.00    +0.004 A 
ATOM      4  C   UNL     1      -3.348  -1.244   1.225  0.00  0.00    +0.006 A 
ATOM      5  C   UNL     1      -4.006  -1.482   0.032  0.00  0.00    -0.017 A 
ATOM      6  C   UNL     1      -3.367  -1.241  -1.170  0.00  0.00    +0.006 A 
ATOM      7  C   UNL     1      -2.072  -0.758  -1.179  0.00  0.00    +0.004 A 
BRANCH   2   9
ATOM      8  C   UNL     1      -0.019   1.526   0.010  0.00  0.00    +0.009 C 
ATOM      9  C   UNL     1       0.002  -0.004   0.002  0.00  0.00    +0.032 C 
ENDBRANCH   2   9
ENDBRANCH   1   5
BRANCH   1  10
ATOM     10  O   UNL     1      -5.574  -2.981  -0.989  0.00  0.00    -0.385 OA
ATOM     11  H   UNL     1      -5.401  -2.643  -1.879  0.00  0.00    +0.210 HD
ENDBRANCH   1  10
BRANCH   1  12
ATOM     12  C   UNL     1      -6.392  -0.849  -0.198  0.00  0.00    +0.185 C 
BRANCH  12  13
ATOM     13  N   UNL     1      -7.768  -1.334  -0.069  0.00  0.00    -0.209 N 
ATOM     14  C   UNL     1      -8.502  -1.358   1.062  0.00  0.00    +0.351 A 
ATOM     15  O   UNL     1      -8.138  -0.979   2.162  0.00  0.00    -0.244 OA
ATOM     16  N   UNL     1      -9.710  -1.875   0.761  0.00  0.00    -0.251 N 
ATOM     17  C   UNL     1     -10.821  -2.119   1.534  0.00  0.00    +0.098 A 
ATOM     18  C   UNL     1     -11.930  -2.653   0.992  0.00  0.00    +0.018 A 
ATOM     19  C   UNL     1     -11.975  -2.973  -0.380  0.00  0.00    +0.005 A 
ATOM     20  C   UNL     1     -10.894  -2.742  -1.163  0.00  0.00    +0.049 A 
ATOM     21  C   UNL     1      -9.727  -2.179  -0.587  0.00  0.00    +0.162 A 
ATOM     22  N   UNL     1      -8.563  -1.852  -1.100  0.00  0.00    -0.149 NA
ENDBRANCH  12  13
ENDBRANCH   1  12
TORSDOF 5
