REMARK  Name = ZINC66583733
REMARK  6 active torsions:
REMARK  status: ('A' for Active; 'I' for Inactive)
REMARK    1  A    between atoms: C_1  and  C_2
REMARK    2  A    between atoms: C_4  and  C_18
REMARK    3  A    between atoms: C_7  and  N_8
REMARK    4  A    between atoms: N_8  and  S_9
REMARK    5  A    between atoms: S_9  and  C_12
REMARK    6  A    between atoms: N_20  and  C_21
REMARK                            x       y       z     vdW  Elec       q    Type
REMARK                         _______ _______ _______ _____ _____    ______ ____
ROOT
ATOM      1  C   UNL     1      -0.018   1.503   0.010  0.00  0.00    +0.046 C 
ATOM      2  C   UNL     1       0.002  -0.004   0.002  0.00  0.00    -0.025 A 
ATOM      3  C   UNL     1       0.006  -0.685  -1.194  0.00  0.00    +0.018 A 
ATOM      4  C   UNL     1       0.025  -2.083  -1.201  0.00  0.00    +0.037 A 
ATOM      5  C   UNL     1       0.041  -2.784   0.008  0.00  0.00    +0.015 A 
ATOM      6  C   UNL     1       0.037  -2.098   1.201  0.00  0.00    +0.027 A 
ATOM      7  C   UNL     1       0.023  -0.706   1.204  0.00  0.00    +0.077 A 
ENDROOT
BRANCH   4   8
ATOM      8  C   UNL     1       0.029  -2.815  -2.481  0.00  0.00    +0.244 C 
ATOM      9  O   UNL     1       0.015  -2.204  -3.532  0.00  0.00    -0.270 OA
ATOM     10  N   UNL     1       0.047  -4.163  -2.486  0.00  0.00    -0.308 N 
ATOM     11  H   UNL     1       0.059  -4.651  -1.648  0.00  0.00    +0.149 HD
BRANCH  10  12
ATOM     12  C   UNL     1       0.051  -4.891  -3.758  0.00  0.00    +0.073 C 
ATOM     13  C   UNL     1      -1.397  -5.126  -4.236  0.00  0.00    +0.022 C 
ATOM     14  C   UNL     1      -1.361  -6.537  -4.875  0.00  0.00    +0.002 C 
ATOM     15  C   UNL     1      -0.404  -7.313  -3.937  0.00  0.00    +0.002 C 
ATOM     16  C   UNL     1       0.682  -6.281  -3.567  0.00  0.00    +0.022 C 
ENDBRANCH  10  12
ENDBRANCH   4   8
BRANCH   7  17
ATOM     17  N   UNL     1       0.025  -0.015   2.411  0.00  0.00    -0.102 NA
BRANCH  17  18
ATOM     18  S   UNL     1       0.050  -0.848   3.842  0.00  0.00    +0.065 S 
ATOM     19  O   UNL     1      -1.175  -1.568   3.863  0.00  0.00    -0.153 OA
ATOM     20  O   UNL     1       1.294  -1.534   3.840  0.00  0.00    -0.153 OA
BRANCH  18  21
ATOM     21  C   UNL     1       0.045   0.433   5.127  0.00  0.00    +0.153 C 
ATOM     22  C   UNL     1       1.211   1.395   4.893  0.00  0.00    +0.028 C 
ATOM     23  C   UNL     1       1.207   2.475   5.976  0.00  0.00    +0.002 C 
ATOM     24  C   UNL     1       1.354   1.819   7.351  0.00  0.00    +0.000 C 
ATOM     25  C   UNL     1       0.188   0.857   7.585  0.00  0.00    +0.002 C 
ATOM     26  C   UNL     1       0.192  -0.224   6.501  0.00  0.00    +0.028 C 
ENDBRANCH  18  21
ENDBRANCH  17  18
ENDBRANCH   7  17
TORSDOF 5
