REMARK  Name = ZINC46659118
REMARK  9 active torsions:
REMARK  status: ('A' for Active; 'I' for Inactive)
REMARK    1  A    between atoms: C_1  and  N_2
REMARK    2  A    between atoms: N_5  and  C_15
REMARK    3  A    between atoms: C_6  and  C_9
REMARK    4  A    between atoms: C_15  and  C_16
REMARK    5  A    between atoms: C_16  and  N_17
REMARK    6  A    between atoms: C_18  and  C_20
REMARK    7  A    between atoms: C_20  and  C_21
REMARK    8  A    between atoms: C_21  and  C_22
REMARK    9  A    between atoms: C_22  and  N_23
REMARK                            x       y       z     vdW  Elec       q    Type
REMARK                         _______ _______ _______ _____ _____    ______ ____
ROOT
ATOM      1  N   UNL     1      -2.068  -5.971   1.460  0.00  0.00    -0.314 N 
ATOM      2  C   UNL     1      -3.226  -6.634   1.649  0.00  0.00    +0.213 C 
ATOM      3  O   UNL     1      -4.263  -6.018   1.786  0.00  0.00    -0.276 OA
ATOM      4  H   UNL     1      -1.240  -6.463   1.351  0.00  0.00    +0.149 HD
ENDROOT
BRANCH   1   5
ATOM      5  C   UNL     1      -2.061  -4.506   1.421  0.00  0.00    +0.119 C 
BRANCH   5   6
ATOM      6  C   UNL     1      -0.632  -4.009   1.196  0.00  0.00    +0.103 C 
BRANCH   6  11
ATOM      7  C   UNL     1      -0.018   1.465   0.010  0.00  0.00    -0.096 C 
ATOM      8  N   UNL     1       0.002  -0.004   0.002  0.00  0.00    +0.380 N 
ATOM      9  C   UNL     1      -1.376  -0.512   0.011  0.00  0.00    -0.064 C 
ATOM     10  C   UNL     1      -1.356  -2.042  -0.017  0.00  0.00    +0.066 C 
ATOM     11  N   UNL     1      -0.624  -2.541   1.156  0.00  0.00    -0.297 NA
ATOM     12  C   UNL     1       0.750  -2.020   1.175  0.00  0.00    +0.070 C 
ATOM     13  C   UNL     1       0.713  -0.490   1.192  0.00  0.00    -0.055 C 
ATOM     14  H   UNL     1       0.475  -0.329  -0.828  0.00  0.00    -0.082 HD
BRANCH  12  15
ATOM     15  C   UNL     1       1.461  -2.520   2.405  0.00  0.00    -0.032 A 
ATOM     16  C   UNL     1       0.789  -2.589   3.612  0.00  0.00    +0.005 A 
ATOM     17  C   UNL     1       1.442  -3.048   4.741  0.00  0.00    +0.000 A 
ATOM     18  C   UNL     1       2.765  -3.438   4.664  0.00  0.00    +0.000 A 
ATOM     19  C   UNL     1       3.437  -3.371   3.457  0.00  0.00    +0.000 A 
ATOM     20  C   UNL     1       2.783  -2.916   2.327  0.00  0.00    +0.005 A 
ENDBRANCH  12  15
ENDBRANCH   6  11
ENDBRANCH   5   6
ENDBRANCH   1   5
BRANCH   2  21
ATOM     21  C   UNL     1      -3.234  -8.140   1.690  0.00  0.00    +0.097 C 
BRANCH  21  22
ATOM     22  C   UNL     1      -4.663  -8.637   1.914  0.00  0.00    +0.031 C 
BRANCH  22  23
ATOM     23  C   UNL     1      -4.671 -10.167   1.956  0.00  0.00    +0.129 C 
BRANCH  23  24
ATOM     24  N   UNL     1      -6.040 -10.643   2.171  0.00  0.00    -0.274 N 
ATOM     25  C   UNL     1      -6.648 -10.876   3.404  0.00  0.00    +0.090 A 
ATOM     26  C   UNL     1      -6.217 -10.753   4.716  0.00  0.00    +0.030 A 
ATOM     27  C   UNL     1      -7.074 -11.069   5.752  0.00  0.00    +0.002 A 
ATOM     28  C   UNL     1      -8.359 -11.507   5.484  0.00  0.00    +0.004 A 
ATOM     29  C   UNL     1      -8.795 -11.632   4.179  0.00  0.00    +0.048 A 
ATOM     30  C   UNL     1      -7.943 -11.317   3.132  0.00  0.00    +0.157 A 
ATOM     31  O   UNL     1      -8.086 -11.341   1.785  0.00  0.00    -0.407 OA
ATOM     32  C   UNL     1      -6.943 -10.930   1.213  0.00  0.00    +0.421 A 
ATOM     33  O   UNL     1      -6.752 -10.834   0.016  0.00  0.00    -0.223 OA
ENDBRANCH  23  24
ENDBRANCH  22  23
ENDBRANCH  21  22
ENDBRANCH   2  21
TORSDOF 8
