REMARK  Name = ZINC04109066
REMARK  7 active torsions:
REMARK  status: ('A' for Active; 'I' for Inactive)
REMARK    1  A    between atoms: C_1  and  C_2
REMARK    2  A    between atoms: C_2  and  C_3
REMARK    3  A    between atoms: C_3  and  C_4
REMARK    4  A    between atoms: C_3  and  C_5
REMARK    5  A    between atoms: C_3  and  C_6
REMARK    6  A    between atoms: C_15  and  O_26
REMARK    7  A    between atoms: C_17  and  C_20
REMARK                            x       y       z     vdW  Elec       q    Type
REMARK                         _______ _______ _______ _____ _____    ______ ____
ROOT
ATOM      1  C   UNL     1       0.763  -2.041   1.233  0.00  0.00    -0.000 C 
ATOM      2  C   UNL     1       1.508  -2.550   2.470  0.00  0.00    +0.009 C 
ATOM      3  C   UNL     1       1.324  -4.064   2.602  0.00  0.00    +0.037 C 
ATOM      4  C   UNL     1       1.702  -4.719   1.281  0.00  0.00    -0.023 A 
ATOM      5  C   UNL     1       1.763  -4.001   0.137  0.00  0.00    -0.004 A 
ATOM      6  S   UNL     1       2.234  -5.172  -1.107  0.00  0.00    -0.078 S 
ATOM      7  C   UNL     1       2.349  -6.536  -0.171  0.00  0.00    +0.080 A 
ATOM      8  C   UNL     1       2.020  -6.127   1.127  0.00  0.00    +0.068 A 
ATOM      9  C   UNL     1       2.026  -7.162   2.193  0.00  0.00    +0.220 C 
ATOM     10  N   UNL     1       2.570  -8.315   1.915  0.00  0.00    -0.223 NA
ATOM     11  C   UNL     1       3.228  -8.636   0.655  0.00  0.00    +0.224 C 
ATOM     12  N   UNL     1       2.685  -7.839  -0.460  0.00  0.00    -0.313 N 
ATOM     13  C   UNL     1       1.487  -2.538  -0.027  0.00  0.00    +0.046 C 
ATOM     14  H   UNL     1       2.571  -8.212  -1.348  0.00  0.00    +0.149 HD
ENDROOT
BRANCH  11  15
ATOM     15  C   UNL     1       4.703  -8.355   0.785  0.00  0.00    -0.003 A 
ATOM     16  C   UNL     1       5.451  -7.966  -0.315  0.00  0.00    +0.027 A 
ATOM     17  C   UNL     1       6.802  -7.718  -0.158  0.00  0.00    +0.111 A 
ATOM     18  N   UNL     1       7.378  -7.847   1.021  0.00  0.00    -0.263 NA
ATOM     19  C   UNL     1       6.698  -8.216   2.089  0.00  0.00    +0.111 A 
ATOM     20  C   UNL     1       5.343  -8.475   2.009  0.00  0.00    +0.027 A 
ENDBRANCH  11  15
BRANCH   1  21
ATOM     21  C   UNL     1       0.742  -0.511   1.242  0.00  0.00    -0.032 C 
ATOM     22  C   UNL     1       2.178   0.019   1.231  0.00  0.00    +0.011 C 
ATOM     23  C   UNL     1       0.026  -0.018   2.500  0.00  0.00    +0.011 C 
BRANCH  21  25
ATOM     24  C   UNL     1      -0.019   1.526   0.010  0.00  0.00    +0.004 C 
ATOM     25  C   UNL     1       0.002  -0.004   0.002  0.00  0.00    +0.003 C 
ENDBRANCH  21  25
ENDBRANCH   1  21
BRANCH   9  26
ATOM     26  O   UNL     1       1.486  -6.917   3.409  0.00  0.00    -0.492 OA
ATOM     27  H   UNL     1       1.546  -7.662   4.023  0.00  0.00    +0.294 HD
ENDBRANCH   9  26
TORSDOF 4
