REMARK  Name = ZINC39483311
REMARK  8 active torsions:
REMARK  status: ('A' for Active; 'I' for Inactive)
REMARK    1  A    between atoms: C_1  and  C_2
REMARK    2  A    between atoms: C_2  and  C_3
REMARK    3  A    between atoms: C_3  and  C_4
REMARK    4  A    between atoms: C_19  and  C_20
REMARK    5  A    between atoms: C_22  and  C_28
REMARK    6  A    between atoms: C_24  and  S_26
REMARK    7  A    between atoms: S_26  and  C_27
REMARK    8  A    between atoms: C_33  and  O_34
REMARK                            x       y       z     vdW  Elec       q    Type
REMARK                         _______ _______ _______ _____ _____    ______ ____
ROOT
ATOM      1  C   UNL     1      -0.469  -1.754   0.025  0.00  0.00    -0.021 A 
ATOM      2  C   UNL     1      -0.319  -2.371  -1.196  0.00  0.00    +0.006 A 
ATOM      3  C   UNL     1      -0.248  -3.755  -1.291  0.00  0.00    +0.001 A 
ATOM      4  C   UNL     1      -0.320  -4.540  -0.161  0.00  0.00    +0.015 A 
ATOM      5  C   UNL     1      -0.466  -3.938   1.086  0.00  0.00    +0.065 A 
ATOM      6  C   UNL     1      -0.547  -2.529   1.187  0.00  0.00    +0.082 A 
ATOM      7  N   UNL     1      -0.717  -1.971   2.397  0.00  0.00    -0.229 NA
ATOM      8  C   UNL     1      -0.770  -2.687   3.502  0.00  0.00    +0.140 A 
ATOM      9  N   UNL     1      -0.618  -4.051   3.503  0.00  0.00    -0.293 N 
ATOM     10  C   UNL     1      -0.535  -4.723   2.325  0.00  0.00    +0.262 A 
ATOM     11  O   UNL     1      -0.506  -5.939   2.297  0.00  0.00    -0.267 OA
ATOM     12  C   UNL     1      -0.508  -4.818   4.737  0.00  0.00    +0.127 C 
ATOM     13  C   UNL     1      -1.190  -4.175   5.923  0.00  0.00    +0.026 C 
ATOM     14  C   UNL     1      -0.843  -2.704   6.074  0.00  0.00    +0.040 C 
ATOM     15  C   UNL     1      -1.020  -1.984   4.768  0.00  0.00    -0.004 C 
ATOM     16  C   UNL     1      -1.408  -0.694   4.757  0.00  0.00    +0.015 C 
ENDROOT
BRANCH  16  17
ATOM     17  C   UNL     1      -1.502   0.057   6.020  0.00  0.00    -0.023 A 
ATOM     18  C   UNL     1      -0.614  -0.213   7.063  0.00  0.00    +0.016 A 
ATOM     19  C   UNL     1      -0.707   0.499   8.254  0.00  0.00    -0.013 A 
ATOM     20  C   UNL     1      -1.684   1.481   8.405  0.00  0.00    +0.023 A 
ATOM     21  C   UNL     1      -2.567   1.750   7.368  0.00  0.00    +0.009 A 
ATOM     22  C   UNL     1      -2.477   1.047   6.175  0.00  0.00    +0.022 A 
BRANCH  19  23
ATOM     23  C   UNL     1       0.235   0.214   9.365  0.00  0.00    +0.024 A 
ATOM     24  C   UNL     1       0.442  -1.098   9.786  0.00  0.00    +0.012 A 
ATOM     25  C   UNL     1       1.320  -1.358  10.819  0.00  0.00    +0.001 A 
ATOM     26  C   UNL     1       1.995  -0.321  11.438  0.00  0.00    +0.004 A 
ATOM     27  C   UNL     1       1.796   0.983  11.028  0.00  0.00    +0.046 A 
ATOM     28  C   UNL     1       0.922   1.259   9.989  0.00  0.00    +0.125 A 
BRANCH  28  29
ATOM     29  O   UNL     1       0.731   2.540   9.580  0.00  0.00    -0.506 OA
ATOM     30  H   UNL     1       0.016   2.998  10.044  0.00  0.00    +0.292 HD
ENDBRANCH  28  29
ENDBRANCH  19  23
BRANCH  21  31
ATOM     31  S   UNL     1      -3.802   2.992   7.564  0.00  0.00    -0.129 S 
ATOM     32  C   UNL     1      -4.691   2.981   5.983  0.00  0.00    +0.090 C 
ENDBRANCH  21  31
ENDBRANCH  16  17
BRANCH   1  33
ATOM     33  C   UNL     1      -0.544  -0.252   0.111  0.00  0.00    +0.037 C 
BRANCH  33  35
ATOM     34  C   UNL     1       0.773   1.838   0.488  0.00  0.00    +0.004 C 
ATOM     35  C   UNL     1       0.848   0.312   0.402  0.00  0.00    +0.001 C 
ENDBRANCH  33  35
ENDBRANCH   1  33
TORSDOF 6
