REMARK  Name = ZINC13456538
REMARK  13 active torsions:
REMARK  status: ('A' for Active; 'I' for Inactive)
REMARK    1  A    between atoms: C_3  and  C_31
REMARK    2  A    between atoms: C_5  and  O_7
REMARK    3  A    between atoms: O_7  and  C_8
REMARK    4  A    between atoms: C_8  and  C_9
REMARK    5  A    between atoms: C_9  and  C_10
REMARK    6  A    between atoms: C_10  and  N_11
REMARK    7  A    between atoms: N_13  and  C_14
REMARK    8  A    between atoms: C_14  and  C_15
REMARK    9  A    between atoms: C_15  and  N_16
REMARK   10  A    between atoms: C_17  and  C_19
REMARK   11  A    between atoms: C_22  and  N_25
REMARK   12  A    between atoms: N_28  and  C_29
REMARK   13  A    between atoms: C_31  and  N_32
REMARK                            x       y       z     vdW  Elec       q    Type
REMARK                         _______ _______ _______ _____ _____    ______ ____
ROOT
ATOM      1  N   UNL     1      -0.975  -6.355  -0.119  0.00  0.00    -0.355 N 
ATOM      2  C   UNL     1      -2.025  -7.242  -0.134  0.00  0.00    +0.206 C 
ATOM      3  N   UNL     1      -1.799  -8.520  -0.025  0.00  0.00    -0.250 NA
ATOM      4  N   UNL     1      -3.318  -6.778  -0.264  0.00  0.00    -0.263 N 
ATOM      5  H   UNL     1      -0.066  -6.681  -0.027  0.00  0.00    +0.162 HD
ATOM      6  H   UNL     1      -4.063  -7.396  -0.199  0.00  0.00    +0.181 HD
ENDROOT
BRANCH   4   7
ATOM      7  C   UNL     1      -3.546  -5.461  -0.482  0.00  0.00    +0.184 C 
ATOM      8  N   UNL     1      -3.738  -4.356  -0.665  0.00  0.00    -0.171 NA
ENDBRANCH   4   7
BRANCH   1   9
ATOM      9  C   UNL     1      -1.229  -4.917  -0.241  0.00  0.00    +0.119 C 
BRANCH   9  10
ATOM     10  C   UNL     1       0.099  -4.159  -0.196  0.00  0.00    +0.062 C 
BRANCH  10  11
ATOM     11  C   UNL     1      -0.166  -2.658  -0.323  0.00  0.00    +0.231 C 
BRANCH  11  12
ATOM     12  O   UNL     1       1.075  -1.950  -0.281  0.00  0.00    -0.492 OA
BRANCH  12  17
ATOM     13  C   UNL     1      -0.267   1.415  -0.623  0.00  0.00    +0.004 A 
ATOM     14  C   UNL     1       0.897   2.161  -0.590  0.00  0.00    +0.002 A 
ATOM     15  C   UNL     1       2.120   1.531  -0.453  0.00  0.00    -0.060 A 
ATOM     16  C   UNL     1       2.182   0.155  -0.349  0.00  0.00    +0.047 A 
ATOM     17  C   UNL     1       1.016  -0.596  -0.383  0.00  0.00    +0.121 A 
ATOM     18  C   UNL     1      -0.210   0.039  -0.520  0.00  0.00    +0.045 A 
BRANCH  15  19
ATOM     19  C   UNL     1       3.387   2.347  -0.416  0.00  0.00    -0.043 C 
BRANCH  19  20
ATOM     20  N   UNL     1       3.695   2.711   0.973  0.00  0.00    +0.382 N 
ATOM     21  C   UNL     1       2.641   3.591   1.492  0.00  0.00    -0.078 C 
ATOM     22  C   UNL     1       2.914   3.909   2.964  0.00  0.00    -0.019 C 
ATOM     23  C   UNL     1       4.272   4.607   3.086  0.00  0.00    -0.004 C 
ATOM     24  C   UNL     1       5.353   3.712   2.474  0.00  0.00    -0.019 C 
ATOM     25  C   UNL     1       4.989   3.402   1.021  0.00  0.00    -0.078 C 
ATOM     26  H   UNL     1       3.740   1.876   1.537  0.00  0.00    -0.081 HD
ENDBRANCH  19  20
ENDBRANCH  15  19
ENDBRANCH  12  17
ENDBRANCH  11  12
ENDBRANCH  10  11
ENDBRANCH   9  10
ENDBRANCH   1   9
BRANCH   3  27
ATOM     27  C   UNL     1      -2.921  -9.454   0.097  0.00  0.00    +0.164 C 
BRANCH  27  28
ATOM     28  C   UNL     1      -2.973 -10.353  -1.140  0.00  0.00    +0.128 C 
BRANCH  28  29
ATOM     29  N   UNL     1      -4.095 -11.287  -1.018  0.00  0.00    -0.310 N 
ATOM     30  C   UNL     1      -4.337 -12.181  -1.997  0.00  0.00    +0.244 C 
ATOM     31  O   UNL     1      -3.625 -12.213  -2.982  0.00  0.00    -0.270 OA
ATOM     32  H   UNL     1      -4.664 -11.262  -0.232  0.00  0.00    +0.149 HD
BRANCH  30  33
ATOM     33  C   UNL     1      -5.468 -13.123  -1.874  0.00  0.00    +0.037 A 
ATOM     34  C   UNL     1      -6.281 -13.069  -0.736  0.00  0.00    +0.015 A 
ATOM     35  C   UNL     1      -7.332 -13.920  -0.589  0.00  0.00    +0.031 A 
ATOM     36  C   UNL     1      -7.607 -14.903  -1.641  0.00  0.00    +0.100 A 
ATOM     37  C   UNL     1      -6.734 -14.930  -2.818  0.00  0.00    +0.031 A 
ATOM     38  C   UNL     1      -5.704 -14.044  -2.901  0.00  0.00    +0.015 A 
BRANCH  36  39
ATOM     39  N   UNL     1      -8.619 -15.746  -1.531  0.00  0.00    -0.072 NA
ATOM     40  N   UNL     1      -8.819 -16.494  -2.346  0.00  0.00    -0.162 NA
ATOM     41  N   UNL     1      -9.014 -17.226  -3.143  0.00  0.00    +0.068 NA
ENDBRANCH  36  39
ENDBRANCH  30  33
ENDBRANCH  28  29
ENDBRANCH  27  28
ENDBRANCH   3  27
TORSDOF 13
