REMARK  Name = ZINC24922090
REMARK  11 active torsions:
REMARK  status: ('A' for Active; 'I' for Inactive)
REMARK    1  A    between atoms: C_1  and  C_2
REMARK    2  A    between atoms: C_2  and  C_3
REMARK    3  A    between atoms: C_3  and  C_4
REMARK    4  A    between atoms: C_3  and  C_5
REMARK    5  A    between atoms: C_3  and  C_6
REMARK    6  A    between atoms: N_14  and  C_18
REMARK    7  A    between atoms: C_18  and  C_19
REMARK    8  A    between atoms: N_21  and  C_22
REMARK    9  A    between atoms: C_24  and  C_29
REMARK   10  A    between atoms: C_27  and  C_28
REMARK   11  A    between atoms: N_31  and  C_32
REMARK                            x       y       z     vdW  Elec       q    Type
REMARK                         _______ _______ _______ _____ _____    ______ ____
ROOT
ATOM      1  C   UNL     1      -6.745   8.934  -2.451  0.00  0.00    -0.005 C 
ATOM      2  C   UNL     1      -5.611   7.964  -2.115  0.00  0.00    +0.006 C 
ATOM      3  C   UNL     1      -5.543   7.766  -0.598  0.00  0.00    +0.035 C 
ATOM      4  C   UNL     1      -6.873   7.215  -0.096  0.00  0.00    +0.113 C 
ATOM      5  C   UNL     1      -8.016   8.163  -0.443  0.00  0.00    +0.035 C 
ATOM      6  C   UNL     1      -8.075   8.359  -1.960  0.00  0.00    +0.006 C 
ATOM      7  C   UNL     1      -7.130   5.845  -0.681  0.00  0.00    +0.247 C 
ATOM      8  O   UNL     1      -7.249   5.557  -1.852  0.00  0.00    -0.273 OA
ATOM      9  N   UNL     1      -7.197   5.009   0.376  0.00  0.00    -0.215 N 
ATOM     10  C   UNL     1      -7.026   5.662   1.533  0.00  0.00    +0.310 C 
ATOM     11  O   UNL     1      -7.050   5.124   2.622  0.00  0.00    -0.252 OA
ATOM     12  N   UNL     1      -6.820   6.980   1.353  0.00  0.00    -0.285 N 
ATOM     13  H   UNL     1      -6.638   7.820   2.039  0.00  0.00    +0.151 HD
ENDROOT
BRANCH   1  14
ATOM     14  C   UNL     1      -6.807   9.141  -3.966  0.00  0.00    -0.032 C 
ATOM     15  C   UNL     1      -5.478   9.719  -4.456  0.00  0.00    +0.011 C 
ATOM     16  C   UNL     1      -7.064   7.798  -4.653  0.00  0.00    +0.011 C 
BRANCH  14  18
ATOM     17  C   UNL     1      -8.003  10.318  -5.817  0.00  0.00    +0.004 C 
ATOM     18  C   UNL     1      -7.941  10.111  -4.302  0.00  0.00    +0.003 C 
ENDBRANCH  14  18
ENDBRANCH   1  14
BRANCH   9  19
ATOM     19  C   UNL     1      -7.435   3.567   0.272  0.00  0.00    +0.214 C 
BRANCH  19  20
ATOM     20  C   UNL     1      -6.116   2.848   0.148  0.00  0.00    +0.235 C 
ATOM     21  O   UNL     1      -5.080   3.478   0.147  0.00  0.00    -0.274 OA
ATOM     22  N   UNL     1      -6.088   1.505   0.039  0.00  0.00    -0.284 N 
ATOM     23  H   UNL     1      -7.029   0.940  -0.035  0.00  0.00    +0.155 HD
BRANCH  22  24
ATOM     24  C   UNL     1      -4.863   0.830   0.019  0.00  0.00    +0.037 A 
ATOM     25  C   UNL     1      -3.760   1.412  -0.588  0.00  0.00    +0.036 A 
ATOM     26  C   UNL     1      -2.541   0.735  -0.605  0.00  0.00    +0.038 A 
ATOM     27  C   UNL     1      -2.440  -0.526  -0.016  0.00  0.00    +0.013 A 
ATOM     28  C   UNL     1      -3.542  -1.095   0.591  0.00  0.00    +0.006 A 
ATOM     29  C   UNL     1      -4.750  -0.423   0.608  0.00  0.00    -0.029 A 
ATOM     30  C   UNL     1      -5.950  -1.053   1.267  0.00  0.00    +0.045 C 
BRANCH  26  31
ATOM     31  C   UNL     1      -1.361   1.349  -1.251  0.00  0.00    +0.244 C 
ATOM     32  O   UNL     1      -1.452   2.445  -1.768  0.00  0.00    -0.270 OA
ATOM     33  N   UNL     1      -0.184   0.693  -1.266  0.00  0.00    -0.314 N 
ATOM     34  C   UNL     1       0.984   1.298  -1.911  0.00  0.00    +0.128 C 
ATOM     35  H   UNL     1      -0.100  -0.297  -0.794  0.00  0.00    +0.149 HD
ENDBRANCH  26  31
ENDBRANCH  22  24
ENDBRANCH  19  20
ENDBRANCH   9  19
TORSDOF 6
