REMARK  Name = ZINC14475651
REMARK  4 active torsions:
REMARK  status: ('A' for Active; 'I' for Inactive)
REMARK    1  A    between atoms: C_3  and  O_27
REMARK    2  A    between atoms: C_4  and  C_10
REMARK    3  A    between atoms: C_6  and  N_7
REMARK    4  A    between atoms: C_21  and  O_26
REMARK                            x       y       z     vdW  Elec       q    Type
REMARK                         _______ _______ _______ _____ _____    ______ ____
ROOT
ATOM      1  C   UNL     1       1.264   2.111   0.001  0.00  0.00    +0.108 C 
ATOM      2  C   UNL     1       2.038   1.487   1.166  0.00  0.00    +0.029 C 
ATOM      3  C   UNL     1       3.511   1.980   1.061  0.00  0.00    +0.033 C 
ATOM      4  C   UNL     1       4.123   1.043   0.039  0.00  0.00    -0.030 C 
ATOM      5  C   UNL     1       3.427  -0.065  -0.043  0.00  0.00    -0.023 C 
ATOM      6  C   UNL     1       2.255  -0.017   0.907  0.00  0.00    +0.049 C 
ATOM      7  C   UNL     1       1.052  -0.689   0.327  0.00  0.00    -0.016 A 
ATOM      8  C   UNL     1       1.021  -2.077   0.283  0.00  0.00    +0.051 A 
ATOM      9  C   UNL     1      -0.074  -2.739  -0.244  0.00  0.00    +0.117 A 
ATOM     10  C   UNL     1      -1.154  -2.020  -0.735  0.00  0.00    +0.047 A 
ATOM     11  C   UNL     1      -1.131  -0.641  -0.695  0.00  0.00    +0.027 A 
ATOM     12  C   UNL     1      -0.031   0.022  -0.166  0.00  0.00    +0.032 A 
ATOM     13  N   UNL     1      -0.024   1.424  -0.136  0.00  0.00    -0.336 N 
ATOM     14  H   UNL     1      -0.953   2.008  -0.211  0.00  0.00    +0.147 HD
ENDROOT
BRANCH   1  18
ATOM     15  C   UNL     1       0.598   6.261   0.784  0.00  0.00    +0.036 A 
ATOM     16  C   UNL     1      -0.120   5.307   1.479  0.00  0.00    +0.048 A 
ATOM     17  C   UNL     1       0.091   3.960   1.224  0.00  0.00    +0.122 A 
ATOM     18  C   UNL     1       1.030   3.574   0.278  0.00  0.00    +0.017 A 
ATOM     19  C   UNL     1       1.745   4.532  -0.414  0.00  0.00    +0.041 A 
ATOM     20  C   UNL     1       1.529   5.874  -0.162  0.00  0.00    +0.127 A 
BRANCH  20  21
ATOM     21  N   UNL     1       2.297   6.898  -0.905  0.00  0.00    +0.056 N 
ATOM     22  O   UNL     1       3.118   6.558  -1.738  0.00  0.00    -0.126 OA
ATOM     23  O   UNL     1       2.108   8.081  -0.683  0.00  0.00    -0.126 OA
ENDBRANCH  20  21
BRANCH  17  24
ATOM     24  O   UNL     1      -0.618   3.019   1.902  0.00  0.00    -0.506 OA
ATOM     25  H   UNL     1      -0.450   1.951   1.699  0.00  0.00    +0.292 HD
ENDBRANCH  17  24
ENDBRANCH   1  18
BRANCH   9  26
ATOM     26  O   UNL     1      -0.091  -4.099  -0.280  0.00  0.00    -0.507 OA
ATOM     27  H   UNL     1      -0.961  -4.627  -0.698  0.00  0.00    +0.292 HD
ENDBRANCH   9  26
TORSDOF 4
