REMARK  Name = ZINC07920445
REMARK  8 active torsions:
REMARK  status: ('A' for Active; 'I' for Inactive)
REMARK    1  A    between atoms: C_1  and  C_2
REMARK    2  A    between atoms: C_2  and  O_3
REMARK    3  A    between atoms: O_3  and  C_4
REMARK    4  A    between atoms: C_9  and  N_10
REMARK    5  A    between atoms: C_11  and  C_13
REMARK    6  A    between atoms: C_18  and  S_19
REMARK    7  A    between atoms: S_19  and  C_20
REMARK    8  A    between atoms: C_20  and  C_21
REMARK                            x       y       z     vdW  Elec       q    Type
REMARK                         _______ _______ _______ _____ _____    ______ ____
ROOT
ATOM      1  N   UNL     1      -3.902  -1.566   0.030  0.00  0.00    -0.279 N 
ATOM      2  C   UNL     1      -5.137  -2.098  -0.062  0.00  0.00    +0.249 C 
ATOM      3  O   UNL     1      -5.280  -3.306  -0.067  0.00  0.00    -0.270 OA
ATOM      4  H   UNL     1      -3.793  -0.606   0.115  0.00  0.00    +0.155 HD
ENDROOT
BRANCH   1  10
ATOM      5  C   UNL     1      -1.584  -1.981   0.589  0.00  0.00    +0.142 A 
ATOM      6  C   UNL     1      -0.475  -2.812   0.564  0.00  0.00    +0.047 A 
ATOM      7  C   UNL     1      -0.554  -4.052  -0.043  0.00  0.00    +0.004 A 
ATOM      8  C   UNL     1      -1.736  -4.466  -0.628  0.00  0.00    +0.002 A 
ATOM      9  C   UNL     1      -2.846  -3.643  -0.609  0.00  0.00    +0.027 A 
ATOM     10  C   UNL     1      -2.777  -2.400   0.004  0.00  0.00    +0.076 A 
BRANCH   5  11
ATOM     11  O   UNL     1      -1.508  -0.762   1.186  0.00  0.00    -0.490 OA
BRANCH  11  13
ATOM     12  C   UNL     1      -0.361   0.995   2.384  0.00  0.00    +0.048 C 
ATOM     13  C   UNL     1      -0.253  -0.399   1.764  0.00  0.00    +0.226 C 
ENDBRANCH  11  13
ENDBRANCH   5  11
ENDBRANCH   1  10
BRANCH   2  14
ATOM     14  C   UNL     1      -6.314  -1.216  -0.158  0.00  0.00    +0.050 A 
ATOM     15  C   UNL     1      -6.154   0.172  -0.159  0.00  0.00    +0.014 A 
ATOM     16  C   UNL     1      -7.258   0.991  -0.248  0.00  0.00    +0.001 A 
ATOM     17  C   UNL     1      -8.530   0.446  -0.337  0.00  0.00    +0.001 A 
ATOM     18  C   UNL     1      -8.705  -0.922  -0.338  0.00  0.00    +0.015 A 
ATOM     19  C   UNL     1      -7.603  -1.765  -0.255  0.00  0.00    +0.020 A 
BRANCH  19  20
ATOM     20  S   UNL     1      -7.822  -3.513  -0.264  0.00  0.00    -0.122 S 
BRANCH  20  21
ATOM     21  C   UNL     1      -9.618  -3.729  -0.401  0.00  0.00    +0.106 C 
BRANCH  21  22
ATOM     22  C   UNL     1      -9.953  -5.222  -0.420  0.00  0.00    +0.128 C 
ATOM     23  C   UNL     1     -11.480  -5.429  -0.572  0.00  0.00    +0.034 C 
ATOM     24  C   UNL     1     -11.524  -6.849  -1.201  0.00  0.00    +0.031 C 
ATOM     25  C   UNL     1     -10.255  -6.857  -2.080  0.00  0.00    +0.160 C 
ATOM     26  O   UNL     1      -9.370  -5.849  -1.573  0.00  0.00    -0.376 OA
ENDBRANCH  21  22
ENDBRANCH  20  21
ENDBRANCH  19  20
ENDBRANCH   2  14
TORSDOF 7
