REMARK  Name = ZINC60135685
REMARK  7 active torsions:
REMARK  status: ('A' for Active; 'I' for Inactive)
REMARK    1  A    between atoms: C_1  and  C_2
REMARK    2  A    between atoms: C_2  and  C_3
REMARK    3  A    between atoms: C_3  and  N_4
REMARK    4  A    between atoms: C_13  and  C_15
REMARK    5  A    between atoms: N_17  and  N_18
REMARK    6  A    between atoms: C_19  and  C_21
REMARK    7  A    between atoms: C_25  and  C_27
REMARK                            x       y       z     vdW  Elec       q    Type
REMARK                         _______ _______ _______ _____ _____    ______ ____
ROOT
ATOM      1  C   UNL     1      -1.456  -4.532   2.536  0.00  0.00    +0.281 C 
ATOM      2  O   UNL     1      -1.542  -5.743   2.590  0.00  0.00    -0.267 OA
ATOM      3  N   UNL     1      -2.413  -3.763   3.093  0.00  0.00    -0.229 N 
ATOM      4  H   UNL     1      -2.344  -2.796   3.050  0.00  0.00    +0.173 HD
ENDROOT
BRANCH   1  14
ATOM      5  N   UNL     1       0.762  -1.976   1.234  0.00  0.00    -0.228 N 
ATOM      6  C   UNL     1       1.797  -2.597   0.631  0.00  0.00    +0.275 A 
ATOM      7  O   UNL     1       2.689  -1.955   0.108  0.00  0.00    -0.266 OA
ATOM      8  C   UNL     1       1.821  -4.066   0.621  0.00  0.00    +0.050 A 
ATOM      9  C   UNL     1       2.842  -4.801   0.026  0.00  0.00    +0.014 A 
ATOM     10  C   UNL     1       2.792  -6.178   0.059  0.00  0.00    +0.001 A 
ATOM     11  C   UNL     1       1.736  -6.834   0.677  0.00  0.00    +0.001 A 
ATOM     12  C   UNL     1       0.714  -6.125   1.272  0.00  0.00    +0.011 A 
ATOM     13  C   UNL     1       0.746  -4.734   1.250  0.00  0.00    +0.020 A 
ATOM     14  C   UNL     1      -0.303  -3.903   1.861  0.00  0.00    +0.155 A 
ATOM     15  N   UNL     1      -0.200  -2.597   1.803  0.00  0.00    -0.163 NA
BRANCH   5  16
ATOM     16  C   UNL     1       0.742  -0.511   1.242  0.00  0.00    +0.147 C 
BRANCH  16  18
ATOM     17  C   UNL     1      -0.019   1.526   0.010  0.00  0.00    +0.005 C 
ATOM     18  C   UNL     1       0.002  -0.004   0.002  0.00  0.00    +0.020 C 
ENDBRANCH  16  18
ENDBRANCH   5  16
ENDBRANCH   1  14
BRANCH   3  19
ATOM     19  N   UNL     1      -3.507  -4.359   3.733  0.00  0.00    -0.230 N 
ATOM     20  C   UNL     1      -4.463  -3.590   4.290  0.00  0.00    +0.260 C 
ATOM     21  O   UNL     1      -4.377  -2.379   4.236  0.00  0.00    -0.269 OA
ATOM     22  H   UNL     1      -3.575  -5.326   3.776  0.00  0.00    +0.173 HD
BRANCH  20  23
ATOM     23  C   UNL     1      -5.617  -4.220   4.965  0.00  0.00    +0.039 A 
ATOM     24  C   UNL     1      -5.715  -5.611   5.034  0.00  0.00    +0.016 A 
ATOM     25  C   UNL     1      -6.793  -6.193   5.665  0.00  0.00    +0.039 A 
ATOM     26  C   UNL     1      -7.779  -5.399   6.232  0.00  0.00    +0.135 A 
ATOM     27  C   UNL     1      -7.686  -4.018   6.167  0.00  0.00    +0.091 A 
ATOM     28  C   UNL     1      -6.609  -3.425   5.543  0.00  0.00    +0.028 A 
ATOM     29  F   UNL     1      -8.834  -5.975   6.849  0.00  0.00    -0.205 F 
BRANCH  27  30
ATOM     30  C   UNL     1      -8.762  -3.162   6.785  0.00  0.00    +0.420 C 
ATOM     31  F   UNL     1      -8.450  -1.811   6.594  0.00  0.00    -0.166 F 
ATOM     32  F   UNL     1      -9.990  -3.447   6.181  0.00  0.00    -0.166 F 
ATOM     33  F   UNL     1      -8.842  -3.432   8.155  0.00  0.00    -0.166 F 
ENDBRANCH  27  30
ENDBRANCH  20  23
ENDBRANCH   3  19
TORSDOF 6
