REMARK  Name = ZINC05296111
REMARK  9 active torsions:
REMARK  status: ('A' for Active; 'I' for Inactive)
REMARK    1  A    between atoms: C_1  and  C_2
REMARK    2  A    between atoms: C_2  and  C_3
REMARK    3  A    between atoms: C_2  and  C_4
REMARK    4  A    between atoms: C_2  and  C_5
REMARK    5  A    between atoms: C_5  and  C_6
REMARK    6  A    between atoms: C_12  and  C_16
REMARK    7  A    between atoms: N_18  and  N_19
REMARK    8  A    between atoms: C_20  and  C_21
REMARK    9  A    between atoms: C_26  and  O_27
REMARK                            x       y       z     vdW  Elec       q    Type
REMARK                         _______ _______ _______ _____ _____    ______ ____
ROOT
ATOM      1  C   UNL     1       1.687  -0.127  -1.933  0.00  0.00    -0.006 C 
ATOM      2  C   UNL     1       1.424   1.284  -2.468  0.00  0.00    +0.010 C 
ATOM      3  C   UNL     1       2.759   2.004  -2.701  0.00  0.00    +0.055 C 
ATOM      4  C   UNL     1       3.652   1.097  -3.508  0.00  0.00    +0.040 A 
ATOM      5  C   UNL     1       3.440  -0.233  -3.660  0.00  0.00    +0.006 A 
ATOM      6  C   UNL     1       4.484  -0.700  -4.476  0.00  0.00    +0.152 A 
ATOM      7  N   UNL     1       5.242   0.346  -4.757  0.00  0.00    -0.169 NA
ATOM      8  N   UNL     1       4.765   1.403  -4.196  0.00  0.00    -0.281 N 
ATOM      9  H   UNL     1       5.152   2.290  -4.260  0.00  0.00    +0.189 HD
ATOM     10  C   UNL     1       2.296  -0.991  -3.045  0.00  0.00    +0.043 C 
ENDROOT
BRANCH   6  11
ATOM     11  C   UNL     1       4.695  -2.089  -4.931  0.00  0.00    +0.284 C 
ATOM     12  O   UNL     1       3.917  -2.963  -4.596  0.00  0.00    -0.267 OA
ATOM     13  N   UNL     1       5.748  -2.389  -5.716  0.00  0.00    -0.202 N 
ATOM     14  H   UNL     1       6.368  -1.692  -5.982  0.00  0.00    +0.178 HD
BRANCH  13  15
ATOM     15  N   UNL     1       5.948  -3.707  -6.147  0.00  0.00    -0.187 NA
ATOM     16  C   UNL     1       6.963  -3.995  -6.903  0.00  0.00    +0.142 C 
BRANCH  16  17
ATOM     17  C   UNL     1       7.173  -5.382  -7.357  0.00  0.00    +0.036 A 
ATOM     18  C   UNL     1       8.267  -5.698  -8.166  0.00  0.00    +0.013 A 
ATOM     19  C   UNL     1       8.458  -6.997  -8.587  0.00  0.00    +0.001 A 
ATOM     20  C   UNL     1       7.569  -7.990  -8.211  0.00  0.00    +0.004 A 
ATOM     21  C   UNL     1       6.483  -7.690  -7.412  0.00  0.00    +0.046 A 
ATOM     22  C   UNL     1       6.280  -6.391  -6.975  0.00  0.00    +0.125 A 
BRANCH  22  23
ATOM     23  O   UNL     1       5.215  -6.097  -6.184  0.00  0.00    -0.506 OA
ATOM     24  H   UNL     1       4.418  -5.851  -6.673  0.00  0.00    +0.292 HD
ENDBRANCH  22  23
ENDBRANCH  16  17
ENDBRANCH  13  15
ENDBRANCH   6  11
BRANCH   1  25
ATOM     25  C   UNL     1       0.369  -0.749  -1.467  0.00  0.00    +0.010 C 
BRANCH  25  27
ATOM     26  C   UNL     1       1.514  -1.470   0.633  0.00  0.00    +0.010 C 
ATOM     27  C   UNL     1       0.663  -1.937  -0.550  0.00  0.00    -0.037 C 
ATOM     28  C   UNL     1       1.421  -3.011  -1.332  0.00  0.00    +0.010 C 
ATOM     29  C   UNL     1      -0.654  -2.519  -0.031  0.00  0.00    +0.010 C 
ENDBRANCH  25  27
ENDBRANCH   1  25
TORSDOF 6
