REMARK  Name = ZINC63437505
REMARK  10 active torsions:
REMARK  status: ('A' for Active; 'I' for Inactive)
REMARK    1  A    between atoms: C_1  and  C_2
REMARK    2  A    between atoms: C_4  and  S_12
REMARK    3  A    between atoms: S_12  and  C_13
REMARK    4  A    between atoms: C_13  and  C_14
REMARK    5  A    between atoms: C_14  and  N_15
REMARK    6  A    between atoms: C_16  and  C_18
REMARK    7  A    between atoms: C_21  and  C_24
REMARK    8  A    between atoms: C_24  and  C_25
REMARK    9  A    between atoms: C_24  and  C_26
REMARK   10  A    between atoms: C_24  and  C_27
REMARK                            x       y       z     vdW  Elec       q    Type
REMARK                         _______ _______ _______ _____ _____    ______ ____
ROOT
ATOM      1  C   UNL     1      -5.112  -1.300  -1.533  0.00  0.00    +0.115 C 
ENDROOT
BRANCH   1   2
ATOM      2  N   UNL     1      -6.215  -2.144  -1.067  0.00  0.00    -0.311 N 
ATOM      3  C   UNL     1      -7.333  -2.263  -1.812  0.00  0.00    +0.244 C 
ATOM      4  O   UNL     1      -7.425  -1.670  -2.869  0.00  0.00    -0.270 OA
ATOM      5  H   UNL     1      -6.142  -2.617  -0.224  0.00  0.00    +0.149 HD
BRANCH   3   6
ATOM      6  C   UNL     1      -8.447  -3.114  -1.342  0.00  0.00    +0.037 A 
ATOM      7  C   UNL     1      -8.347  -3.791  -0.126  0.00  0.00    +0.013 A 
ATOM      8  C   UNL     1      -9.390  -4.583   0.307  0.00  0.00    +0.005 A 
ATOM      9  C   UNL     1     -10.534  -4.707  -0.462  0.00  0.00    -0.042 A 
ATOM     10  C   UNL     1     -10.639  -4.039  -1.669  0.00  0.00    +0.005 A 
ATOM     11  C   UNL     1      -9.605  -3.239  -2.111  0.00  0.00    +0.013 A 
BRANCH   9  12
ATOM     12  C   UNL     1     -11.669  -5.575   0.016  0.00  0.00    -0.013 C 
ATOM     13  C   UNL     1     -12.180  -5.050   1.360  0.00  0.00    +0.015 C 
ATOM     14  C   UNL     1     -12.804  -5.541  -1.009  0.00  0.00    +0.015 C 
ATOM     15  C   UNL     1     -11.176  -7.013   0.184  0.00  0.00    +0.015 C 
ENDBRANCH   9  12
ENDBRANCH   3   6
ENDBRANCH   1   2
BRANCH   1  16
ATOM     16  C   UNL     1      -3.974  -1.340  -0.510  0.00  0.00    +0.093 C 
BRANCH  16  17
ATOM     17  S   UNL     1      -2.607  -0.295  -1.087  0.00  0.00    -0.125 S 
BRANCH  17  20
ATOM     18  C   UNL     1       0.005   1.499  -0.001  0.00  0.00    +0.036 C 
ATOM     19  C   UNL     1       0.013  -0.031  -0.019  0.00  0.00    +0.113 C 
ATOM     20  C   UNL     1      -1.403  -0.561   0.025  0.00  0.00    +0.016 C 
ATOM     21  C   UNL     1      -1.486  -1.317   1.190  0.00  0.00    +0.009 A 
ATOM     22  C   UNL     1      -2.539  -2.055   1.773  0.00  0.00    +0.011 A 
ATOM     23  C   UNL     1      -2.334  -2.712   2.944  0.00  0.00    +0.001 A 
ATOM     24  C   UNL     1      -1.099  -2.678   3.593  0.00  0.00    +0.002 A 
ATOM     25  C   UNL     1      -0.044  -1.989   3.090  0.00  0.00    +0.026 A 
ATOM     26  C   UNL     1      -0.183  -1.279   1.870  0.00  0.00    +0.044 A 
ATOM     27  N   UNL     1       0.676  -0.547   1.183  0.00  0.00    -0.377 N 
ATOM     28  H   UNL     1       1.598  -0.377   1.434  0.00  0.00    +0.160 HD
ENDBRANCH  17  20
ENDBRANCH  16  17
ENDBRANCH   1  16
TORSDOF 6
