REMARK  Name = ZINC48374141
REMARK  10 active torsions:
REMARK  status: ('A' for Active; 'I' for Inactive)
REMARK    1  A    between atoms: C_1  and  C_2
REMARK    2  A    between atoms: C_2  and  C_4
REMARK    3  A    between atoms: C_2  and  N_21
REMARK    4  A    between atoms: C_4  and  N_5
REMARK    5  A    between atoms: N_5  and  S_6
REMARK    6  A    between atoms: S_6  and  C_9
REMARK    7  A    between atoms: C_9  and  C_10
REMARK    8  A    between atoms: C_15  and  C_16
REMARK    9  A    between atoms: C_15  and  C_17
REMARK   10  A    between atoms: N_24  and  C_27
REMARK                            x       y       z     vdW  Elec       q    Type
REMARK                         _______ _______ _______ _____ _____    ______ ____
ROOT
ATOM      1  C   UNL     1       0.677  -0.646  -1.336  0.00  0.00    +0.090 C 
ENDROOT
BRANCH   1   3
ATOM      2  C   UNL     1      -0.049   1.213   0.167  0.00  0.00    -0.012 C 
ATOM      3  C   UNL     1       0.061  -0.306   0.022  0.00  0.00    -0.056 C 
BRANCH   3   4
ATOM      4  N   UNL     1       0.913  -0.840   1.093  0.00  0.00    +0.384 N 
ATOM      5  C   UNL     1       2.212  -0.155   1.071  0.00  0.00    -0.059 C 
ATOM      6  C   UNL     1       3.141  -0.788   2.111  0.00  0.00    +0.086 C 
ATOM      7  N   UNL     1       2.464  -0.763   3.417  0.00  0.00    -0.333 N 
ATOM      8  C   UNL     1       1.090  -1.283   3.496  0.00  0.00    +0.086 C 
ATOM      9  C   UNL     1       0.258  -0.626   2.390  0.00  0.00    -0.059 C 
ATOM     10  H   UNL     1       1.055  -1.828   0.948  0.00  0.00    -0.081 HD
BRANCH   7  11
ATOM     11  C   UNL     1       3.107  -0.260   4.550  0.00  0.00    +0.030 A 
ATOM     12  C   UNL     1       2.414  -0.137   5.748  0.00  0.00    +0.023 A 
ATOM     13  C   UNL     1       3.053   0.360   6.866  0.00  0.00    +0.002 A 
ATOM     14  C   UNL     1       4.383   0.735   6.795  0.00  0.00    +0.000 A 
ATOM     15  C   UNL     1       5.076   0.614   5.605  0.00  0.00    +0.002 A 
ATOM     16  C   UNL     1       4.444   0.112   4.484  0.00  0.00    +0.023 A 
ENDBRANCH   7  11
ENDBRANCH   3   4
ENDBRANCH   1   3
BRANCH   1  17
ATOM     17  N   UNL     1       0.871  -2.094  -1.437  0.00  0.00    -0.196 NA
ATOM     18  H   UNL     1       0.824  -2.646  -0.641  0.00  0.00    +0.148 HD
BRANCH  17  19
ATOM     19  S   UNL     1       1.167  -2.790  -2.910  0.00  0.00    +0.030 S 
ATOM     20  O   UNL     1       1.275  -4.181  -2.640  0.00  0.00    -0.158 OA
ATOM     21  O   UNL     1       0.141  -2.294  -3.759  0.00  0.00    -0.158 OA
BRANCH  19  22
ATOM     22  C   UNL     1       2.776  -2.127  -3.423  0.00  0.00    +0.200 C 
BRANCH  22  23
ATOM     23  C   UNL     1       3.156  -2.707  -4.787  0.00  0.00    +0.055 C 
ATOM     24  C   UNL     1       2.196  -2.360  -5.965  0.00  0.00    +0.017 C 
ATOM     25  C   UNL     1       3.040  -2.598  -7.238  0.00  0.00    +0.005 C 
ATOM     26  C   UNL     1       4.426  -3.075  -6.704  0.00  0.00    +0.003 C 
ATOM     27  C   UNL     1       4.529  -2.235  -5.381  0.00  0.00    -0.018 C 
ATOM     28  C   UNL     1       4.550  -0.730  -5.655  0.00  0.00    +0.012 C 
ATOM     29  C   UNL     1       5.712  -2.671  -4.514  0.00  0.00    +0.012 C 
ATOM     30  C   UNL     1       4.149  -4.499  -6.131  0.00  0.00    +0.079 C 
ATOM     31  C   UNL     1       3.328  -4.232  -4.840  0.00  0.00    +0.142 C 
ATOM     32  O   UNL     1       2.896  -5.045  -4.059  0.00  0.00    -0.297 OA
ENDBRANCH  22  23
ENDBRANCH  19  22
ENDBRANCH  17  19
ENDBRANCH   1  17
TORSDOF 7
