REMARK  Name = ZINC00058839
REMARK  10 active torsions:
REMARK  status: ('A' for Active; 'I' for Inactive)
REMARK    1  A    between atoms: C_1  and  C_2
REMARK    2  A    between atoms: C_5  and  O_8
REMARK    3  A    between atoms: O_8  and  C_9
REMARK    4  A    between atoms: C_9  and  C_10
REMARK    5  A    between atoms: N_12  and  N_13
REMARK    6  A    between atoms: C_14  and  C_15
REMARK    7  A    between atoms: C_16  and  C_24
REMARK    8  A    between atoms: C_18  and  O_23
REMARK    9  A    between atoms: C_19  and  C_22
REMARK   10  A    between atoms: C_20  and  O_21
REMARK                            x       y       z     vdW  Elec       q    Type
REMARK                         _______ _______ _______ _____ _____    ______ ____
ROOT
ATOM      1  N   UNL     1       3.263  -6.361  -0.062  0.00  0.00    -0.187 NA
ATOM      2  C   UNL     1       4.304  -7.135  -0.076  0.00  0.00    +0.142 C 
ENDROOT
BRANCH   2   3
ATOM      3  C   UNL     1       4.134  -8.598  -0.082  0.00  0.00    +0.039 A 
ATOM      4  C   UNL     1       5.253  -9.435  -0.097  0.00  0.00    -0.035 A 
ATOM      5  C   UNL     1       5.090 -10.803  -0.102  0.00  0.00    +0.050 A 
ATOM      6  C   UNL     1       3.814 -11.355  -0.091  0.00  0.00    +0.124 A 
ATOM      7  C   UNL     1       2.697 -10.533  -0.076  0.00  0.00    +0.033 A 
ATOM      8  C   UNL     1       2.848  -9.158  -0.066  0.00  0.00    +0.132 A 
ATOM      9  C   UNL     1       1.317 -11.139  -0.065  0.00  0.00    +0.051 C 
ATOM     10  C   UNL     1       6.638  -8.841  -0.108  0.00  0.00    +0.044 C 
BRANCH   8  11
ATOM     11  O   UNL     1       1.755  -8.352  -0.046  0.00  0.00    -0.506 OA
ATOM     12  H   UNL     1       1.426  -8.114  -0.923  0.00  0.00    +0.292 HD
ENDBRANCH   8  11
BRANCH   6  13
ATOM     13  O   UNL     1       3.661 -12.705  -0.096  0.00  0.00    -0.506 OA
ATOM     14  H   UNL     1       3.626 -13.099   0.786  0.00  0.00    +0.292 HD
ENDBRANCH   6  13
ENDBRANCH   2   3
BRANCH   1  17
ATOM     15  C   UNL     1       2.343  -4.165  -0.042  0.00  0.00    +0.270 C 
ATOM     16  O   UNL     1       1.230  -4.646  -0.033  0.00  0.00    -0.270 OA
ATOM     17  N   UNL     1       3.425  -4.969  -0.056  0.00  0.00    -0.204 N 
ATOM     18  H   UNL     1       4.315  -4.584  -0.063  0.00  0.00    +0.177 HD
BRANCH  15  19
ATOM     19  C   UNL     1       2.518  -2.668  -0.036  0.00  0.00    +0.326 C 
BRANCH  19  20
ATOM     20  O   UNL     1       1.234  -2.039  -0.020  0.00  0.00    -0.483 OA
BRANCH  20  25
ATOM     21  C   UNL     1       1.147   3.593   0.011  0.00  0.00    +0.044 C 
ATOM     22  C   UNL     1       1.171   2.086   0.002  0.00  0.00    -0.050 A 
ATOM     23  C   UNL     1      -0.017   1.377   0.010  0.00  0.00    +0.007 A 
ATOM     24  C   UNL     1       0.002  -0.004   0.002  0.00  0.00    +0.046 A 
ATOM     25  C   UNL     1       1.213  -0.680  -0.013  0.00  0.00    +0.121 A 
ATOM     26  C   UNL     1       2.403   0.033  -0.021  0.00  0.00    +0.046 A 
ATOM     27  C   UNL     1       2.379   1.415  -0.013  0.00  0.00    +0.007 A 
ENDBRANCH  20  25
ENDBRANCH  19  20
ENDBRANCH  15  19
ENDBRANCH   1  17
TORSDOF 7
