REMARK  Name = ZINC21037712
REMARK  7 active torsions:
REMARK  status: ('A' for Active; 'I' for Inactive)
REMARK    1  A    between atoms: C_1  and  C_2
REMARK    2  A    between atoms: C_5  and  N_9
REMARK    3  A    between atoms: C_6  and  C_8
REMARK    4  A    between atoms: N_12  and  C_13
REMARK    5  A    between atoms: C_13  and  C_15
REMARK    6  A    between atoms: C_13  and  C_22
REMARK    7  A    between atoms: C_25  and  C_27
REMARK                            x       y       z     vdW  Elec       q    Type
REMARK                         _______ _______ _______ _____ _____    ______ ____
ROOT
ATOM      1  C   UNL     1      -0.029   1.075   0.003  0.00  0.00    +0.192 C 
ENDROOT
BRANCH   1   2
ATOM      2  C   UNL     1       1.381   1.606  -0.018  0.00  0.00    -0.018 A 
ATOM      3  C   UNL     1       1.637   2.904   0.383  0.00  0.00    +0.007 A 
ATOM      4  C   UNL     1       2.931   3.389   0.369  0.00  0.00    +0.020 A 
ATOM      5  C   UNL     1       3.969   2.579  -0.056  0.00  0.00    +0.041 A 
ATOM      6  C   UNL     1       3.711   1.282  -0.462  0.00  0.00    +0.020 A 
ATOM      7  C   UNL     1       2.417   0.796  -0.443  0.00  0.00    +0.007 A 
ATOM      8 CL   UNL     1       5.594   3.190  -0.080  0.00  0.00    -0.084 Cl
ENDBRANCH   1   2
BRANCH   1  12
ATOM      9  N   UNL     1      -1.206   1.311   3.478  0.00  0.00    -0.269 N 
ATOM     10  C   UNL     1      -0.579   0.875   2.369  0.00  0.00    +0.305 C 
ATOM     11  O   UNL     1       0.108  -0.128   2.413  0.00  0.00    -0.252 OA
ATOM     12  N   UNL     1      -0.712   1.550   1.209  0.00  0.00    -0.284 N 
ATOM     13  H   UNL     1      -1.751   2.267   3.462  0.00  0.00    +0.156 HD
ATOM     14  H   UNL     1      -1.333   2.457   1.169  0.00  0.00    +0.151 HD
BRANCH   9  19
ATOM     15  C   UNL     1      -1.037  -1.779   8.233  0.00  0.00    +0.044 C 
ATOM     16  C   UNL     1      -1.082  -0.958   6.970  0.00  0.00    -0.050 A 
ATOM     17  C   UNL     1      -0.918  -1.572   5.742  0.00  0.00    +0.005 A 
ATOM     18  C   UNL     1      -0.958  -0.823   4.583  0.00  0.00    +0.024 A 
ATOM     19  C   UNL     1      -1.165   0.549   4.651  0.00  0.00    +0.038 A 
ATOM     20  C   UNL     1      -1.324   1.163   5.886  0.00  0.00    -0.029 A 
ATOM     21  C   UNL     1      -1.288   0.407   7.042  0.00  0.00    +0.008 A 
ATOM     22  C   UNL     1      -1.543   2.652   5.965  0.00  0.00    +0.045 C 
ENDBRANCH   9  19
ENDBRANCH   1  12
BRANCH   1  23
ATOM     23  C   UNL     1      -0.768   1.564  -1.217  0.00  0.00    +0.242 A 
ATOM     24  N   UNL     1      -1.224   2.770  -1.409  0.00  0.00    -0.110 NA
ATOM     25  N   UNL     1      -1.800   2.834  -2.557  0.00  0.00    -0.107 NA
ATOM     26  C   UNL     1      -1.731   1.661  -3.142  0.00  0.00    +0.248 A 
ATOM     27  O   UNL     1      -1.071   0.836  -2.305  0.00  0.00    -0.418 OA
BRANCH  26  28
ATOM     28  C   UNL     1      -2.272   1.311  -4.473  0.00  0.00    +0.038 A 
ATOM     29  C   UNL     1      -2.119   0.018  -4.974  0.00  0.00    +0.013 A 
ATOM     30  C   UNL     1      -2.630  -0.303  -6.214  0.00  0.00    +0.001 A 
ATOM     31  C   UNL     1      -3.284   0.657  -6.966  0.00  0.00    +0.000 A 
ATOM     32  C   UNL     1      -3.434   1.943  -6.478  0.00  0.00    +0.001 A 
ATOM     33  C   UNL     1      -2.932   2.275  -5.236  0.00  0.00    +0.013 A 
ENDBRANCH  26  28
ENDBRANCH   1  23
TORSDOF 5
