REMARK  Name = ZINC42093310
REMARK  6 active torsions:
REMARK  status: ('A' for Active; 'I' for Inactive)
REMARK    1  A    between atoms: C_1  and  N_2
REMARK    2  A    between atoms: N_2  and  C_3
REMARK    3  A    between atoms: N_2  and  C_12
REMARK    4  A    between atoms: C_3  and  C_4
REMARK    5  A    between atoms: C_12  and  N_13
REMARK    6  A    between atoms: C_22  and  C_24
REMARK                            x       y       z     vdW  Elec       q    Type
REMARK                         _______ _______ _______ _____ _____    ______ ____
ROOT
ATOM      1  N   UNL     1      -1.899  -0.110   1.337  0.00  0.00    -0.245 N 
ATOM      2  C   UNL     1      -2.195  -1.081   2.224  0.00  0.00    +0.273 A 
ATOM      3  O   UNL     1      -1.815  -2.224   2.040  0.00  0.00    -0.266 OA
ATOM      4  C   UNL     1      -2.982  -0.740   3.417  0.00  0.00    +0.050 A 
ATOM      5  C   UNL     1      -3.322  -1.696   4.373  0.00  0.00    +0.014 A 
ATOM      6  C   UNL     1      -4.062  -1.323   5.474  0.00  0.00    +0.001 A 
ATOM      7  C   UNL     1      -4.472  -0.007   5.638  0.00  0.00    +0.001 A 
ATOM      8  C   UNL     1      -4.147   0.953   4.705  0.00  0.00    +0.011 A 
ATOM      9  C   UNL     1      -3.399   0.598   3.584  0.00  0.00    +0.016 A 
ATOM     10  C   UNL     1      -3.024   1.584   2.558  0.00  0.00    +0.106 A 
ATOM     11  N   UNL     1      -2.315   1.209   1.522  0.00  0.00    -0.169 NA
ENDROOT
BRANCH  10  12
ATOM     12  C   UNL     1      -3.441   2.992   2.699  0.00  0.00    +0.040 A 
ATOM     13  C   UNL     1      -3.741   3.906   1.722  0.00  0.00    +0.018 A 
ATOM     14  C   UNL     1      -4.110   5.178   2.097  0.00  0.00    +0.008 A 
ATOM     15  C   UNL     1      -4.166   5.489   3.418  0.00  0.00    +0.046 A 
ATOM     16  S   UNL     1      -3.693   3.948   4.186  0.00  0.00    -0.095 S 
ENDBRANCH  10  12
BRANCH   1  17
ATOM     17  C   UNL     1      -1.114  -0.448   0.147  0.00  0.00    +0.073 C 
BRANCH  17  19
ATOM     18  C   UNL     1       0.254   1.510   0.369  0.00  0.00    -0.093 C 
ATOM     19  N   UNL     1       0.261   0.042   0.313  0.00  0.00    +0.394 N 
ATOM     20  H   UNL     1       0.648  -0.326   1.169  0.00  0.00    -0.079 HD
BRANCH  19  21
ATOM     21  C   UNL     1       1.079  -0.401  -0.825  0.00  0.00    -0.041 C 
BRANCH  21  22
ATOM     22  C   UNL     1       2.514  -0.004  -0.596  0.00  0.00    -0.061 A 
ATOM     23  C   UNL     1       2.970   1.225  -1.036  0.00  0.00    +0.005 A 
ATOM     24  C   UNL     1       4.286   1.591  -0.827  0.00  0.00    +0.041 A 
ATOM     25  C   UNL     1       5.150   0.727  -0.176  0.00  0.00    +0.158 A 
ATOM     26  C   UNL     1       4.693  -0.505   0.266  0.00  0.00    +0.159 A 
ATOM     27  C   UNL     1       3.373  -0.867   0.060  0.00  0.00    +0.043 A 
ATOM     28  F   UNL     1       5.534  -1.350   0.902  0.00  0.00    -0.202 F 
ATOM     29  F   UNL     1       6.437   1.084   0.028  0.00  0.00    -0.202 F 
ENDBRANCH  21  22
ENDBRANCH  19  21
ENDBRANCH  17  19
ENDBRANCH   1  17
TORSDOF 5
