REMARK  Name = ZINC45512371
REMARK  6 active torsions:
REMARK  status: ('A' for Active; 'I' for Inactive)
REMARK    1  A    between atoms: C_1  and  C_2
REMARK    2  A    between atoms: C_2  and  C_4
REMARK    3  A    between atoms: C_2  and  N_17
REMARK    4  A    between atoms: N_6  and  C_7
REMARK    5  A    between atoms: C_10  and  N_14
REMARK    6  A    between atoms: C_20  and  N_23
REMARK                            x       y       z     vdW  Elec       q    Type
REMARK                         _______ _______ _______ _____ _____    ______ ____
ROOT
ATOM      1  N   UNL     1       0.754  -0.604  -1.105  0.00  0.00    +0.387 N 
ATOM      2  C   UNL     1       0.651  -2.064  -0.992  0.00  0.00    -0.076 C 
ATOM      3  C   UNL     1       1.325  -2.722  -2.198  0.00  0.00    +0.006 C 
ATOM      4  C   UNL     1       2.800  -2.314  -2.237  0.00  0.00    +0.089 C 
ATOM      5  C   UNL     1       2.897  -0.786  -2.280  0.00  0.00    +0.006 C 
ATOM      6  C   UNL     1       2.165  -0.200  -1.071  0.00  0.00    -0.076 C 
ATOM      7  H   UNL     1       0.341  -0.306  -1.976  0.00  0.00    -0.081 HD
ENDROOT
BRANCH   4   8
ATOM      8  N   UNL     1       3.433  -2.879  -3.432  0.00  0.00    -0.289 N 
ATOM      9  C   UNL     1       4.508  -3.764  -3.444  0.00  0.00    +0.070 A 
ATOM     10  C   UNL     1       5.267  -4.353  -2.444  0.00  0.00    +0.028 A 
ATOM     11  C   UNL     1       6.295  -5.213  -2.777  0.00  0.00    +0.002 A 
ATOM     12  C   UNL     1       6.572  -5.488  -4.105  0.00  0.00    +0.002 A 
ATOM     13  C   UNL     1       5.822  -4.906  -5.108  0.00  0.00    +0.028 A 
ATOM     14  C   UNL     1       4.787  -4.043  -4.783  0.00  0.00    +0.067 A 
ATOM     15  N   UNL     1       3.873  -3.318  -5.544  0.00  0.00    -0.306 N 
ATOM     16  H   UNL     1       3.820  -3.310  -6.513  0.00  0.00    +0.170 HD
ATOM     17  C   UNL     1       3.071  -2.634  -4.706  0.00  0.00    +0.328 A 
ATOM     18  O   UNL     1       2.159  -1.904  -5.047  0.00  0.00    -0.247 OA
ENDBRANCH   4   8
BRANCH   1  20
ATOM     19  C   UNL     1       0.252   1.539  -0.031  0.00  0.00    -0.004 C 
ATOM     20  C   UNL     1       0.040   0.024   0.014  0.00  0.00    +0.016 C 
BRANCH  20  21
ATOM     21  C   UNL     1      -1.432  -0.280  -0.096  0.00  0.00    +0.203 C 
ATOM     22  O   UNL     1      -1.881  -0.741  -1.124  0.00  0.00    -0.277 OA
ATOM     23  N   UNL     1      -2.249  -0.041   0.949  0.00  0.00    -0.286 N 
ATOM     24  H   UNL     1      -1.906   0.397   1.743  0.00  0.00    +0.155 HD
BRANCH  23  25
ATOM     25  C   UNL     1      -3.594  -0.425   0.888  0.00  0.00    +0.052 A 
ATOM     26  C   UNL     1      -4.276  -0.382  -0.321  0.00  0.00    +0.027 A 
ATOM     27  C   UNL     1      -5.602  -0.762  -0.379  0.00  0.00    +0.034 A 
ATOM     28  C   UNL     1      -6.253  -1.185   0.766  0.00  0.00    +0.128 A 
ATOM     29  C   UNL     1      -5.578  -1.229   1.972  0.00  0.00    +0.054 A 
ATOM     30  C   UNL     1      -4.249  -0.855   2.036  0.00  0.00    +0.064 A 
ATOM     31 CL   UNL     1      -3.400  -0.918   3.549  0.00  0.00    -0.082 Cl
BRANCH  28  32
ATOM     32  N   UNL     1      -7.675  -1.590   0.700  0.00  0.00    +0.056 N 
ATOM     33  O   UNL     1      -8.266  -1.552  -0.353  0.00  0.00    -0.126 OA
ATOM     34  O   UNL     1      -8.245  -1.960   1.700  0.00  0.00    -0.126 OA
ENDBRANCH  28  32
ENDBRANCH  23  25
ENDBRANCH  20  21
ENDBRANCH   1  20
TORSDOF 5
