REMARK  Name = ZINC35070209
REMARK  12 active torsions:
REMARK  status: ('A' for Active; 'I' for Inactive)
REMARK    1  A    between atoms: C_1  and  C_2
REMARK    2  A    between atoms: C_2  and  N_3
REMARK    3  A    between atoms: N_3  and  C_4
REMARK    4  A    between atoms: C_4  and  C_6
REMARK    5  A    between atoms: C_4  and  C_7
REMARK    6  A    between atoms: N_17  and  C_18
REMARK    7  A    between atoms: C_21  and  C_25
REMARK    8  A    between atoms: C_23  and  C_24
REMARK    9  A    between atoms: N_28  and  C_29
REMARK   10  A    between atoms: C_29  and  C_30
REMARK   11  A    between atoms: C_29  and  C_31
REMARK   12  A    between atoms: C_29  and  C_32
REMARK                            x       y       z     vdW  Elec       q    Type
REMARK                         _______ _______ _______ _____ _____    ______ ____
ROOT
ATOM      1  C   UNL     1       2.241  -1.758  -0.077  0.00  0.00    +0.138 A 
ATOM      2  N   UNL     1       1.151  -2.382   0.253  0.00  0.00    -0.231 NA
ATOM      3  C   UNL     1       1.182  -3.569   0.909  0.00  0.00    +0.078 A 
ATOM      4  C   UNL     1       0.010  -4.240   1.264  0.00  0.00    +0.028 A 
ATOM      5  C   UNL     1       0.089  -5.443   1.929  0.00  0.00    +0.002 A 
ATOM      6  C   UNL     1       1.320  -5.998   2.253  0.00  0.00    +0.001 A 
ATOM      7  C   UNL     1       2.490  -5.355   1.915  0.00  0.00    +0.015 A 
ATOM      8  C   UNL     1       2.433  -4.136   1.240  0.00  0.00    +0.065 A 
ATOM      9  C   UNL     1       3.648  -3.405   0.853  0.00  0.00    +0.266 A 
ATOM     10  O   UNL     1       4.756  -3.840   1.108  0.00  0.00    -0.267 OA
ATOM     11  N   UNL     1       3.486  -2.232   0.196  0.00  0.00    -0.263 N 
ENDROOT
BRANCH  11  12
ATOM     12  C   UNL     1       4.612  -1.498  -0.200  0.00  0.00    +0.054 A 
ATOM     13  C   UNL     1       5.094  -0.475   0.605  0.00  0.00    +0.027 A 
ATOM     14  C   UNL     1       6.204   0.247   0.212  0.00  0.00    +0.005 A 
ATOM     15  C   UNL     1       6.835  -0.049  -0.983  0.00  0.00    -0.050 A 
ATOM     16  C   UNL     1       6.357  -1.067  -1.787  0.00  0.00    +0.008 A 
ATOM     17  C   UNL     1       5.251  -1.796  -1.396  0.00  0.00    -0.026 A 
ATOM     18  C   UNL     1       4.734  -2.910  -2.270  0.00  0.00    +0.046 C 
ATOM     19  C   UNL     1       8.046   0.740  -1.409  0.00  0.00    +0.044 C 
ENDBRANCH  11  12
BRANCH   1  20
ATOM     20  C   UNL     1       2.120  -0.444  -0.804  0.00  0.00    +0.141 C 
ATOM     21  C   UNL     1       1.228   0.504  -0.001  0.00  0.00    +0.036 C 
BRANCH  20  22
ATOM     22  N   UNL     1       1.528  -0.669  -2.125  0.00  0.00    -0.276 N 
ATOM     23  C   UNL     1       2.212  -0.333  -3.237  0.00  0.00    +0.303 C 
ATOM     24  O   UNL     1       3.321   0.157  -3.143  0.00  0.00    -0.253 OA
ATOM     25  N   UNL     1       1.667  -0.541  -4.452  0.00  0.00    -0.294 N 
ATOM     26  H   UNL     1       0.783  -0.932  -4.526  0.00  0.00    +0.151 HD
BRANCH  25  27
ATOM     27  C   UNL     1       2.411  -0.176  -5.660  0.00  0.00    +0.028 C 
ATOM     28  C   UNL     1       3.725  -0.958  -5.706  0.00  0.00    +0.031 C 
ATOM     29  C   UNL     1       1.574  -0.513  -6.896  0.00  0.00    +0.031 C 
ATOM     30  C   UNL     1       2.710   1.324  -5.641  0.00  0.00    +0.031 C 
ENDBRANCH  25  27
BRANCH  22  32
ATOM     31  C   UNL     1      -0.859  -0.148  -2.239  0.00  0.00    +0.024 C 
ATOM     32  C   UNL     1       0.192  -1.260  -2.238  0.00  0.00    +0.107 C 
ENDBRANCH  22  32
ENDBRANCH  20  22
ENDBRANCH   1  20
TORSDOF 5
