REMARK  Name = ZINC40988795
REMARK  7 active torsions:
REMARK  status: ('A' for Active; 'I' for Inactive)
REMARK    1  A    between atoms: C_1  and  C_2
REMARK    2  A    between atoms: C_5  and  C_8
REMARK    3  A    between atoms: C_8  and  C_10
REMARK    4  A    between atoms: C_8  and  N_31
REMARK    5  A    between atoms: C_10  and  N_11
REMARK    6  A    between atoms: C_12  and  C_14
REMARK    7  A    between atoms: N_17  and  C_19
REMARK                            x       y       z     vdW  Elec       q    Type
REMARK                         _______ _______ _______ _____ _____    ______ ____
ROOT
ATOM      1  N   UNL     1      -1.222  -6.341   0.390  0.00  0.00    -0.311 N 
ATOM      2  C   UNL     1      -2.320  -7.089   0.620  0.00  0.00    +0.264 C 
ATOM      3  O   UNL     1      -3.390  -6.551   0.826  0.00  0.00    -0.268 OA
ATOM      4  H   UNL     1      -0.368  -6.770   0.225  0.00  0.00    +0.149 HD
ENDROOT
BRANCH   2   5
ATOM      5  C   UNL     1      -2.221  -8.563   0.621  0.00  0.00    +0.150 A 
ATOM      6  C   UNL     1      -3.269  -9.474   0.837  0.00  0.00    +0.006 A 
ATOM      7  C   UNL     1      -2.714 -10.708   0.748  0.00  0.00    +0.044 A 
ATOM      8  N   UNL     1      -1.407 -10.538   0.489  0.00  0.00    -0.263 N 
ATOM      9  N   UNL     1      -1.131  -9.282   0.413  0.00  0.00    -0.166 NA
ATOM     10  C   UNL     1      -3.486 -11.990   0.921  0.00  0.00    +0.055 C 
ATOM     11  C   UNL     1      -4.821 -11.662   1.602  0.00  0.00    +0.006 C 
ATOM     12  C   UNL     1      -5.504 -10.507   0.866  0.00  0.00    +0.005 C 
ATOM     13  C   UNL     1      -4.723  -9.209   1.113  0.00  0.00    +0.039 C 
BRANCH   8  14
ATOM     14  C   UNL     1      -0.438 -11.623   0.315  0.00  0.00    +0.130 C 
ATOM     15  C   UNL     1       0.689 -11.484   1.352  0.00  0.00    +0.051 C 
ATOM     16  C   UNL     1       1.867 -12.416   0.979  0.00  0.00    +0.168 C 
ATOM     17  S   UNL     1       1.723 -12.538  -0.850  0.00  0.00    -0.029 S 
ATOM     18  O   UNL     1       2.821 -11.862  -1.446  0.00  0.00    -0.174 OA
ATOM     19  O   UNL     1       1.456 -13.888  -1.204  0.00  0.00    -0.174 OA
ATOM     20  C   UNL     1       0.196 -11.538  -1.103  0.00  0.00    +0.192 C 
ENDBRANCH   8  14
ENDBRANCH   2   5
BRANCH   1  21
ATOM     21  C   UNL     1      -1.320  -4.879   0.389  0.00  0.00    +0.094 C 
BRANCH  21  22
ATOM     22  C   UNL     1       0.025  -4.278  -0.024  0.00  0.00    -0.020 C 
BRANCH  22  23
ATOM     23  N   UNL     1      -0.055  -2.813   0.033  0.00  0.00    +0.385 N 
ATOM     24  C   UNL     1       1.218  -2.250  -0.460  0.00  0.00    -0.078 C 
ATOM     25  C   UNL     1       0.953  -0.855  -0.969  0.00  0.00    -0.019 C 
ATOM     26  C   UNL     1       1.267   0.206   0.102  0.00  0.00    -0.002 C 
ATOM     27  C   UNL     1       0.795  -0.238   1.502  0.00  0.00    -0.002 C 
ATOM     28  C   UNL     1      -0.555  -0.906   1.468  0.00  0.00    -0.019 C 
ATOM     29  C   UNL     1      -0.359  -2.431   1.341  0.00  0.00    -0.078 C 
ATOM     30  H   UNL     1      -0.799  -2.506  -0.575  0.00  0.00    -0.081 HD
ENDBRANCH  22  23
BRANCH  22  35
ATOM     31  C   UNL     1       1.295  -5.932  -5.414  0.00  0.00    +0.044 C 
ATOM     32  C   UNL     1       0.964  -5.501  -4.008  0.00  0.00    -0.050 A 
ATOM     33  C   UNL     1       1.545  -6.146  -2.932  0.00  0.00    +0.003 A 
ATOM     34  C   UNL     1       1.241  -5.750  -1.643  0.00  0.00    +0.002 A 
ATOM     35  C   UNL     1       0.357  -4.709  -1.430  0.00  0.00    -0.059 A 
ATOM     36  C   UNL     1      -0.223  -4.064  -2.506  0.00  0.00    +0.002 A 
ATOM     37  C   UNL     1       0.084  -4.456  -3.795  0.00  0.00    +0.003 A 
ENDBRANCH  22  35
ENDBRANCH  21  22
ENDBRANCH   1  21
TORSDOF 6
