REMARK  Name = ZINC03323989
REMARK  11 active torsions:
REMARK  status: ('A' for Active; 'I' for Inactive)
REMARK    1  A    between atoms: C_1  and  C_2
REMARK    2  A    between atoms: C_9  and  N_13
REMARK    3  A    between atoms: C_10  and  C_11
REMARK    4  A    between atoms: C_14  and  C_16
REMARK    5  A    between atoms: C_16  and  O_17
REMARK    6  A    between atoms: O_17  and  C_18
REMARK    7  A    between atoms: C_18  and  C_20
REMARK    8  A    between atoms: C_20  and  C_22
REMARK    9  A    between atoms: C_20  and  N_23
REMARK   10  A    between atoms: N_23  and  S_24
REMARK   11  A    between atoms: S_24  and  C_27
REMARK                            x       y       z     vdW  Elec       q    Type
REMARK                         _______ _______ _______ _____ _____    ______ ____
ROOT
ATOM      1  C   UNL     1       2.598  -7.509  -3.440  0.00  0.00    +0.328 C 
ENDROOT
BRANCH   1   3
ATOM      2  N   UNL     1       1.932  -5.847  -1.734  0.00  0.00    -0.276 N 
ATOM      3  C   UNL     1       2.229  -6.109  -3.022  0.00  0.00    +0.255 C 
ATOM      4  O   UNL     1       2.201  -5.218  -3.844  0.00  0.00    -0.272 OA
ATOM      5  H   UNL     1       1.955  -6.559  -1.076  0.00  0.00    +0.155 HD
BRANCH   2  13
ATOM      6  C   UNL     1      -0.019   1.526   0.010  0.00  0.00    +0.008 C 
ATOM      7  C   UNL     1       0.002  -0.004   0.002  0.00  0.00    -0.009 C 
ATOM      8  C   UNL     1       0.742  -0.514   1.242  0.00  0.00    +0.008 C 
ATOM      9  C   UNL     1       0.556  -2.027   1.373  0.00  0.00    +0.037 C 
ATOM     10  C   UNL     1       0.941  -2.684   0.054  0.00  0.00    -0.018 A 
ATOM     11  C   UNL     1       1.008  -1.965  -1.089  0.00  0.00    -0.004 A 
ATOM     12  S   UNL     1       1.485  -3.134  -2.331  0.00  0.00    -0.077 S 
ATOM     13  C   UNL     1       1.593  -4.557  -1.349  0.00  0.00    +0.090 A 
ATOM     14  C   UNL     1       1.258  -4.095  -0.084  0.00  0.00    +0.084 A 
ATOM     15  C   UNL     1       0.736  -0.502  -1.252  0.00  0.00    +0.046 C 
BRANCH  14  16
ATOM     16  C   UNL     1       1.226  -4.977   1.044  0.00  0.00    +0.102 C 
ATOM     17  N   UNL     1       1.200  -5.676   1.938  0.00  0.00    -0.191 NA
ENDBRANCH  14  16
ENDBRANCH   2  13
ENDBRANCH   1   3
BRANCH   1  18
ATOM     18  O   UNL     1       2.872  -7.532  -4.865  0.00  0.00    -0.454 OA
BRANCH  18  19
ATOM     19  C   UNL     1       3.217  -8.714  -5.401  0.00  0.00    +0.326 C 
ATOM     20  O   UNL     1       3.288  -9.697  -4.701  0.00  0.00    -0.249 OA
BRANCH  19  21
ATOM     21  C   UNL     1       3.517  -8.815  -6.874  0.00  0.00    +0.182 C 
ATOM     22  C   UNL     1       4.689  -7.896  -7.220  0.00  0.00    +0.037 C 
BRANCH  21  23
ATOM     23  N   UNL     1       3.866 -10.198  -7.207  0.00  0.00    -0.176 NA
ATOM     24  H   UNL     1       4.358 -10.741  -6.572  0.00  0.00    +0.149 HD
BRANCH  23  25
ATOM     25  S   UNL     1       3.419 -10.835  -8.669  0.00  0.00    +0.059 S 
ATOM     26  O   UNL     1       3.919 -12.165  -8.703  0.00  0.00    -0.153 OA
ATOM     27  O   UNL     1       2.041 -10.536  -8.839  0.00  0.00    -0.153 OA
BRANCH  25  28
ATOM     28  C   UNL     1       4.287  -9.940  -9.915  0.00  0.00    +0.105 A 
ATOM     29  C   UNL     1       3.721  -8.808 -10.473  0.00  0.00    +0.030 A 
ATOM     30  C   UNL     1       4.404  -8.102 -11.445  0.00  0.00    +0.022 A 
ATOM     31  C   UNL     1       5.648  -8.534 -11.868  0.00  0.00    +0.041 A 
ATOM     32  C   UNL     1       6.211  -9.670 -11.314  0.00  0.00    +0.022 A 
ATOM     33  C   UNL     1       5.530 -10.372 -10.337  0.00  0.00    +0.030 A 
ATOM     34 CL   UNL     1       6.503  -7.652 -13.095  0.00  0.00    -0.084 Cl
ENDBRANCH  25  28
ENDBRANCH  23  25
ENDBRANCH  21  23
ENDBRANCH  19  21
ENDBRANCH  18  19
ENDBRANCH   1  18
TORSDOF 9
