REMARK  Name = ZINC23339547
REMARK  14 active torsions:
REMARK  status: ('A' for Active; 'I' for Inactive)
REMARK    1  A    between atoms: C_1  and  C_2
REMARK    2  A    between atoms: C_2  and  C_3
REMARK    3  A    between atoms: C_3  and  C_4
REMARK    4  A    between atoms: C_4  and  C_5
REMARK    5  A    between atoms: C_9  and  C_11
REMARK    6  A    between atoms: C_11  and  N_12
REMARK    7  A    between atoms: C_15  and  C_18
REMARK    8  A    between atoms: C_18  and  C_35
REMARK    9  A    between atoms: N_21  and  C_25
REMARK   10  A    between atoms: C_25  and  C_26
REMARK   11  A    between atoms: C_26  and  C_27
REMARK   12  A    between atoms: C_30  and  O_33
REMARK   13  A    between atoms: O_33  and  C_34
REMARK   14  A    between atoms: C_35  and  C_36
REMARK                            x       y       z     vdW  Elec       q    Type
REMARK                         _______ _______ _______ _____ _____    ______ ____
ROOT
ATOM      1  C   UNL     1       3.188   7.735  -6.194  0.00  0.00    +0.115 C 
ATOM      2  C   UNL     1       4.343   8.452  -5.523  0.00  0.00    +0.247 C 
ATOM      3  O   UNL     1       5.091   8.006  -4.680  0.00  0.00    -0.273 OA
ATOM      4  N   UNL     1       4.364   9.689  -6.058  0.00  0.00    -0.224 N 
ATOM      5  C   UNL     1       3.394   9.851  -6.965  0.00  0.00    +0.309 C 
ATOM      6  O   UNL     1       3.213  10.882  -7.583  0.00  0.00    -0.252 OA
ATOM      7  N   UNL     1       2.642   8.746  -7.116  0.00  0.00    -0.285 N 
ATOM      8  H   UNL     1       1.777   8.502  -7.750  0.00  0.00    +0.151 HD
ENDROOT
BRANCH   1  12
ATOM      9  N   UNL     1       1.313   7.128  -2.401  0.00  0.00    -0.297 NA
ATOM     10  C   UNL     1       1.694   5.921  -3.144  0.00  0.00    +0.085 C 
ATOM     11  C   UNL     1       2.731   6.282  -4.210  0.00  0.00    +0.021 C 
ATOM     12  C   UNL     1       2.136   7.324  -5.161  0.00  0.00    +0.024 C 
ATOM     13  C   UNL     1       1.704   8.552  -4.355  0.00  0.00    +0.021 C 
ATOM     14  C   UNL     1       0.697   8.125  -3.285  0.00  0.00    +0.085 C 
BRANCH   9  15
ATOM     15  C   UNL     1       0.424   6.798  -1.279  0.00  0.00    +0.139 C 
BRANCH  15  20
ATOM     16  C   UNL     1       1.396   3.562   0.008  0.00  0.00    +0.084 A 
ATOM     17  N   UNL     1       2.023   4.353   0.905  0.00  0.00    -0.350 N 
ATOM     18  H   UNL     1       2.612   3.903   1.718  0.00  0.00    +0.166 HD
ATOM     19  C   UNL     1       1.755   5.650   0.559  0.00  0.00    +0.106 A 
ATOM     20  C   UNL     1       0.973   5.607  -0.536  0.00  0.00    +0.047 A 
ATOM     21  N   UNL     1       0.774   4.319  -0.854  0.00  0.00    -0.346 N 
ATOM     22  H   UNL     1       0.204   3.862  -1.676  0.00  0.00    +0.167 HD
BRANCH  16  23
ATOM     23  C   UNL     1       1.417   2.055  -0.000  0.00  0.00    +0.072 C 
BRANCH  23  24
ATOM     24  C   UNL     1      -0.019   1.526   0.010  0.00  0.00    +0.007 C 
BRANCH  24  26
ATOM     25  C   UNL     1      -1.433  -0.534   0.013  0.00  0.00    +0.004 C 
ATOM     26  C   UNL     1       0.002  -0.004   0.002  0.00  0.00    -0.003 C 
ENDBRANCH  24  26
ENDBRANCH  23  24
ENDBRANCH  16  23
ENDBRANCH  15  20
ENDBRANCH   9  15
ENDBRANCH   1  12
BRANCH   1  27
ATOM     27  C   UNL     1       3.689   6.513  -6.965  0.00  0.00    +0.032 C 
ATOM     28  C   UNL     1       4.738   6.951  -7.990  0.00  0.00    +0.006 C 
ENDBRANCH   1  27
BRANCH   4  29
ATOM     29  C   UNL     1       5.332  10.727  -5.693  0.00  0.00    +0.122 C 
BRANCH  29  30
ATOM     30  C   UNL     1       6.558  10.624  -6.602  0.00  0.00    +0.054 C 
BRANCH  30  31
ATOM     31  C   UNL     1       7.553  11.691  -6.227  0.00  0.00    -0.046 A 
ATOM     32  C   UNL     1       7.498  12.931  -6.837  0.00  0.00    +0.007 A 
ATOM     33  C   UNL     1       8.406  13.913  -6.490  0.00  0.00    +0.046 A 
ATOM     34  C   UNL     1       9.379  13.652  -5.537  0.00  0.00    +0.120 A 
ATOM     35  C   UNL     1       9.435  12.405  -4.931  0.00  0.00    +0.046 A 
ATOM     36  C   UNL     1       8.522  11.428  -5.277  0.00  0.00    +0.007 A 
BRANCH  34  37
ATOM     37  O   UNL     1      10.276  14.614  -5.198  0.00  0.00    -0.495 OA
ATOM     38  C   UNL     1      10.159  15.874  -5.863  0.00  0.00    +0.277 C 
ENDBRANCH  34  37
ENDBRANCH  30  31
ENDBRANCH  29  30
ENDBRANCH   4  29
TORSDOF 11
