REMARK  Name = ZINC38490651
REMARK  9 active torsions:
REMARK  status: ('A' for Active; 'I' for Inactive)
REMARK    1  A    between atoms: C_1  and  C_2
REMARK    2  A    between atoms: C_5  and  N_12
REMARK    3  A    between atoms: C_8  and  C_10
REMARK    4  A    between atoms: C_8  and  C_11
REMARK    5  A    between atoms: C_13  and  C_15
REMARK    6  A    between atoms: C_16  and  C_28
REMARK    7  A    between atoms: N_17  and  C_20
REMARK    8  A    between atoms: C_28  and  S_29
REMARK    9  A    between atoms: S_29  and  C_30
REMARK                            x       y       z     vdW  Elec       q    Type
REMARK                         _______ _______ _______ _____ _____    ______ ____
ROOT
ATOM      1  C   UNL     1       0.040  -2.829  -3.262  0.00  0.00    +0.171 A 
ATOM      2  C   UNL     1      -0.446  -2.758  -4.537  0.00  0.00    +0.087 A 
ATOM      3  N   UNL     1       0.493  -3.299  -5.343  0.00  0.00    -0.215 N 
ATOM      4  N   UNL     1       1.555  -3.697  -4.518  0.00  0.00    -0.060 NA
ATOM      5  N   UNL     1       1.256  -3.400  -3.301  0.00  0.00    -0.124 NA
ENDROOT
BRANCH   3   6
ATOM      6  C   UNL     1       0.420  -3.438  -6.736  0.00  0.00    +0.070 A 
ATOM      7  C   UNL     1      -0.800  -3.701  -7.346  0.00  0.00    +0.048 A 
ATOM      8  C   UNL     1      -0.869  -3.837  -8.720  0.00  0.00    +0.044 A 
ATOM      9  C   UNL     1       0.275  -3.711  -9.487  0.00  0.00    +0.040 A 
ATOM     10  C   UNL     1       1.491  -3.449  -8.882  0.00  0.00    +0.044 A 
ATOM     11  C   UNL     1       1.565  -3.306  -7.509  0.00  0.00    +0.048 A 
ATOM     12 CL   UNL     1       2.925  -3.291  -9.849  0.00  0.00    -0.083 Cl
ATOM     13 CL   UNL     1      -2.394  -4.167  -9.482  0.00  0.00    -0.083 Cl
ENDBRANCH   3   6
BRANCH   1  15
ATOM     14  N   UNL     1      -0.058  -2.476  -0.844  0.00  0.00    -0.307 N 
ATOM     15  C   UNL     1      -0.650  -2.353  -2.048  0.00  0.00    +0.266 C 
ATOM     16  O   UNL     1      -1.754  -1.849  -2.134  0.00  0.00    -0.268 OA
ATOM     17  H   UNL     1       0.822  -2.878  -0.775  0.00  0.00    +0.149 HD
BRANCH  14  21
ATOM     18  C   UNL     1       1.827  -3.263   2.937  0.00  0.00    +0.007 C 
ATOM     19  C   UNL     1       0.831  -3.329   1.777  0.00  0.00    -0.012 C 
ATOM     20  C   UNL     1       0.252  -1.937   1.522  0.00  0.00    +0.025 C 
ATOM     21  C   UNL     1      -0.744  -2.004   0.362  0.00  0.00    +0.074 C 
ATOM     22  C   UNL     1      -1.876  -2.970   0.716  0.00  0.00    +0.028 C 
ATOM     23  C   UNL     1      -1.296  -4.363   0.972  0.00  0.00    -0.033 C 
ATOM     24  C   UNL     1      -0.301  -4.296   2.132  0.00  0.00    +0.009 C 
ATOM     25  C   UNL     1      -2.428  -5.329   1.327  0.00  0.00    +0.011 C 
ATOM     26  C   UNL     1      -0.580  -4.856  -0.287  0.00  0.00    +0.011 C 
ENDBRANCH  14  21
ENDBRANCH   1  15
BRANCH   2  27
ATOM     27  C   UNL     1      -1.774  -2.186  -4.961  0.00  0.00    +0.135 C 
BRANCH  27  28
ATOM     28  S   UNL     1      -3.030  -3.494  -4.941  0.00  0.00    -0.080 S 
BRANCH  28  29
ATOM     29  C   UNL     1      -4.505  -2.678  -5.454  0.00  0.00    +0.189 A 
ATOM     30  N   UNL     1      -4.461  -1.385  -5.745  0.00  0.00    -0.230 NA
ATOM     31  C   UNL     1      -5.549  -0.742  -6.134  0.00  0.00    +0.115 A 
ATOM     32  C   UNL     1      -6.745  -1.437  -6.235  0.00  0.00    +0.039 A 
ATOM     33  C   UNL     1      -6.755  -2.787  -5.923  0.00  0.00    +0.115 A 
ATOM     34  N   UNL     1      -5.630  -3.371  -5.545  0.00  0.00    -0.230 NA
ENDBRANCH  28  29
ENDBRANCH  27  28
ENDBRANCH   2  27
TORSDOF 6
