REMARK  Name = ZINC67338837
REMARK  7 active torsions:
REMARK  status: ('A' for Active; 'I' for Inactive)
REMARK    1  A    between atoms: C_1  and  C_2
REMARK    2  A    between atoms: C_5  and  N_8
REMARK    3  A    between atoms: N_11  and  C_12
REMARK    4  A    between atoms: C_22  and  C_24
REMARK    5  A    between atoms: C_24  and  C_26
REMARK    6  A    between atoms: C_24  and  O_27
REMARK    7  A    between atoms: O_27  and  C_28
REMARK                            x       y       z     vdW  Elec       q    Type
REMARK                         _______ _______ _______ _____ _____    ______ ____
ROOT
ATOM      1  C   UNL     1       0.278  -6.991   2.276  0.00  0.00    +0.038 A 
ATOM      2  C   UNL     1       0.267  -6.308   3.482  0.00  0.00    +0.023 A 
ATOM      3  C   UNL     1       0.280  -7.012   4.670  0.00  0.00    +0.002 A 
ATOM      4  C   UNL     1       0.308  -8.392   4.648  0.00  0.00    +0.005 A 
ATOM      5  C   UNL     1       0.322  -9.081   3.443  0.00  0.00    -0.025 A 
ATOM      6  C   UNL     1       0.294  -8.387   2.255  0.00  0.00    -0.020 A 
ATOM      7  C   UNL     1       0.270  -9.065   0.911  0.00  0.00    +0.056 C 
ATOM      8  C   UNL     1       0.769 -10.505   1.020  0.00  0.00    +0.113 C 
ATOM      9  N   UNL     1       0.086 -11.136   2.162  0.00  0.00    -0.295 N 
ATOM     10  C   UNL     1       0.368 -10.588   3.495  0.00  0.00    +0.143 C 
ATOM     11  C   UNL     1      -0.754 -12.176   1.988  0.00  0.00    +0.244 C 
ATOM     12  O   UNL     1      -0.961 -12.610   0.875  0.00  0.00    -0.273 OA
ENDROOT
BRANCH   1  16
ATOM     13  N   UNL     1       0.587  -4.280  -0.091  0.00  0.00    -0.269 N 
ATOM     14  C   UNL     1       0.703  -5.003   1.040  0.00  0.00    +0.308 C 
ATOM     15  O   UNL     1       1.202  -4.506   2.032  0.00  0.00    -0.252 OA
ATOM     16  N   UNL     1       0.267  -6.278   1.073  0.00  0.00    -0.269 N 
ATOM     17  H   UNL     1       0.123  -4.650  -0.858  0.00  0.00    +0.156 HD
ATOM     18  H   UNL     1      -0.055  -6.701   0.261  0.00  0.00    +0.156 HD
BRANCH  13  23
ATOM     19  C   UNL     1       2.812   0.932  -0.365  0.00  0.00    +0.044 C 
ATOM     20  C   UNL     1       2.221  -0.452  -0.292  0.00  0.00    -0.050 A 
ATOM     21  C   UNL     1       2.842  -1.429   0.465  0.00  0.00    +0.005 A 
ATOM     22  C   UNL     1       2.303  -2.698   0.534  0.00  0.00    +0.023 A 
ATOM     23  C   UNL     1       1.136  -2.994  -0.158  0.00  0.00    +0.035 A 
ATOM     24  C   UNL     1       0.515  -2.011  -0.918  0.00  0.00    +0.023 A 
ATOM     25  C   UNL     1       1.056  -0.742  -0.978  0.00  0.00    +0.005 A 
ENDBRANCH  13  23
ENDBRANCH   1  16
BRANCH  11  26
ATOM     26  C   UNL     1      -1.438 -12.799   3.179  0.00  0.00    +0.200 C 
ATOM     27  C   UNL     1      -0.390 -13.443   4.088  0.00  0.00    +0.048 C 
BRANCH  26  28
ATOM     28  O   UNL     1      -2.358 -13.796   2.731  0.00  0.00    -0.371 OA
ATOM     29  C   UNL     1      -3.490 -13.968   3.587  0.00  0.00    +0.195 C 
ENDBRANCH  26  28
ENDBRANCH  11  26
TORSDOF 4
