REMARK  Name = ZINC36855162
REMARK  11 active torsions:
REMARK  status: ('A' for Active; 'I' for Inactive)
REMARK    1  A    between atoms: C_1  and  O_2
REMARK    2  A    between atoms: O_2  and  C_3
REMARK    3  A    between atoms: C_6  and  C_9
REMARK    4  A    between atoms: C_9  and  C_11
REMARK    5  A    between atoms: C_9  and  N_30
REMARK    6  A    between atoms: C_11  and  N_12
REMARK    7  A    between atoms: C_13  and  C_15
REMARK    8  A    between atoms: C_15  and  S_16
REMARK    9  A    between atoms: S_16  and  C_17
REMARK   10  A    between atoms: N_26  and  C_27
REMARK   11  A    between atoms: C_27  and  C_28
REMARK                            x       y       z     vdW  Elec       q    Type
REMARK                         _______ _______ _______ _____ _____    ______ ____
ROOT
ATOM      1  N   UNL     1       4.799  -1.749   3.566  0.00  0.00    -0.316 N 
ATOM      2  C   UNL     1       6.066  -1.855   3.119  0.00  0.00    +0.223 C 
ATOM      3  O   UNL     1       6.592  -2.945   3.036  0.00  0.00    -0.275 OA
ATOM      4  H   UNL     1       4.379  -0.877   3.633  0.00  0.00    +0.149 HD
ENDROOT
BRANCH   1   5
ATOM      5  C   UNL     1       4.057  -2.952   3.952  0.00  0.00    +0.093 C 
BRANCH   5   6
ATOM      6  C   UNL     1       2.614  -2.572   4.293  0.00  0.00    -0.020 C 
BRANCH   6   7
ATOM      7  N   UNL     1       1.894  -3.762   4.767  0.00  0.00    +0.385 N 
ATOM      8  C   UNL     1       0.496  -3.409   5.040  0.00  0.00    -0.078 C 
ATOM      9  C   UNL     1      -0.278  -4.662   5.457  0.00  0.00    -0.019 C 
ATOM     10  C   UNL     1       0.357  -5.251   6.719  0.00  0.00    -0.004 C 
ATOM     11  C   UNL     1       1.834  -5.546   6.446  0.00  0.00    -0.019 C 
ATOM     12  C   UNL     1       2.530  -4.261   5.992  0.00  0.00    -0.078 C 
ATOM     13  H   UNL     1       1.926  -4.478   4.057  0.00  0.00    -0.081 HD
ENDBRANCH   6   7
BRANCH   6  17
ATOM     14  C   UNL     1       0.684  -1.036   0.804  0.00  0.00    +0.120 A 
ATOM     15  C   UNL     1       1.177  -0.166   1.765  0.00  0.00    +0.046 A 
ATOM     16  C   UNL     1       1.800  -0.665   2.892  0.00  0.00    +0.005 A 
ATOM     17  C   UNL     1       1.933  -2.030   3.062  0.00  0.00    -0.059 A 
ATOM     18  C   UNL     1       1.443  -2.900   2.105  0.00  0.00    +0.005 A 
ATOM     19  C   UNL     1       0.814  -2.406   0.979  0.00  0.00    +0.046 A 
BRANCH  14  21
ATOM     20  C   UNL     1      -0.028   0.874  -0.420  0.00  0.00    +0.277 C 
ATOM     21  O   UNL     1       0.070  -0.547  -0.306  0.00  0.00    -0.495 OA
ENDBRANCH  14  21
ENDBRANCH   6  17
ENDBRANCH   5   6
ENDBRANCH   1   5
BRANCH   2  22
ATOM     22  C   UNL     1       6.831  -0.618   2.722  0.00  0.00    +0.173 C 
BRANCH  22  23
ATOM     23  S   UNL     1       8.493  -1.086   2.168  0.00  0.00    -0.078 S 
BRANCH  23  24
ATOM     24  C   UNL     1       9.249   0.448   1.745  0.00  0.00    +0.173 A 
ATOM     25  N   UNL     1       8.570   1.569   1.886  0.00  0.00    -0.216 NA
ATOM     26  C   UNL     1       9.114   2.739   1.575  0.00  0.00    +0.116 A 
ATOM     27  C   UNL     1      10.429   2.845   1.084  0.00  0.00    +0.072 A 
ATOM     28  C   UNL     1      10.867   4.199   0.795  0.00  0.00    +0.023 A 
ATOM     29  C   UNL     1      10.024   5.220   1.006  0.00  0.00    +0.048 A 
ATOM     30  S   UNL     1       8.553   4.422   1.620  0.00  0.00    -0.077 S 
ATOM     31  C   UNL     1      11.141   1.612   0.941  0.00  0.00    +0.263 A 
ATOM     32  O   UNL     1      12.286   1.606   0.522  0.00  0.00    -0.267 OA
ATOM     33  N   UNL     1      10.533   0.461   1.280  0.00  0.00    -0.283 N 
BRANCH  33  34
ATOM     34  C   UNL     1      11.259  -0.804   1.141  0.00  0.00    +0.154 C 
BRANCH  34  35
ATOM     35  C   UNL     1      11.028  -1.367  -0.237  0.00  0.00    -0.013 C 
ATOM     36  C   UNL     1      12.048  -1.661  -1.004  0.00  0.00    +0.005 C 
ENDBRANCH  34  35
ENDBRANCH  33  34
ENDBRANCH  23  24
ENDBRANCH  22  23
ENDBRANCH   2  22
TORSDOF 10
