REMARK  Name = ZINC01375862
REMARK  15 active torsions:
REMARK  status: ('A' for Active; 'I' for Inactive)
REMARK    1  A    between atoms: C_1  and  C_2
REMARK    2  A    between atoms: C_2  and  C_3
REMARK    3  A    between atoms: C_3  and  C_5
REMARK    4  A    between atoms: C_3  and  N_19
REMARK    5  A    between atoms: N_9  and  C_10
REMARK    6  A    between atoms: C_10  and  C_11
REMARK    7  A    between atoms: C_14  and  O_17
REMARK    8  A    between atoms: O_17  and  C_18
REMARK    9  A    between atoms: N_19  and  C_20
REMARK   10  A    between atoms: N_19  and  C_26
REMARK   11  A    between atoms: C_20  and  C_21
REMARK   12  A    between atoms: C_26  and  C_27
REMARK   13  A    between atoms: C_31  and  O_39
REMARK   14  A    between atoms: O_39  and  C_40
REMARK   15  A    between atoms: C_40  and  C_41
REMARK                            x       y       z     vdW  Elec       q    Type
REMARK                         _______ _______ _______ _____ _____    ______ ____
ROOT
ATOM      1  N   UNL     1      -0.123  -0.305  -2.467  0.00  0.00    -0.284 NA
ENDROOT
BRANCH   1   2
ATOM      2  C   UNL     1       0.949  -0.654  -1.526  0.00  0.00    +0.127 C 
BRANCH   2   3
ATOM      3  C   UNL     1       2.287  -0.364  -2.158  0.00  0.00    +0.169 A 
ATOM      4  N   UNL     1       2.655  -0.660  -3.381  0.00  0.00    -0.112 NA
ATOM      5  N   UNL     1       3.866  -0.249  -3.541  0.00  0.00    -0.023 NA
ATOM      6  N   UNL     1       4.279   0.300  -2.453  0.00  0.00    -0.044 NA
ATOM      7  N   UNL     1       3.332   0.254  -1.578  0.00  0.00    -0.223 N 
BRANCH   7   8
ATOM      8  C   UNL     1       3.386   0.773  -0.209  0.00  0.00    +0.182 C 
BRANCH   8   9
ATOM      9  C   UNL     1       3.893  -0.302   0.717  0.00  0.00    -0.026 A 
ATOM     10  C   UNL     1       3.001  -1.169   1.321  0.00  0.00    +0.009 A 
ATOM     11  C   UNL     1       3.463  -2.156   2.170  0.00  0.00    +0.046 A 
ATOM     12  C   UNL     1       4.823  -2.277   2.416  0.00  0.00    +0.120 A 
ATOM     13  C   UNL     1       5.715  -1.407   1.808  0.00  0.00    +0.046 A 
ATOM     14  C   UNL     1       5.249  -0.425   0.956  0.00  0.00    +0.009 A 
BRANCH  12  15
ATOM     15  O   UNL     1       5.279  -3.247   3.252  0.00  0.00    -0.495 OA
ATOM     16  C   UNL     1       6.692  -3.312   3.459  0.00  0.00    +0.277 C 
ENDBRANCH  12  15
ENDBRANCH   8   9
ENDBRANCH   7   8
ENDBRANCH   2   3
BRANCH   2  18
ATOM     17  C   UNL     1      -0.442  -2.414  -0.425  0.00  0.00    +0.006 C 
ATOM     18  C   UNL     1       0.860  -2.142  -1.181  0.00  0.00    +0.023 C 
ENDBRANCH   2  18
ENDBRANCH   1   2
BRANCH   1  19
ATOM     19  C   UNL     1       0.088  -0.951  -3.769  0.00  0.00    +0.127 C 
BRANCH  19  20
ATOM     20  C   UNL     1      -1.192  -0.911  -4.564  0.00  0.00    +0.004 A 
ATOM     21  C   UNL     1      -1.588  -0.014  -5.500  0.00  0.00    +0.012 A 
ATOM     22  C   UNL     1      -2.819  -0.178  -6.106  0.00  0.00    +0.008 A 
ATOM     23  C   UNL     1      -3.595  -1.230  -5.747  0.00  0.00    +0.045 A 
ATOM     24  S   UNL     1      -2.578  -2.036  -4.521  0.00  0.00    -0.100 S 
ENDBRANCH  19  20
ENDBRANCH   1  19
BRANCH   1  25
ATOM     25  C   UNL     1      -0.239   1.152  -2.616  0.00  0.00    +0.126 C 
BRANCH  25  26
ATOM     26  C   UNL     1      -0.924   1.728  -1.403  0.00  0.00    +0.031 A 
ATOM     27  C   UNL     1      -0.184   2.263  -0.400  0.00  0.00    +0.020 A 
ATOM     28  C   UNL     1      -0.879   2.814   0.765  0.00  0.00    +0.002 A 
ATOM     29  C   UNL     1      -0.168   3.380   1.829  0.00  0.00    +0.055 A 
ATOM     30  C   UNL     1      -0.855   3.890   2.912  0.00  0.00    +0.121 A 
ATOM     31  C   UNL     1      -2.247   3.844   2.947  0.00  0.00    +0.047 A 
ATOM     32  C   UNL     1      -2.957   3.289   1.906  0.00  0.00    +0.030 A 
ATOM     33  C   UNL     1      -2.285   2.769   0.805  0.00  0.00    +0.049 A 
ATOM     34  N   UNL     1      -2.979   2.210  -0.248  0.00  0.00    -0.322 N 
ATOM     35  H   UNL     1      -3.948   2.179  -0.220  0.00  0.00    +0.169 HD
ATOM     36  C   UNL     1      -2.332   1.712  -1.316  0.00  0.00    +0.254 A 
ATOM     37  O   UNL     1      -2.978   1.230  -2.231  0.00  0.00    -0.268 OA
BRANCH  30  38
ATOM     38  O   UNL     1      -0.170   4.441   3.949  0.00  0.00    -0.492 OA
BRANCH  38  39
ATOM     39  C   UNL     1      -0.941   4.951   5.038  0.00  0.00    +0.225 C 
ATOM     40  C   UNL     1      -0.003   5.527   6.101  0.00  0.00    +0.048 C 
ENDBRANCH  38  39
ENDBRANCH  30  38
ENDBRANCH  25  26
ENDBRANCH   1  25
TORSDOF 12
