REMARK  Name = ZINC39325064
REMARK  9 active torsions:
REMARK  status: ('A' for Active; 'I' for Inactive)
REMARK    1  A    between atoms: C_1  and  C_2
REMARK    2  A    between atoms: C_7  and  S_8
REMARK    3  A    between atoms: S_8  and  N_11
REMARK    4  A    between atoms: N_11  and  C_12
REMARK    5  A    between atoms: N_11  and  C_19
REMARK    6  A    between atoms: C_12  and  C_13
REMARK    7  A    between atoms: C_19  and  C_20
REMARK    8  A    between atoms: C_25  and  C_33
REMARK    9  A    between atoms: C_26  and  C_32
REMARK                            x       y       z     vdW  Elec       q    Type
REMARK                         _______ _______ _______ _____ _____    ______ ____
ROOT
ATOM      1  N   UNL     1      -1.790   0.486   3.357  0.00  0.00    -0.171 NA
ENDROOT
BRANCH   1   2
ATOM      2  S   UNL     1      -0.219   0.194   2.920  0.00  0.00    +0.064 S 
ATOM      3  O   UNL     1       0.373  -0.528   3.992  0.00  0.00    -0.153 OA
ATOM      4  O   UNL     1       0.308   1.426   2.449  0.00  0.00    -0.153 OA
BRANCH   2  11
ATOM      5  C   UNL     1      -0.115   1.091   0.084  0.00  0.00    +0.046 C 
ATOM      6  C   UNL     1      -0.205  -0.400   0.281  0.00  0.00    -0.022 A 
ATOM      7  C   UNL     1      -0.228  -1.235  -0.836  0.00  0.00    +0.007 A 
ATOM      8  C   UNL     1      -0.307  -2.581  -0.711  0.00  0.00    +0.031 A 
ATOM      9  C   UNL     1      -0.370  -3.175   0.578  0.00  0.00    +0.102 A 
ATOM     10  C   UNL     1      -0.346  -2.302   1.746  0.00  0.00    +0.126 A 
ATOM     11  C   UNL     1      -0.257  -0.899   1.538  0.00  0.00    +0.136 A 
ATOM     12  N   UNL     1      -0.410  -2.968   2.900  0.00  0.00    -0.189 NA
ATOM     13  S   UNL     1      -0.490  -4.524   2.499  0.00  0.00    +0.117 S 
ATOM     14  N   UNL     1      -0.451  -4.469   0.892  0.00  0.00    -0.191 NA
ENDBRANCH   2  11
ENDBRANCH   1   2
BRANCH   1  15
ATOM     15  C   UNL     1      -2.451  -0.380   4.335  0.00  0.00    +0.144 C 
BRANCH  15  16
ATOM     16  C   UNL     1      -2.293   0.207   5.714  0.00  0.00    -0.032 A 
ATOM     17  C   UNL     1      -1.199  -0.133   6.489  0.00  0.00    +0.005 A 
ATOM     18  C   UNL     1      -1.054   0.406   7.753  0.00  0.00    +0.000 A 
ATOM     19  C   UNL     1      -2.001   1.285   8.243  0.00  0.00    +0.000 A 
ATOM     20  C   UNL     1      -3.094   1.626   7.468  0.00  0.00    +0.000 A 
ATOM     21  C   UNL     1      -3.237   1.091   6.202  0.00  0.00    +0.005 A 
ENDBRANCH  15  16
ENDBRANCH   1  15
BRANCH   1  22
ATOM     22  C   UNL     1      -2.518   1.610   2.763  0.00  0.00    +0.126 C 
BRANCH  22  23
ATOM     23  C   UNL     1      -3.103   1.185   1.415  0.00  0.00    +0.114 C 
ATOM     24  C   UNL     1      -3.591   2.433   0.706  0.00  0.00    -0.003 C 
ATOM     25  C   UNL     1      -4.907   2.476   0.352  0.00  0.00    -0.007 A 
ATOM     26  C   UNL     1      -5.462   3.642  -0.335  0.00  0.00    +0.013 A 
ATOM     27  C   UNL     1      -6.779   3.641  -0.667  0.00  0.00    -0.047 A 
ATOM     28  C   UNL     1      -7.604   2.556  -0.367  0.00  0.00    -0.046 A 
ATOM     29  C   UNL     1      -7.150   1.445   0.270  0.00  0.00    +0.027 A 
ATOM     30  C   UNL     1      -5.801   1.345   0.657  0.00  0.00    +0.041 A 
ATOM     31  N   UNL     1      -5.367   0.249   1.281  0.00  0.00    -0.284 N 
ATOM     32  C   UNL     1      -4.115   0.091   1.673  0.00  0.00    +0.225 C 
ATOM     33  O   UNL     1      -3.778  -0.931   2.239  0.00  0.00    -0.275 OA
ATOM     34  C   UNL     1      -9.056   2.620  -0.764  0.00  0.00    +0.044 C 
ATOM     35  C   UNL     1      -7.362   4.837  -1.376  0.00  0.00    +0.044 C 
ATOM     36  H   UNL     1      -6.000  -0.464   1.455  0.00  0.00    +0.155 HD
ENDBRANCH  22  23
ENDBRANCH   1  22
TORSDOF 6
