REMARK  Name = ZINC08428694
REMARK  7 active torsions:
REMARK  status: ('A' for Active; 'I' for Inactive)
REMARK    1  A    between atoms: C_1  and  C_2
REMARK    2  A    between atoms: C_10  and  C_12
REMARK    3  A    between atoms: C_12  and  S_13
REMARK    4  A    between atoms: S_13  and  C_14
REMARK    5  A    between atoms: C_17  and  C_22
REMARK    6  A    between atoms: N_18  and  C_19
REMARK    7  A    between atoms: C_22  and  C_23
REMARK                            x       y       z     vdW  Elec       q    Type
REMARK                         _______ _______ _______ _____ _____    ______ ____
ROOT
ATOM      1  C   UNL     1       1.245  -0.406   0.236  0.00  0.00    +0.192 A 
ATOM      2  N   UNL     1       0.003   0.012   0.147  0.00  0.00    -0.122 NA
ATOM      3  N   UNL     1      -0.017   1.265  -0.139  0.00  0.00    -0.133 NA
ATOM      4  C   UNL     1       1.200   1.718  -0.248  0.00  0.00    +0.139 A 
ATOM      5  N   UNL     1       2.047   0.670  -0.014  0.00  0.00    -0.303 N 
ENDROOT
BRANCH   5   6
ATOM      6  C   UNL     1       3.512   0.696  -0.028  0.00  0.00    +0.091 C 
ATOM      7  C   UNL     1       4.242  -0.644  -0.129  0.00  0.00    +0.027 C 
ATOM      8  C   UNL     1       4.240   0.129   1.192  0.00  0.00    +0.027 C 
ENDBRANCH   5   6
BRANCH   1   9
ATOM      9  S   UNL     1       1.774  -2.045   0.607  0.00  0.00    -0.080 S 
BRANCH   9  10
ATOM     10  C   UNL     1       0.169  -2.858   0.801  0.00  0.00    +0.133 C 
BRANCH  10  20
ATOM     11  C   UNL     1       0.832  -8.993   3.180  0.00  0.00    +0.064 C 
ATOM     12  C   UNL     1       1.007  -8.332   1.838  0.00  0.00    +0.033 A 
ATOM     13  C   UNL     1       1.389  -9.064   0.791  0.00  0.00    +0.070 A 
ATOM     14  S   UNL     1       1.445  -7.841  -0.509  0.00  0.00    -0.057 S 
ATOM     15  C   UNL     1       0.947  -6.439   0.468  0.00  0.00    +0.180 A 
ATOM     16  N   UNL     1       0.771  -6.984   1.712  0.00  0.00    -0.259 N 
ATOM     17  C   UNL     1       0.379  -6.127   2.702  0.00  0.00    +0.259 A 
ATOM     18  O   UNL     1       0.202  -6.543   3.836  0.00  0.00    -0.267 OA
ATOM     19  C   UNL     1       0.179  -4.777   2.415  0.00  0.00    +0.095 A 
ATOM     20  C   UNL     1       0.380  -4.313   1.132  0.00  0.00    +0.059 A 
ATOM     21  N   UNL     1       0.757  -5.174   0.190  0.00  0.00    -0.227 NA
ENDBRANCH  10  20
ENDBRANCH   9  10
ENDBRANCH   1   9
BRANCH   4  22
ATOM     22  C   UNL     1       1.600   3.134  -0.574  0.00  0.00    +0.118 C 
BRANCH  22  23
ATOM     23  C   UNL     1       1.741   3.922   0.703  0.00  0.00    -0.003 A 
ATOM     24  C   UNL     1       2.836   4.095   1.483  0.00  0.00    +0.011 A 
ATOM     25  C   UNL     1       2.732   4.870   2.623  0.00  0.00    +0.008 A 
ATOM     26  C   UNL     1       1.538   5.434   2.927  0.00  0.00    +0.045 A 
ATOM     27  S   UNL     1       0.511   4.877   1.576  0.00  0.00    -0.101 S 
ENDBRANCH  22  23
ENDBRANCH   4  22
TORSDOF 6
