REMARK  Name = ZINC14749906
REMARK  7 active torsions:
REMARK  status: ('A' for Active; 'I' for Inactive)
REMARK    1  A    between atoms: C_2  and  C_3
REMARK    2  A    between atoms: C_3  and  N_4
REMARK    3  A    between atoms: C_7  and  C_9
REMARK    4  A    between atoms: C_17  and  N_61
REMARK    5  A    between atoms: C_21  and  C_22
REMARK    6  A    between atoms: C_21  and  N_61
REMARK    7  A    between atoms: C_22  and  C_23
REMARK                            x       y       z     vdW  Elec       q    Type
REMARK                         _______ _______ _______ _____ _____    ______ ____
ROOT
ATOM      1  N   UNL     1       1.218  -0.431  -0.011  0.00  0.00    -0.264 N 
ATOM      2  C   UNL     1       2.070   0.606  -0.013  0.00  0.00    +0.043 A 
ATOM      3  C   UNL     1       1.325   1.738  -0.001  0.00  0.00    +0.004 A 
ATOM      4  C   UNL     1      -0.016   1.318   0.009  0.00  0.00    +0.151 A 
ATOM      5  N   UNL     1       0.002  -0.004   0.002  0.00  0.00    -0.166 NA
ATOM      6  C   UNL     1       1.888   3.133  -0.003  0.00  0.00    +0.023 C 
ATOM      7  C   UNL     1       3.361   3.056  -0.426  0.00  0.00    -0.067 C 
ATOM      8  C   UNL     1       4.075   1.982   0.399  0.00  0.00    -0.009 C 
ATOM      9  C   UNL     1       3.577   0.593  -0.022  0.00  0.00    +0.054 C 
ENDROOT
BRANCH   4  10
ATOM     10  C   UNL     1      -1.212   2.184   0.020  0.00  0.00    +0.267 C 
ATOM     11  O   UNL     1      -1.087   3.393   0.025  0.00  0.00    -0.268 OA
ATOM     12  N   UNL     1      -2.443   1.634   0.024  0.00  0.00    -0.296 N 
ATOM     13  C   UNL     1      -2.737   0.193   0.011  0.00  0.00    +0.108 C 
ATOM     14  C   UNL     1      -4.272   0.039  -0.004  0.00  0.00    +0.020 C 
ATOM     15  C   UNL     1      -4.750   1.399  -0.579  0.00  0.00    +0.020 C 
ATOM     16  C   UNL     1      -3.716   2.376   0.034  0.00  0.00    +0.108 C 
ENDBRANCH   4  10
BRANCH   7  17
ATOM     17  N   UNL     1       4.002   4.364  -0.190  0.00  0.00    +0.381 N 
ATOM     18  H   UNL     1       4.314   4.417   0.787  0.00  0.00    -0.086 HD
ATOM     19  H   UNL     1       3.322   5.111  -0.372  0.00  0.00    -0.086 HD
BRANCH  17  20
ATOM     20  C   UNL     1       5.163   4.534  -1.082  0.00  0.00    -0.077 C 
BRANCH  20  21
ATOM     21  C   UNL     1       5.806   5.897  -0.815  0.00  0.00    +0.018 C 
BRANCH  21  22
ATOM     22  C   UNL     1       6.994   6.079  -1.724  0.00  0.00    -0.024 A 
ATOM     23  C   UNL     1       8.276   5.814  -1.425  0.00  0.00    +0.087 A 
ATOM     24  N   UNL     1       9.075   6.102  -2.497  0.00  0.00    -0.360 N 
ATOM     25  H   UNL     1      10.038   5.992  -2.520  0.00  0.00    +0.165 HD
ATOM     26  C   UNL     1       8.307   6.572  -3.540  0.00  0.00    +0.047 A 
ATOM     27  C   UNL     1       6.969   6.572  -3.103  0.00  0.00    +0.003 A 
ATOM     28  C   UNL     1       5.957   7.009  -3.959  0.00  0.00    +0.010 A 
ATOM     29  C   UNL     1       6.270   7.426  -5.222  0.00  0.00    +0.001 A 
ATOM     30  C   UNL     1       7.587   7.422  -5.660  0.00  0.00    +0.002 A 
ATOM     31  C   UNL     1       8.602   6.999  -4.830  0.00  0.00    +0.026 A 
ENDBRANCH  21  22
ENDBRANCH  20  21
ENDBRANCH  17  20
ENDBRANCH   7  17
BRANCH   1  32
ATOM     32  C   UNL     1       1.612  -1.842  -0.024  0.00  0.00    +0.170 C 
BRANCH  32  34
ATOM     33  C   UNL     1       2.849  -2.866  -1.863  0.00  0.00    +0.006 C 
ATOM     34  C   UNL     1       1.733  -2.317  -1.449  0.00  0.00    -0.012 C 
ENDBRANCH  32  34
ENDBRANCH   1  32
TORSDOF 7
