REMARK  Name = ZINC08789922
REMARK  7 active torsions:
REMARK  status: ('A' for Active; 'I' for Inactive)
REMARK    1  A    between atoms: C_1  and  C_2
REMARK    2  A    between atoms: C_2  and  C_3
REMARK    3  A    between atoms: C_14  and  C_16
REMARK    4  A    between atoms: C_16  and  C_18
REMARK    5  A    between atoms: C_16  and  O_19
REMARK    6  A    between atoms: N_22  and  C_25
REMARK    7  A    between atoms: C_25  and  C_26
REMARK                            x       y       z     vdW  Elec       q    Type
REMARK                         _______ _______ _______ _____ _____    ______ ____
ROOT
ATOM      1  C   UNL     1       2.953   4.173   3.242  0.00  0.00    -0.047 A 
ATOM      2  C   UNL     1       4.322   4.340   3.342  0.00  0.00    +0.005 A 
ATOM      3  C   UNL     1       5.178   3.378   2.849  0.00  0.00    +0.024 A 
ATOM      4  C   UNL     1       4.670   2.231   2.243  0.00  0.00    +0.036 A 
ATOM      5  C   UNL     1       3.291   2.074   2.147  0.00  0.00    -0.027 A 
ATOM      6  C   UNL     1       2.439   3.036   2.642  0.00  0.00    +0.008 A 
ATOM      7  C   UNL     1       3.075   0.758   1.456  0.00  0.00    +0.050 C 
ATOM      8  C   UNL     1       2.280   0.926   0.155  0.00  0.00    +0.088 C 
ATOM      9  C   UNL     1       1.400  -0.351   0.067  0.00  0.00    +0.075 C 
ATOM     10  C   UNL     1       1.763  -1.171   1.324  0.00  0.00    -0.028 C 
ATOM     11  C   UNL     1      -0.007   0.184   0.209  0.00  0.00    +0.224 C 
ATOM     12  O   UNL     1      -1.016  -0.488   0.205  0.00  0.00    -0.275 OA
ATOM     13  N   UNL     1       0.035   1.515   0.340  0.00  0.00    -0.237 N 
ATOM     14  C   UNL     1       1.267   2.036   0.320  0.00  0.00    +0.225 C 
ATOM     15  O   UNL     1       1.529   3.216   0.418  0.00  0.00    -0.275 OA
ATOM     16  C   UNL     1       4.456   0.224   1.190  0.00  0.00    +0.211 C 
ATOM     17  O   UNL     1       4.736  -0.822   0.643  0.00  0.00    -0.277 OA
ATOM     18  N   UNL     1       5.322   1.134   1.676  0.00  0.00    -0.286 N 
ATOM     19  H   UNL     1       6.287   1.038   1.636  0.00  0.00    +0.155 HD
ATOM     20  N   UNL     1       2.297  -0.173   2.254  0.00  0.00    +0.396 N 
ATOM     21  H   UNL     1       1.529   0.319   2.726  0.00  0.00    -0.083 HD
ATOM     22  H   UNL     1       2.895  -0.626   2.955  0.00  0.00    -0.083 HD
ENDROOT
BRANCH   1  24
ATOM     23  C   UNL     1       1.719   6.251   2.688  0.00  0.00    +0.009 C 
ATOM     24  C   UNL     1       2.021   5.226   3.783  0.00  0.00    +0.032 C 
ENDBRANCH   1  24
BRANCH  10  25
ATOM     25  C   UNL     1       0.518  -1.856   1.891  0.00  0.00    +0.098 C 
ATOM     26  C   UNL     1       0.023  -2.913   0.901  0.00  0.00    +0.036 C 
BRANCH  25  27
ATOM     27  O   UNL     1       0.843  -2.482   3.133  0.00  0.00    -0.394 OA
ATOM     28  H   UNL     1       1.534  -3.156   3.065  0.00  0.00    +0.210 HD
ENDBRANCH  25  27
ENDBRANCH  10  25
BRANCH  13  29
ATOM     29  C   UNL     1      -1.170   2.334   0.487  0.00  0.00    +0.151 C 
BRANCH  29  30
ATOM     30  C   UNL     1      -1.507   2.475   1.949  0.00  0.00    -0.026 A 
ATOM     31  C   UNL     1      -0.983   3.525   2.679  0.00  0.00    +0.009 A 
ATOM     32  C   UNL     1      -1.289   3.658   4.021  0.00  0.00    +0.050 A 
ATOM     33  C   UNL     1      -2.122   2.738   4.637  0.00  0.00    +0.166 A 
ATOM     34  C   UNL     1      -2.650   1.681   3.901  0.00  0.00    +0.167 A 
ATOM     35  C   UNL     1      -2.344   1.557   2.555  0.00  0.00    +0.054 A 
ATOM     36  O   UNL     1      -3.431   0.923   4.725  0.00  0.00    -0.453 OA
ATOM     37  C   UNL     1      -3.704   1.754   5.868  0.00  0.00    +0.466 C 
ATOM     38  O   UNL     1      -2.572   2.643   5.922  0.00  0.00    -0.453 OA
ENDBRANCH  29  30
ENDBRANCH  13  29
TORSDOF 5
