REMARK  Name = ZINC00703891
REMARK  7 active torsions:
REMARK  status: ('A' for Active; 'I' for Inactive)
REMARK    1  A    between atoms: C_1  and  O_2
REMARK    2  A    between atoms: O_2  and  C_3
REMARK    3  A    between atoms: C_6  and  N_9
REMARK    4  A    between atoms: C_10  and  C_20
REMARK    5  A    between atoms: C_15  and  C_18
REMARK    6  A    between atoms: C_16  and  S_17
REMARK    7  A    between atoms: C_23  and  C_25
REMARK                            x       y       z     vdW  Elec       q    Type
REMARK                         _______ _______ _______ _____ _____    ______ ____
ROOT
ATOM      1  N   UNL     1       2.191   3.022  -0.008  0.00  0.00    -0.268 N 
ATOM      2  C   UNL     1       3.493   3.292   0.618  0.00  0.00    +0.234 C 
ATOM      3  N   UNL     1       4.455   2.264   0.217  0.00  0.00    -0.286 N 
ATOM      4  C   UNL     1       4.045   1.008  -0.052  0.00  0.00    +0.258 C 
ATOM      5  O   UNL     1       4.857   0.148  -0.343  0.00  0.00    -0.269 OA
ATOM      6  C   UNL     1       2.618   0.683   0.009  0.00  0.00    +0.141 C 
ATOM      7  C   UNL     1       1.696   1.743   0.029  0.00  0.00    +0.090 C 
ATOM      8  H   UNL     1       5.396   2.489   0.143  0.00  0.00    +0.151 HD
ENDROOT
BRANCH   1  12
ATOM      9  C   UNL     1       0.038   6.078  -1.854  0.00  0.00    +0.120 A 
ATOM     10  C   UNL     1       0.559   5.041  -2.613  0.00  0.00    +0.047 A 
ATOM     11  C   UNL     1       1.272   4.028  -2.003  0.00  0.00    +0.027 A 
ATOM     12  C   UNL     1       1.468   4.048  -0.628  0.00  0.00    +0.037 A 
ATOM     13  C   UNL     1       0.942   5.085   0.132  0.00  0.00    +0.027 A 
ATOM     14  C   UNL     1       0.234   6.099  -0.480  0.00  0.00    +0.047 A 
BRANCH   9  16
ATOM     15  C   UNL     1      -1.171   8.111  -1.613  0.00  0.00    +0.277 C 
ATOM     16  O   UNL     1      -0.664   7.075  -2.456  0.00  0.00    -0.495 OA
ENDBRANCH   9  16
ENDBRANCH   1  12
BRANCH   2  17
ATOM     17  C   UNL     1       3.344   3.281   2.118  0.00  0.00    +0.144 A 
ATOM     18  C   UNL     1       4.301   2.931   2.999  0.00  0.00    +0.049 A 
ATOM     19  C   UNL     1       3.744   3.063   4.287  0.00  0.00    +0.050 A 
ATOM     20  C   UNL     1       2.465   3.490   4.119  0.00  0.00    +0.137 A 
ATOM     21  O   UNL     1       2.238   3.624   2.798  0.00  0.00    -0.456 OA
BRANCH  20  22
ATOM     22  C   UNL     1       1.494   3.767   5.198  0.00  0.00    +0.036 A 
ATOM     23  C   UNL     1       0.789   4.973   5.215  0.00  0.00    +0.013 A 
ATOM     24  C   UNL     1      -0.116   5.225   6.225  0.00  0.00    +0.001 A 
ATOM     25  C   UNL     1      -0.327   4.287   7.220  0.00  0.00    +0.001 A 
ATOM     26  C   UNL     1       0.367   3.090   7.210  0.00  0.00    +0.021 A 
ATOM     27  C   UNL     1       1.272   2.822   6.202  0.00  0.00    +0.052 A 
ATOM     28 CL   UNL     1       2.137   1.317   6.186  0.00  0.00    -0.083 Cl
ENDBRANCH  20  22
ENDBRANCH   2  17
BRANCH   7  29
ATOM     29  S   UNL     1      -0.039   1.439   0.091  0.00  0.00    -0.126 S 
ATOM     30  H   UNL     1      -0.040   0.029   0.107  0.00  0.00    +0.108 HD
ENDBRANCH   7  29
BRANCH   6  31
ATOM     31  C   UNL     1       2.175  -0.678   0.049  0.00  0.00    +0.107 C 
ATOM     32  N   UNL     1       1.824  -1.758   0.081  0.00  0.00    -0.191 NA
ENDBRANCH   6  31
TORSDOF 6
