REMARK  Name = ZINC22649362
REMARK  6 active torsions:
REMARK  status: ('A' for Active; 'I' for Inactive)
REMARK    1  A    between atoms: C_1  and  C_2
REMARK    2  A    between atoms: C_7  and  C_8
REMARK    3  A    between atoms: C_8  and  C_9
REMARK    4  A    between atoms: N_11  and  C_12
REMARK    5  A    between atoms: C_21  and  C_27
REMARK    6  A    between atoms: C_22  and  C_26
REMARK                            x       y       z     vdW  Elec       q    Type
REMARK                         _______ _______ _______ _____ _____    ______ ____
ROOT
ATOM      1  C   UNL     1      -3.152   3.638   0.465  0.00  0.00    +0.078 C 
ATOM      2  C   UNL     1      -3.486   2.402  -0.375  0.00  0.00    +0.028 C 
ATOM      3  C   UNL     1      -2.570   1.243   0.032  0.00  0.00    +0.055 C 
ATOM      4  C   UNL     1      -1.140   1.735   0.016  0.00  0.00    +0.020 A 
ATOM      5  C   UNL     1      -0.800   3.038   0.025  0.00  0.00    -0.017 A 
ATOM      6  C   UNL     1       0.658   3.107   0.011  0.00  0.00    +0.003 A 
ATOM      7  C   UNL     1       1.586   4.151   0.007  0.00  0.00    +0.010 A 
ATOM      8  C   UNL     1       2.923   3.872  -0.006  0.00  0.00    +0.004 A 
ATOM      9  C   UNL     1       3.369   2.558  -0.016  0.00  0.00    -0.046 A 
ATOM     10  C   UNL     1       2.473   1.512  -0.012  0.00  0.00    -0.024 A 
ATOM     11  C   UNL     1       1.106   1.772   0.001  0.00  0.00    +0.050 A 
ATOM     12  N   UNL     1      -0.011   0.966   0.007  0.00  0.00    -0.357 N 
ATOM     13  H   UNL     1      -0.093  -0.131   0.006  0.00  0.00    +0.166 HD
ATOM     14  C   UNL     1       2.971   0.090  -0.022  0.00  0.00    +0.046 C 
ATOM     15  C   UNL     1       4.849   2.272  -0.030  0.00  0.00    +0.044 C 
ATOM     16  C   UNL     1      -1.781   4.181   0.043  0.00  0.00    +0.059 C 
ENDROOT
BRANCH   1  19
ATOM     17  C   UNL     1      -5.310   4.647   0.972  0.00  0.00    +0.218 C 
ATOM     18  O   UNL     1      -5.489   3.779   1.800  0.00  0.00    -0.275 OA
ATOM     19  N   UNL     1      -4.173   4.666   0.250  0.00  0.00    -0.312 N 
ATOM     20  H   UNL     1      -4.011   5.453  -0.501  0.00  0.00    +0.149 HD
BRANCH  17  21
ATOM     21  C   UNL     1      -6.361   5.705   0.751  0.00  0.00    +0.131 C 
BRANCH  21  28
ATOM     22  C   UNL     1      -6.297   6.726   3.453  0.00  0.00    +0.044 C 
ATOM     23  C   UNL     1      -7.494   5.948   2.970  0.00  0.00    -0.047 A 
ATOM     24  C   UNL     1      -8.561   5.723   3.819  0.00  0.00    +0.003 A 
ATOM     25  C   UNL     1      -9.658   5.009   3.376  0.00  0.00    +0.000 A 
ATOM     26  C   UNL     1      -9.689   4.520   2.083  0.00  0.00    +0.000 A 
ATOM     27  C   UNL     1      -8.624   4.750   1.232  0.00  0.00    +0.004 A 
ATOM     28  C   UNL     1      -7.524   5.460   1.677  0.00  0.00    -0.036 A 
ENDBRANCH  21  28
ENDBRANCH  17  21
ENDBRANCH   1  19
TORSDOF 3
