REMARK  Name = ZINC37285963
REMARK  4 active torsions:
REMARK  status: ('A' for Active; 'I' for Inactive)
REMARK    1  A    between atoms: C_4  and  C_10
REMARK    2  A    between atoms: C_6  and  N_7
REMARK    3  A    between atoms: N_12  and  C_13
REMARK    4  A    between atoms: C_16  and  O_19
REMARK                            x       y       z     vdW  Elec       q    Type
REMARK                         _______ _______ _______ _____ _____    ______ ____
ROOT
ATOM      1  C   UNL     1       3.693  -0.689  -0.038  0.00  0.00    +0.247 C 
ATOM      2  O   UNL     1       4.737  -0.065  -0.046  0.00  0.00    -0.270 OA
ATOM      3  N   UNL     1       3.713  -2.036  -0.046  0.00  0.00    -0.308 N 
ATOM      4  H   UNL     1       2.881  -2.534  -0.040  0.00  0.00    +0.149 HD
ENDROOT
BRANCH   1   8
ATOM      5  C   UNL     1      -0.017   1.380   0.010  0.00  0.00    +0.035 A 
ATOM      6  C   UNL     1       1.167   2.094   0.002  0.00  0.00    +0.041 A 
ATOM      7  C   UNL     1       2.379   1.429  -0.013  0.00  0.00    +0.136 A 
ATOM      8  C   UNL     1       2.404   0.031  -0.021  0.00  0.00    +0.074 A 
ATOM      9  C   UNL     1       1.203  -0.682  -0.013  0.00  0.00    +0.048 A 
ATOM     10  C   UNL     1       0.002  -0.004   0.002  0.00  0.00    +0.127 A 
ATOM     11  F   UNL     1       3.535   2.127  -0.022  0.00  0.00    -0.205 F 
BRANCH  10  12
ATOM     12  N   UNL     1      -1.271  -0.759   0.010  0.00  0.00    +0.056 N 
ATOM     13  O   UNL     1      -2.325  -0.167   0.023  0.00  0.00    -0.126 OA
ATOM     14  O   UNL     1      -1.257  -1.968   0.004  0.00  0.00    -0.126 OA
ENDBRANCH  10  12
ENDBRANCH   1   8
BRANCH   3  15
ATOM     15  C   UNL     1       4.993  -2.750  -0.063  0.00  0.00    +0.073 C 
ATOM     16  C   UNL     1       5.514  -2.896   1.368  0.00  0.00    +0.025 C 
ATOM     17  C   UNL     1       6.850  -3.642   1.350  0.00  0.00    +0.033 C 
ATOM     18  C   UNL     1       6.652  -5.028   0.735  0.00  0.00    +0.115 C 
ATOM     19  C   UNL     1       6.131  -4.882  -0.696  0.00  0.00    +0.033 C 
ATOM     20  C   UNL     1       4.795  -4.137  -0.678  0.00  0.00    +0.025 C 
BRANCH  18  21
ATOM     21  O   UNL     1       5.707  -5.764   1.514  0.00  0.00    -0.392 OA
ATOM     22  H   UNL     1       5.532  -6.655   1.181  0.00  0.00    +0.210 HD
ENDBRANCH  18  21
ENDBRANCH   3  15
TORSDOF 4
