REMARK  Name = ZINC66123403
REMARK  10 active torsions:
REMARK  status: ('A' for Active; 'I' for Inactive)
REMARK    1  A    between atoms: C_1  and  C_2
REMARK    2  A    between atoms: C_5  and  C_7
REMARK    3  A    between atoms: C_10  and  C_12
REMARK    4  A    between atoms: N_14  and  N_15
REMARK    5  A    between atoms: N_15  and  C_16
REMARK    6  A    between atoms: C_16  and  N_18
REMARK    7  A    between atoms: N_18  and  C_19
REMARK    8  A    between atoms: C_24  and  C_25
REMARK    9  A    between atoms: C_25  and  C_26
REMARK   10  A    between atoms: C_25  and  C_27
REMARK                            x       y       z     vdW  Elec       q    Type
REMARK                         _______ _______ _______ _____ _____    ______ ____
ROOT
ATOM      1  N   UNL     1       3.183  -7.451   2.438  0.00  0.00    -0.246 N 
ATOM      2  H   UNL     1       2.857  -7.943   1.668  0.00  0.00    +0.172 HD
ENDROOT
BRANCH   1   5
ATOM      3  C   UNL     1       1.392  -5.896   2.233  0.00  0.00    +0.233 C 
ATOM      4  O   UNL     1       0.985  -6.511   1.271  0.00  0.00    -0.274 OA
ATOM      5  N   UNL     1       2.501  -6.309   2.879  0.00  0.00    -0.235 N 
ATOM      6  H   UNL     1       2.826  -5.817   3.648  0.00  0.00    +0.173 HD
BRANCH   3   9
ATOM      7  C   UNL     1      -0.593  -4.250   1.933  0.00  0.00    +0.038 C 
ATOM      8  C   UNL     1      -0.728  -4.868   3.326  0.00  0.00    +0.022 C 
ATOM      9  C   UNL     1       0.658  -4.668   2.708  0.00  0.00    +0.085 C 
BRANCH   7  14
ATOM     10  C   UNL     1      -1.649   1.295   2.412  0.00  0.00    +0.051 C 
ATOM     11  C   UNL     1      -1.370  -0.134   2.026  0.00  0.00    -0.013 A 
ATOM     12  C   UNL     1      -1.233  -0.673   0.789  0.00  0.00    +0.011 A 
ATOM     13  C   UNL     1      -0.975  -2.026   0.672  0.00  0.00    +0.012 A 
ATOM     14  C   UNL     1      -0.867  -2.774   1.798  0.00  0.00    -0.006 A 
ATOM     15  S   UNL     1      -1.126  -1.556   3.077  0.00  0.00    -0.098 S 
ENDBRANCH   7  14
ENDBRANCH   3   9
ENDBRANCH   1   5
BRANCH   1  16
ATOM     16  C   UNL     1       4.291  -7.864   3.083  0.00  0.00    +0.151 C 
ATOM     17  S   UNL     1       5.125  -9.259   2.544  0.00  0.00    -0.017 S 
BRANCH  16  18
ATOM     18  N   UNL     1       4.744  -7.180   4.152  0.00  0.00    -0.296 N 
ATOM     19  H   UNL     1       4.319  -6.347   4.410  0.00  0.00    +0.154 HD
BRANCH  18  20
ATOM     20  C   UNL     1       5.825  -7.672   4.891  0.00  0.00    +0.036 A 
ATOM     21  C   UNL     1       5.879  -9.017   5.235  0.00  0.00    +0.023 A 
ATOM     22  C   UNL     1       6.948  -9.499   5.964  0.00  0.00    +0.002 A 
ATOM     23  C   UNL     1       7.963  -8.644   6.353  0.00  0.00    +0.000 A 
ATOM     24  C   UNL     1       7.912  -7.305   6.014  0.00  0.00    +0.006 A 
ATOM     25  C   UNL     1       6.849  -6.818   5.278  0.00  0.00    -0.024 A 
BRANCH  25  26
ATOM     26  C   UNL     1       6.797  -5.359   4.903  0.00  0.00    +0.015 C 
ATOM     27  C   UNL     1       6.766  -4.506   6.173  0.00  0.00    +0.012 C 
ATOM     28  C   UNL     1       8.035  -5.000   4.078  0.00  0.00    +0.012 C 
ENDBRANCH  25  26
ENDBRANCH  18  20
ENDBRANCH  16  18
ENDBRANCH   1  16
TORSDOF 7
