REMARK  Name = ZINC35746809
REMARK  16 active torsions:
REMARK  status: ('A' for Active; 'I' for Inactive)
REMARK    1  A    between atoms: C_1  and  C_2
REMARK    2  A    between atoms: C_2  and  C_3
REMARK    3  A    between atoms: C_3  and  C_4
REMARK    4  A    between atoms: C_4  and  C_6
REMARK    5  A    between atoms: C_4  and  O_33
REMARK    6  A    between atoms: C_6  and  N_7
REMARK    7  A    between atoms: N_7  and  C_8
REMARK    8  A    between atoms: N_7  and  C_14
REMARK    9  A    between atoms: C_8  and  C_9
REMARK   10  A    between atoms: C_14  and  C_15
REMARK   11  A    between atoms: C_21  and  C_32
REMARK   12  A    between atoms: C_22  and  C_26
REMARK   13  A    between atoms: C_26  and  O_28
REMARK   14  A    between atoms: O_28  and  C_29
REMARK   15  A    between atoms: C_29  and  C_30
REMARK   16  A    between atoms: C_29  and  C_31
REMARK                            x       y       z     vdW  Elec       q    Type
REMARK                         _______ _______ _______ _____ _____    ______ ____
ROOT
ATOM      1  C   UNL     1      -3.496  -6.468   0.675  0.00  0.00    +0.094 A 
ATOM      2  N   UNL     1      -4.516  -7.335   0.886  0.00  0.00    -0.312 N 
ATOM      3  H   UNL     1      -5.415  -6.992   1.002  0.00  0.00    +0.170 HD
ATOM      4  C   UNL     1      -4.306  -8.665   0.937  0.00  0.00    +0.260 A 
ATOM      5  O   UNL     1      -5.229  -9.437   1.126  0.00  0.00    -0.267 OA
ATOM      6  C   UNL     1      -2.923  -9.165   0.756  0.00  0.00    +0.076 A 
ATOM      7  C   UNL     1      -2.451 -10.479   0.766  0.00  0.00    -0.015 A 
ATOM      8  C   UNL     1      -1.122 -10.724   0.577  0.00  0.00    +0.102 A 
ATOM      9  S   UNL     1      -0.444  -9.086   0.371  0.00  0.00    -0.062 S 
ATOM     10  C   UNL     1      -1.949  -8.162   0.544  0.00  0.00    +0.116 A 
ATOM     11  N   UNL     1      -2.267  -6.874   0.507  0.00  0.00    -0.229 NA
ATOM     12  C   UNL     1      -3.408 -11.623   0.984  0.00  0.00    +0.046 C 
ENDROOT
BRANCH   8  13
ATOM     13  C   UNL     1      -0.425 -12.012   0.550  0.00  0.00    +0.346 C 
ATOM     14  O   UNL     1      -1.049 -13.044   0.710  0.00  0.00    -0.244 OA
BRANCH  13  15
ATOM     15  O   UNL     1       0.908 -12.054   0.348  0.00  0.00    -0.458 OA
BRANCH  15  16
ATOM     16  C   UNL     1       1.522 -13.344   0.335  0.00  0.00    +0.171 C 
ATOM     17  C   UNL     1       2.744 -13.317  -0.586  0.00  0.00    +0.052 C 
ATOM     18  C   UNL     1       1.959 -13.716   1.753  0.00  0.00    +0.052 C 
ENDBRANCH  15  16
ENDBRANCH  13  15
ENDBRANCH   8  13
BRANCH   1  19
ATOM     19  C   UNL     1      -3.790  -4.990   0.627  0.00  0.00    -0.003 C 
BRANCH  19  20
ATOM     20  N   UNL     1      -2.545  -4.250   0.383  0.00  0.00    +0.391 N 
ATOM     21  H   UNL     1      -1.862  -4.502   1.082  0.00  0.00    -0.080 HD
BRANCH  20  22
ATOM     22  C   UNL     1      -2.811  -2.808   0.455  0.00  0.00    -0.046 C 
BRANCH  22  23
ATOM     23  C   UNL     1      -3.212  -2.433   1.883  0.00  0.00    +0.098 C 
BRANCH  23  24
ATOM     24  O   UNL     1      -2.135  -2.733   2.774  0.00  0.00    -0.394 OA
ATOM     25  H   UNL     1      -1.337  -2.211   2.616  0.00  0.00    +0.210 HD
ENDBRANCH  23  24
BRANCH  23  26
ATOM     26  C   UNL     1      -3.526  -0.938   1.949  0.00  0.00    +0.029 C 
BRANCH  26  28
ATOM     27  C   UNL     1      -4.361   0.909   3.411  0.00  0.00    +0.004 C 
ATOM     28  C   UNL     1      -4.046  -0.587   3.345  0.00  0.00    -0.001 C 
ENDBRANCH  26  28
ENDBRANCH  23  26
ENDBRANCH  22  23
ENDBRANCH  20  22
BRANCH  20  29
ATOM     29  C   UNL     1      -2.028  -4.587  -0.950  0.00  0.00    -0.002 C 
BRANCH  29  30
ATOM     30  C   UNL     1      -0.680  -3.942  -1.144  0.00  0.00    +0.089 A 
ATOM     31  C   UNL     1       0.499  -4.447  -0.739  0.00  0.00    +0.042 A 
ATOM     32  C   UNL     1       1.495  -3.521  -1.124  0.00  0.00    +0.041 A 
ATOM     33  C   UNL     1       0.865  -2.506  -1.742  0.00  0.00    +0.195 A 
ATOM     34  O   UNL     1      -0.452  -2.769  -1.757  0.00  0.00    -0.470 OA
ENDBRANCH  29  30
ENDBRANCH  20  29
ENDBRANCH  19  20
ENDBRANCH   1  19
TORSDOF 12
