REMARK  Name = ZINC13148883
REMARK  7 active torsions:
REMARK  status: ('A' for Active; 'I' for Inactive)
REMARK    1  A    between atoms: C_1  and  C_2
REMARK    2  A    between atoms: C_9  and  N_14
REMARK    3  A    between atoms: C_10  and  C_11
REMARK    4  A    between atoms: C_15  and  C_17
REMARK    5  A    between atoms: C_17  and  S_18
REMARK    6  A    between atoms: S_18  and  C_19
REMARK    7  A    between atoms: N_29  and  C_30
REMARK                            x       y       z     vdW  Elec       q    Type
REMARK                         _______ _______ _______ _____ _____    ______ ____
ROOT
ATOM      1  N   UNL     1       7.479   1.078  -0.060  0.00  0.00    -0.279 N 
ATOM      2  C   UNL     1       6.458   0.198  -0.056  0.00  0.00    +0.228 C 
ATOM      3  O   UNL     1       6.685  -0.994  -0.064  0.00  0.00    -0.275 OA
ATOM      4  H   UNL     1       7.298   2.031  -0.054  0.00  0.00    +0.155 HD
ENDROOT
BRANCH   1  12
ATOM      5  C   UNL     1      14.709  -1.902  -0.241  0.00  0.00    +0.008 C 
ATOM      6  C   UNL     1      13.511  -0.989  -0.509  0.00  0.00    -0.009 C 
ATOM      7  C   UNL     1      13.637   0.284   0.333  0.00  0.00    +0.008 C 
ATOM      8  C   UNL     1      12.586   1.305  -0.106  0.00  0.00    +0.037 C 
ATOM      9  C   UNL     1      11.217   0.635  -0.097  0.00  0.00    -0.023 A 
ATOM     10  C   UNL     1      11.102  -0.711  -0.103  0.00  0.00    -0.004 A 
ATOM     11  S   UNL     1       9.358  -1.015  -0.088  0.00  0.00    -0.077 S 
ATOM     12  C   UNL     1       8.788   0.621  -0.074  0.00  0.00    +0.084 A 
ATOM     13  C   UNL     1       9.961   1.364  -0.087  0.00  0.00    +0.068 A 
ATOM     14  C   UNL     1      12.214  -1.713  -0.121  0.00  0.00    +0.046 C 
BRANCH  13  15
ATOM     15  C   UNL     1       9.932   2.830  -0.086  0.00  0.00    +0.244 C 
ATOM     16  O   UNL     1       9.932   3.438   0.969  0.00  0.00    -0.270 OA
ATOM     17  N   UNL     1       9.905   3.504  -1.252  0.00  0.00    -0.325 N 
ATOM     18  H   UNL     1       9.905   3.020  -2.092  0.00  0.00    +0.145 HD
ATOM     19  H   UNL     1       9.886   4.474  -1.251  0.00  0.00    +0.145 HD
ENDBRANCH  13  15
ENDBRANCH   1  12
BRANCH   2  20
ATOM     20  C   UNL     1       5.036   0.694  -0.040  0.00  0.00    +0.173 C 
BRANCH  20  21
ATOM     21  S   UNL     1       3.904  -0.718  -0.037  0.00  0.00    -0.078 S 
BRANCH  21  22
ATOM     22  C   UNL     1       2.358   0.128  -0.019  0.00  0.00    +0.173 A 
ATOM     23  N   UNL     1       2.364   1.438  -0.012  0.00  0.00    -0.223 NA
ATOM     24  C   UNL     1       1.219   2.150   0.002  0.00  0.00    +0.079 A 
ATOM     25  C   UNL     1       1.224   3.548   0.010  0.00  0.00    +0.028 A 
ATOM     26  C   UNL     1       0.040   4.229   0.025  0.00  0.00    +0.002 A 
ATOM     27  C   UNL     1      -1.173   3.552   0.033  0.00  0.00    +0.001 A 
ATOM     28  C   UNL     1      -1.211   2.185   0.031  0.00  0.00    +0.015 A 
ATOM     29  C   UNL     1      -0.018   1.465   0.010  0.00  0.00    +0.065 A 
ATOM     30  C   UNL     1       0.002  -0.004   0.002  0.00  0.00    +0.263 A 
ATOM     31  O   UNL     1      -1.030  -0.650   0.008  0.00  0.00    -0.267 OA
ATOM     32  N   UNL     1       1.211  -0.613  -0.013  0.00  0.00    -0.284 N 
BRANCH  32  33
ATOM     33  C   UNL     1       1.289  -2.075  -0.021  0.00  0.00    +0.093 C 
ATOM     34  C   UNL     1       0.537  -2.638  -1.245  0.00  0.00    +0.025 C 
ATOM     35  C   UNL     1      -0.130  -3.933  -0.718  0.00  0.00    +0.002 C 
ATOM     36  C   UNL     1      -0.560  -3.538   0.717  0.00  0.00    +0.002 C 
ATOM     37  C   UNL     1       0.592  -2.648   1.226  0.00  0.00    +0.025 C 
ENDBRANCH  32  33
ENDBRANCH  21  22
ENDBRANCH  20  21
ENDBRANCH   2  20
TORSDOF 6
