REMARK  Name = ZINC13063797
REMARK  13 active torsions:
REMARK  status: ('A' for Active; 'I' for Inactive)
REMARK    1  A    between atoms: C_1  and  C_2
REMARK    2  A    between atoms: C_2  and  C_3
REMARK    3  A    between atoms: C_3  and  C_5
REMARK    4  A    between atoms: C_3  and  N_71
REMARK    5  A    between atoms: N_9  and  C_10
REMARK    6  A    between atoms: C_10  and  C_11
REMARK    7  A    between atoms: C_10  and  C_12
REMARK    8  A    between atoms: C_10  and  C_13
REMARK    9  A    between atoms: C_13  and  C_14
REMARK   10  A    between atoms: C_15  and  C_16
REMARK   11  A    between atoms: C_15  and  N_71
REMARK   12  A    between atoms: C_21  and  C_28
REMARK   13  A    between atoms: C_29  and  N_71
REMARK                            x       y       z     vdW  Elec       q    Type
REMARK                         _______ _______ _______ _____ _____    ______ ____
ROOT
ATOM      1  N   UNL     1      -1.297   2.537   1.504  0.00  0.00    +0.391 N 
ATOM      2  H   UNL     1      -1.736   2.962   2.329  0.00  0.00    -0.080 HD
ENDROOT
BRANCH   1   3
ATOM      3  C   UNL     1       0.004   3.196   1.261  0.00  0.00    -0.067 C 
ATOM      4  C   UNL     1       0.771   2.475   0.151  0.00  0.00    -0.015 C 
ATOM      5  C   UNL     1       2.113   3.174  -0.079  0.00  0.00    -0.002 C 
ATOM      6  C   UNL     1       2.933   3.141   1.213  0.00  0.00    -0.000 C 
ATOM      7  C   UNL     1       2.165   3.863   2.322  0.00  0.00    -0.002 C 
ATOM      8  C   UNL     1       0.824   3.164   2.552  0.00  0.00    -0.015 C 
ENDBRANCH   1   3
BRANCH   1   9
ATOM      9  C   UNL     1      -1.093   1.096   1.758  0.00  0.00    +0.003 C 
BRANCH   9  10
ATOM     10  C   UNL     1      -0.835   0.364   0.465  0.00  0.00    +0.139 A 
ATOM     11  N   UNL     1      -1.373   0.624  -0.702  0.00  0.00    -0.115 NA
ATOM     12  N   UNL     1      -0.901  -0.219  -1.554  0.00  0.00    -0.023 NA
ATOM     13  N   UNL     1      -0.076  -1.009  -0.961  0.00  0.00    -0.043 NA
ATOM     14  N   UNL     1      -0.004  -0.679   0.284  0.00  0.00    -0.225 N 
BRANCH  14  15
ATOM     15  C   UNL     1       0.824  -1.320   1.308  0.00  0.00    +0.061 C 
ATOM     16  C   UNL     1       1.911  -0.346   1.769  0.00  0.00    +0.036 C 
ATOM     17  C   UNL     1      -0.051  -1.709   2.501  0.00  0.00    +0.036 C 
BRANCH  15  18
ATOM     18  C   UNL     1       1.477  -2.574   0.724  0.00  0.00    +0.026 C 
ATOM     19  C   UNL     1       2.342  -3.244   1.794  0.00  0.00    +0.006 C 
ENDBRANCH  15  18
ENDBRANCH  14  15
ENDBRANCH   9  10
BRANCH   9  21
ATOM     20  C   UNL     1      -2.544   1.189   3.789  0.00  0.00    +0.002 C 
ATOM     21  C   UNL     1      -2.350   0.531   2.421  0.00  0.00    -0.011 C 
ENDBRANCH   9  21
ENDBRANCH   1   9
BRANCH   1  22
ATOM     22  C   UNL     1      -2.184   2.725   0.338  0.00  0.00    -0.036 C 
BRANCH  22  23
ATOM     23  C   UNL     1      -2.697   4.142   0.343  0.00  0.00    +0.001 A 
ATOM     24  C   UNL     1      -2.084   5.085  -0.415  0.00  0.00    +0.017 A 
ATOM     25  C   UNL     1      -2.610   6.451  -0.392  0.00  0.00    -0.001 A 
ATOM     26  C   UNL     1      -2.023   7.465  -1.156  0.00  0.00    +0.010 A 
ATOM     27  C   UNL     1      -2.534   8.731  -1.108  0.00  0.00    +0.004 A 
ATOM     28  C   UNL     1      -3.631   9.020  -0.308  0.00  0.00    -0.048 A 
ATOM     29  C   UNL     1      -4.226   8.036   0.452  0.00  0.00    +0.029 A 
ATOM     30  C   UNL     1      -3.723   6.740   0.420  0.00  0.00    +0.049 A 
ATOM     31  N   UNL     1      -4.297   5.737   1.171  0.00  0.00    -0.322 N 
ATOM     32  H   UNL     1      -5.064   5.938   1.730  0.00  0.00    +0.169 HD
ATOM     33  C   UNL     1      -3.810   4.484   1.140  0.00  0.00    +0.251 A 
ATOM     34  O   UNL     1      -4.343   3.622   1.817  0.00  0.00    -0.268 OA
ATOM     35  C   UNL     1      -4.178  10.424  -0.271  0.00  0.00    +0.044 C 
ENDBRANCH  22  23
ENDBRANCH   1  22
TORSDOF 8
