REMARK  Name = ZINC36049392
REMARK  10 active torsions:
REMARK  status: ('A' for Active; 'I' for Inactive)
REMARK    1  A    between atoms: C_1  and  C_2
REMARK    2  A    between atoms: C_5  and  N_9
REMARK    3  A    between atoms: C_7  and  C_8
REMARK    4  A    between atoms: C_11  and  C_34
REMARK    5  A    between atoms: C_15  and  C_17
REMARK    6  A    between atoms: C_17  and  N_18
REMARK    7  A    between atoms: N_18  and  C_19
REMARK    8  A    between atoms: C_19  and  C_20
REMARK    9  A    between atoms: C_25  and  C_27
REMARK   10  A    between atoms: C_27  and  C_28
REMARK                            x       y       z     vdW  Elec       q    Type
REMARK                         _______ _______ _______ _____ _____    ______ ____
ROOT
ATOM      1  N   UNL     1       0.059  -4.172  -0.021  0.00  0.00    -0.287 N 
ATOM      2  C   UNL     1       0.916  -4.980   0.685  0.00  0.00    +0.122 A 
ATOM      3  C   UNL     1       0.585  -6.261   0.386  0.00  0.00    +0.091 A 
ATOM      4  N   UNL     1      -0.450  -6.234  -0.482  0.00  0.00    -0.214 NA
ATOM      5  C   UNL     1      -0.775  -4.989  -0.726  0.00  0.00    +0.207 A 
ATOM      6  N   UNL     1      -1.797  -4.570  -1.568  0.00  0.00    -0.254 N 
ATOM      7  C   UNL     1      -2.555  -5.479  -2.212  0.00  0.00    +0.237 C 
ATOM      8  O   UNL     1      -2.345  -6.663  -2.057  0.00  0.00    -0.274 OA
ATOM      9  H   UNL     1      -1.966  -3.623  -1.692  0.00  0.00    +0.158 HD
ENDROOT
BRANCH   1  14
ATOM     10  C   UNL     1      -0.018   1.503   0.010  0.00  0.00    +0.044 C 
ATOM     11  C   UNL     1       0.002  -0.004   0.002  0.00  0.00    -0.047 A 
ATOM     12  C   UNL     1       0.006  -0.688  -1.200  0.00  0.00    +0.005 A 
ATOM     13  C   UNL     1       0.025  -2.068  -1.211  0.00  0.00    +0.026 A 
ATOM     14  C   UNL     1       0.040  -2.771  -0.013  0.00  0.00    +0.049 A 
ATOM     15  C   UNL     1       0.037  -2.082   1.192  0.00  0.00    +0.029 A 
ATOM     16  C   UNL     1       0.023  -0.700   1.196  0.00  0.00    -0.046 A 
ATOM     17  C   UNL     1       0.025   0.048   2.504  0.00  0.00    +0.044 C 
ENDBRANCH   1  14
BRANCH   3  18
ATOM     18  C   UNL     1       1.244  -7.479   0.918  0.00  0.00    +0.002 A 
ATOM     19  C   UNL     1       2.303  -7.365   1.816  0.00  0.00    +0.010 A 
ATOM     20  C   UNL     1       2.912  -8.502   2.308  0.00  0.00    +0.001 A 
ATOM     21  C   UNL     1       2.474  -9.752   1.911  0.00  0.00    +0.000 A 
ATOM     22  C   UNL     1       1.423  -9.871   1.019  0.00  0.00    +0.001 A 
ATOM     23  C   UNL     1       0.801  -8.742   0.526  0.00  0.00    +0.010 A 
ENDBRANCH   3  18
BRANCH   7  24
ATOM     24  C   UNL     1      -3.664  -5.024  -3.125  0.00  0.00    +0.204 C 
BRANCH  24  25
ATOM     25  N   UNL     1      -4.334  -6.194  -3.700  0.00  0.00    -0.285 N 
ATOM     26  C   UNL     1      -3.896  -6.717  -4.863  0.00  0.00    +0.221 C 
ATOM     27  O   UNL     1      -2.948  -6.220  -5.433  0.00  0.00    -0.275 OA
BRANCH  25  28
ATOM     28  C   UNL     1      -5.479  -6.794  -3.012  0.00  0.00    +0.182 C 
BRANCH  28  29
ATOM     29  C   UNL     1      -6.751  -6.145  -3.492  0.00  0.00    +0.122 A 
ATOM     30  C   UNL     1      -7.501  -6.556  -4.530  0.00  0.00    +0.046 A 
ATOM     31  C   UNL     1      -8.594  -5.664  -4.624  0.00  0.00    +0.041 A 
ATOM     32  C   UNL     1      -8.446  -4.761  -3.639  0.00  0.00    +0.195 A 
ATOM     33  O   UNL     1      -7.331  -5.060  -2.952  0.00  0.00    -0.466 OA
ENDBRANCH  28  29
ENDBRANCH  25  28
BRANCH  26  34
ATOM     34  C   UNL     1      -4.585  -7.920  -5.454  0.00  0.00    +0.131 C 
BRANCH  34  35
ATOM     35  C   UNL     1      -3.907  -8.303  -6.745  0.00  0.00    -0.039 A 
ATOM     36  C   UNL     1      -4.333  -7.753  -7.939  0.00  0.00    +0.004 A 
ATOM     37  C   UNL     1      -3.712  -8.104  -9.123  0.00  0.00    +0.000 A 
ATOM     38  C   UNL     1      -2.663  -9.005  -9.112  0.00  0.00    +0.000 A 
ATOM     39  C   UNL     1      -2.236  -9.554  -7.917  0.00  0.00    +0.000 A 
ATOM     40  C   UNL     1      -2.855  -9.199  -6.733  0.00  0.00    +0.004 A 
ENDBRANCH  34  35
ENDBRANCH  26  34
ENDBRANCH  24  25
ENDBRANCH   7  24
TORSDOF 8
