REMARK  Name = ZINC09189985
REMARK  3 active torsions:
REMARK  status: ('A' for Active; 'I' for Inactive)
REMARK    1  A    between atoms: C_1  and  C_2
REMARK    2  A    between atoms: C_3  and  C_17
REMARK    3  A    between atoms: C_17  and  C_18
REMARK                            x       y       z     vdW  Elec       q    Type
REMARK                         _______ _______ _______ _____ _____    ______ ____
ROOT
ATOM      1  C   UNL     1       2.289  -5.177   1.565  0.00  0.00    +0.064 C 
ATOM      2  C   UNL     1       3.015  -3.975   2.114  0.00  0.00    +0.024 A 
ATOM      3  C   UNL     1       3.151  -2.866   1.355  0.00  0.00    +0.041 A 
ATOM      4  C   UNL     1       3.837  -1.746   1.873  0.00  0.00    +0.264 A 
ATOM      5  O   UNL     1       3.969  -0.743   1.195  0.00  0.00    -0.267 OA
ATOM      6  N   UNL     1       4.340  -1.788   3.122  0.00  0.00    -0.245 N 
ATOM      7  C   UNL     1       5.040  -0.860   3.877  0.00  0.00    +0.078 A 
ATOM      8  C   UNL     1       5.476   0.436   3.647  0.00  0.00    +0.028 A 
ATOM      9  C   UNL     1       6.168   1.113   4.630  0.00  0.00    +0.002 A 
ATOM     10  C   UNL     1       6.433   0.505   5.848  0.00  0.00    +0.002 A 
ATOM     11  C   UNL     1       6.009  -0.782   6.094  0.00  0.00    +0.030 A 
ATOM     12  C   UNL     1       5.305  -1.481   5.109  0.00  0.00    +0.092 A 
ATOM     13  N   UNL     1       4.770  -2.727   5.054  0.00  0.00    -0.212 NA
ATOM     14  C   UNL     1       4.199  -2.916   3.887  0.00  0.00    +0.217 A 
ATOM     15  N   UNL     1       3.533  -4.010   3.375  0.00  0.00    -0.329 N 
ATOM     16  H   UNL     1       3.433  -4.810   3.915  0.00  0.00    +0.168 HD
ENDROOT
BRANCH   3  17
ATOM     17  C   UNL     1       2.579  -2.826  -0.038  0.00  0.00    +0.078 C 
BRANCH  17  18
ATOM     18  C   UNL     1       1.204  -2.210   0.000  0.00  0.00    -0.035 A 
ATOM     19  C   UNL     1       0.628  -1.897   1.193  0.00  0.00    +0.004 A 
ATOM     20  C   UNL     1      -0.642  -1.328   1.249  0.00  0.00    +0.001 A 
ATOM     21  C   UNL     1      -1.344  -1.068   0.112  0.00  0.00    +0.008 A 
ATOM     22  C   UNL     1      -0.782  -1.377  -1.138  0.00  0.00    -0.018 A 
ATOM     23  C   UNL     1       0.510  -1.956  -1.195  0.00  0.00    -0.014 A 
ATOM     24  C   UNL     1       1.073  -2.266  -2.445  0.00  0.00    +0.009 A 
ATOM     25  C   UNL     1       0.371  -2.006  -3.582  0.00  0.00    +0.001 A 
ATOM     26  C   UNL     1      -0.900  -1.436  -3.526  0.00  0.00    +0.001 A 
ATOM     27  C   UNL     1      -1.476  -1.123  -2.334  0.00  0.00    +0.008 A 
ENDBRANCH  17  18
ENDBRANCH   3  17
TORSDOF 2
