REMARK  Name = ZINC36029687
REMARK  12 active torsions:
REMARK  status: ('A' for Active; 'I' for Inactive)
REMARK    1  A    between atoms: C_1  and  C_2
REMARK    2  A    between atoms: C_2  and  C_3
REMARK    3  A    between atoms: C_2  and  C_4
REMARK    4  A    between atoms: C_4  and  C_5
REMARK    5  A    between atoms: N_9  and  C_23
REMARK    6  A    between atoms: C_17  and  C_19
REMARK    7  A    between atoms: C_23  and  C_24
REMARK    8  A    between atoms: C_24  and  C_25
REMARK    9  A    between atoms: C_28  and  O_33
REMARK   10  A    between atoms: C_29  and  O_31
REMARK   11  A    between atoms: O_31  and  C_32
REMARK   12  A    between atoms: O_33  and  C_34
REMARK                            x       y       z     vdW  Elec       q    Type
REMARK                         _______ _______ _______ _____ _____    ______ ____
ROOT
ATOM      1  C   UNL     1      -1.438  -1.976  -0.007  0.00  0.00    +0.019 C 
ATOM      2  C   UNL     1      -2.850  -2.510  -0.111  0.00  0.00    +0.200 C 
ATOM      3  O   UNL     1      -3.737  -2.041  -0.793  0.00  0.00    -0.277 OA
ATOM      4  N   UNL     1      -2.957  -3.596   0.683  0.00  0.00    -0.313 N 
ATOM      5  C   UNL     1      -1.671  -3.851   1.338  0.00  0.00    +0.006 C 
ATOM      6  N   UNL     1      -0.882  -2.605   1.216  0.00  0.00    +0.401 N 
ATOM      7  C   UNL     1      -1.886  -4.185   2.813  0.00  0.00    +0.025 C 
ATOM      8  C   UNL     1      -2.733  -5.457   2.928  0.00  0.00    +0.108 C 
ATOM      9  N   UNL     1      -2.094  -6.523   2.145  0.00  0.00    -0.301 N 
ATOM     10  C   UNL     1      -1.778  -6.271   0.732  0.00  0.00    +0.108 C 
ATOM     11  C   UNL     1      -0.938  -4.993   0.636  0.00  0.00    +0.025 C 
ATOM     12  C   UNL     1      -1.804  -7.711   2.712  0.00  0.00    +0.219 C 
ATOM     13  O   UNL     1      -2.070  -7.907   3.879  0.00  0.00    -0.275 OA
ATOM     14  H   UNL     1       0.098  -2.812   1.096  0.00  0.00    -0.082 HD
ATOM     15  H   UNL     1      -1.028  -2.012   2.019  0.00  0.00    -0.082 HD
ENDROOT
BRANCH  12  16
ATOM     16  C   UNL     1      -1.148  -8.795   1.896  0.00  0.00    +0.075 C 
ATOM     17  C   UNL     1      -2.137  -9.611   1.048  0.00  0.00    +0.013 C 
ATOM     18  C   UNL     1      -1.316 -10.854   1.427  0.00  0.00    +0.001 C 
ATOM     19  C   UNL     1      -0.883 -10.086   2.688  0.00  0.00    +0.013 C 
ENDBRANCH  12  16
BRANCH   1  20
ATOM     20  C   UNL     1      -1.454  -0.453   0.137  0.00  0.00    -0.004 C 
BRANCH  20  22
ATOM     21  C   UNL     1       0.727  -0.190  -1.054  0.00  0.00    +0.007 C 
ATOM     22  C   UNL     1      -0.018   0.062   0.258  0.00  0.00    -0.018 C 
ATOM     23  C   UNL     1      -0.038   1.564   0.552  0.00  0.00    +0.007 C 
ENDBRANCH  20  22
ENDBRANCH   1  20
BRANCH   4  24
ATOM     24  C   UNL     1      -4.171  -4.396   0.863  0.00  0.00    +0.110 C 
BRANCH  24  25
ATOM     25  C   UNL     1      -5.015  -3.796   1.989  0.00  0.00    +0.054 C 
BRANCH  25  26
ATOM     26  C   UNL     1      -6.216  -4.671   2.238  0.00  0.00    -0.042 A 
ATOM     27  C   UNL     1      -7.390  -4.445   1.543  0.00  0.00    +0.007 A 
ATOM     28  C   UNL     1      -8.495  -5.245   1.767  0.00  0.00    +0.049 A 
ATOM     29  C   UNL     1      -8.427  -6.277   2.690  0.00  0.00    +0.161 A 
ATOM     30  C   UNL     1      -7.246  -6.505   3.389  0.00  0.00    +0.162 A 
ATOM     31  C   UNL     1      -6.140  -5.702   3.156  0.00  0.00    +0.053 A 
BRANCH  30  32
ATOM     32  O   UNL     1      -7.174  -7.516   4.296  0.00  0.00    -0.491 OA
ATOM     33  C   UNL     1      -5.930  -7.691   4.976  0.00  0.00    +0.277 C 
ENDBRANCH  30  32
BRANCH  29  34
ATOM     34  O   UNL     1      -9.513  -7.064   2.912  0.00  0.00    -0.491 OA
ATOM     35  C   UNL     1     -10.692  -6.772   2.159  0.00  0.00    +0.277 C 
ENDBRANCH  29  34
ENDBRANCH  25  26
ENDBRANCH  24  25
ENDBRANCH   4  24
TORSDOF 8
