REMARK  Name = ZINC24024485
REMARK  5 active torsions:
REMARK  status: ('A' for Active; 'I' for Inactive)
REMARK    1  A    between atoms: C_1  and  C_2
REMARK    2  A    between atoms: N_11  and  C_15
REMARK    3  A    between atoms: C_15  and  C_16
REMARK    4  A    between atoms: C_16  and  O_18
REMARK    5  A    between atoms: O_18  and  C_19
REMARK                            x       y       z     vdW  Elec       q    Type
REMARK                         _______ _______ _______ _____ _____    ______ ____
ROOT
ATOM      1  C   UNL     1      -1.536   3.561   2.539  0.00  0.00    +0.010 C 
ATOM      2  C   UNL     1      -0.790   3.101   1.286  0.00  0.00    +0.018 C 
ATOM      3  C   UNL     1      -1.527   3.600   0.040  0.00  0.00    +0.006 C 
ATOM      4  C   UNL     1      -0.790   3.122  -1.213  0.00  0.00    +0.000 C 
ATOM      5  C   UNL     1      -0.753   1.593  -1.233  0.00  0.00    +0.003 C 
ATOM      6  C   UNL     1      -0.013   1.086   0.008  0.00  0.00    +0.035 C 
ATOM      7  C   UNL     1      -0.726   1.577   1.263  0.00  0.00    +0.115 C 
ATOM      8  C   UNL     1      -2.117   0.991   1.342  0.00  0.00    +0.247 C 
ATOM      9  O   UNL     1      -3.023   1.142   0.552  0.00  0.00    -0.273 OA
ATOM     10  N   UNL     1      -2.136   0.263   2.478  0.00  0.00    -0.213 N 
ATOM     11  C   UNL     1      -0.960   0.312   3.115  0.00  0.00    +0.310 C 
ATOM     12  O   UNL     1      -0.734  -0.264   4.161  0.00  0.00    -0.252 OA
ATOM     13  N   UNL     1      -0.056   1.072   2.468  0.00  0.00    -0.285 N 
ATOM     14  H   UNL     1       0.989   1.346   2.672  0.00  0.00    +0.151 HD
ENDROOT
BRANCH  10  15
ATOM     15  C   UNL     1      -3.301  -0.488   2.955  0.00  0.00    +0.238 C 
BRANCH  15  16
ATOM     16  C   UNL     1      -3.260  -1.886   2.395  0.00  0.00    +0.331 C 
ATOM     17  O   UNL     1      -2.352  -2.222   1.671  0.00  0.00    -0.249 OA
BRANCH  16  18
ATOM     18  O   UNL     1      -4.233  -2.760   2.699  0.00  0.00    -0.422 OA
BRANCH  18  19
ATOM     19  C   UNL     1      -4.136  -4.005   2.161  0.00  0.00    +0.168 A 
ATOM     20  C   UNL     1      -4.719  -4.277   0.931  0.00  0.00    +0.086 A 
ATOM     21  C   UNL     1      -4.615  -5.542   0.383  0.00  0.00    +0.043 A 
ATOM     22  C   UNL     1      -3.939  -6.539   1.064  0.00  0.00    +0.044 A 
ATOM     23  C   UNL     1      -3.362  -6.271   2.293  0.00  0.00    +0.043 A 
ATOM     24  C   UNL     1      -3.459  -5.006   2.842  0.00  0.00    +0.086 A 
ATOM     25 CL   UNL     1      -2.735  -4.671   4.384  0.00  0.00    -0.080 Cl
ATOM     26 CL   UNL     1      -3.815  -8.128   0.377  0.00  0.00    -0.083 Cl
ATOM     27 CL   UNL     1      -5.572  -3.029   0.078  0.00  0.00    -0.080 Cl
ENDBRANCH  18  19
ENDBRANCH  16  18
ENDBRANCH  15  16
ENDBRANCH  10  15
TORSDOF 4
