REMARK  Name = ZINC41023946
REMARK  10 active torsions:
REMARK  status: ('A' for Active; 'I' for Inactive)
REMARK    1  A    between atoms: C_1  and  C_2
REMARK    2  A    between atoms: C_5  and  C_8
REMARK    3  A    between atoms: C_8  and  N_9
REMARK    4  A    between atoms: C_16  and  C_32
REMARK    5  A    between atoms: C_17  and  C_19
REMARK    6  A    between atoms: N_21  and  C_22
REMARK    7  A    between atoms: C_25  and  O_30
REMARK    8  A    between atoms: C_27  and  O_28
REMARK    9  A    between atoms: O_28  and  C_29
REMARK   10  A    between atoms: O_30  and  C_31
REMARK                            x       y       z     vdW  Elec       q    Type
REMARK                         _______ _______ _______ _____ _____    ______ ____
ROOT
ATOM      1  N   UNL     1       1.428  -4.800  -0.029  0.00  0.00    -0.294 N 
ATOM      2  C   UNL     1       2.051  -5.002  -1.216  0.00  0.00    +0.203 A 
ATOM      3  N   UNL     1       3.288  -5.412  -1.285  0.00  0.00    -0.230 NA
ATOM      4  C   UNL     1       4.003  -5.653  -0.193  0.00  0.00    +0.116 A 
ATOM      5  C   UNL     1       3.466  -5.480   1.103  0.00  0.00    +0.076 A 
ATOM      6  C   UNL     1       2.062  -5.009   1.141  0.00  0.00    +0.263 A 
ATOM      7  O   UNL     1       1.495  -4.820   2.202  0.00  0.00    -0.267 OA
ATOM      8  C   UNL     1       4.328  -5.770   2.163  0.00  0.00    -0.017 A 
ATOM      9  C   UNL     1       5.601  -6.191   1.906  0.00  0.00    +0.080 A 
ATOM     10  S   UNL     1       5.660  -6.204   0.123  0.00  0.00    -0.064 S 
ATOM     11  C   UNL     1       3.855  -5.618   3.585  0.00  0.00    +0.046 C 
ENDROOT
BRANCH   9  12
ATOM     12  C   UNL     1       6.657  -6.544   2.860  0.00  0.00    +0.255 C 
ATOM     13  O   UNL     1       6.444  -6.478   4.056  0.00  0.00    -0.269 OA
ATOM     14  N   UNL     1       7.864  -6.943   2.412  0.00  0.00    -0.278 N 
ATOM     15  H   UNL     1       8.013  -7.059   1.460  0.00  0.00    +0.155 HD
BRANCH  14  16
ATOM     16  C   UNL     1       8.902  -7.191   3.320  0.00  0.00    +0.076 A 
ATOM     17  C   UNL     1       8.620  -7.729   4.567  0.00  0.00    +0.030 A 
ATOM     18  C   UNL     1       9.644  -7.973   5.463  0.00  0.00    +0.047 A 
ATOM     19  C   UNL     1      10.955  -7.681   5.117  0.00  0.00    +0.124 A 
ATOM     20  C   UNL     1      11.242  -7.143   3.872  0.00  0.00    +0.093 A 
ATOM     21  C   UNL     1      10.219  -6.902   2.969  0.00  0.00    +0.145 A 
BRANCH  21  22
ATOM     22  O   UNL     1      10.499  -6.380   1.746  0.00  0.00    -0.493 OA
ATOM     23  C   UNL     1      11.872  -6.110   1.454  0.00  0.00    +0.277 C 
ENDBRANCH  21  22
BRANCH  19  24
ATOM     24  O   UNL     1      11.960  -7.921   6.001  0.00  0.00    -0.495 OA
ATOM     25  C   UNL     1      11.593  -8.475   7.266  0.00  0.00    +0.277 C 
ENDBRANCH  19  24
ENDBRANCH  14  16
ENDBRANCH   9  12
BRANCH   1  26
ATOM     26  C   UNL     1       0.037  -4.339  -0.018  0.00  0.00    +0.161 C 
BRANCH  26  31
ATOM     27  C   UNL     1      -0.081   1.439  -0.009  0.00  0.00    +0.044 C 
ATOM     28  C   UNL     1      -0.050  -0.068  -0.012  0.00  0.00    -0.050 A 
ATOM     29  C   UNL     1      -0.043  -0.757  -1.210  0.00  0.00    +0.004 A 
ATOM     30  C   UNL     1      -0.015  -2.139  -1.212  0.00  0.00    +0.005 A 
ATOM     31  C   UNL     1       0.007  -2.832  -0.016  0.00  0.00    -0.028 A 
ATOM     32  C   UNL     1       0.002  -2.143   1.182  0.00  0.00    +0.005 A 
ATOM     33  C   UNL     1      -0.022  -0.761   1.184  0.00  0.00    +0.004 A 
ENDBRANCH  26  31
ENDBRANCH   1  26
TORSDOF 6
