REMARK  Name = ZINC06442908
REMARK  10 active torsions:
REMARK  status: ('A' for Active; 'I' for Inactive)
REMARK    1  A    between atoms: C_1  and  C_2
REMARK    2  A    between atoms: C_6  and  N_9
REMARK    3  A    between atoms: C_7  and  C_8
REMARK    4  A    between atoms: C_14  and  C_16
REMARK    5  A    between atoms: C_14  and  C_30
REMARK    6  A    between atoms: C_14  and  N_76
REMARK    7  A    between atoms: C_20  and  C_29
REMARK    8  A    between atoms: C_21  and  C_28
REMARK    9  A    between atoms: N_34  and  C_35
REMARK   10  A    between atoms: C_35  and  C_36
REMARK                            x       y       z     vdW  Elec       q    Type
REMARK                         _______ _______ _______ _____ _____    ______ ____
ROOT
ATOM      1  C   UNL     1       4.884   3.977  -0.025  0.00  0.00    +0.039 C 
ENDROOT
BRANCH   1   2
ATOM      2  C   UNL     1       3.518   3.347  -0.107  0.00  0.00    +0.011 A 
ATOM      3  C   UNL     1       2.414   4.133  -0.166  0.00  0.00    +0.017 A 
ATOM      4  C   UNL     1       1.101   3.490  -0.247  0.00  0.00    -0.001 A 
ATOM      5  C   UNL     1      -0.073   4.248  -0.310  0.00  0.00    +0.013 A 
ATOM      6  C   UNL     1      -1.282   3.618  -0.384  0.00  0.00    -0.047 A 
ATOM      7  C   UNL     1      -1.357   2.231  -0.403  0.00  0.00    -0.046 A 
ATOM      8  C   UNL     1      -0.214   1.465  -0.336  0.00  0.00    +0.030 A 
ATOM      9  C   UNL     1       1.030   2.084  -0.259  0.00  0.00    +0.049 A 
ATOM     10  N   UNL     1       2.190   1.342  -0.197  0.00  0.00    -0.322 N 
ATOM     11  H   UNL     1       2.138   0.374  -0.205  0.00  0.00    +0.169 HD
ATOM     12  C   UNL     1       3.391   1.942  -0.123  0.00  0.00    +0.251 A 
ATOM     13  O   UNL     1       4.396   1.254  -0.069  0.00  0.00    -0.268 OA
ATOM     14  C   UNL     1      -2.702   1.558  -0.492  0.00  0.00    +0.044 C 
ATOM     15  C   UNL     1      -2.547   4.434  -0.453  0.00  0.00    +0.044 C 
ENDBRANCH   1   2
BRANCH   1  21
ATOM     16  N   UNL     1       7.386   3.617  -3.409  0.00  0.00    -0.333 N 
ATOM     17  C   UNL     1       6.023   3.075  -3.500  0.00  0.00    +0.086 C 
ATOM     18  C   UNL     1       5.150   3.714  -2.417  0.00  0.00    -0.058 C 
ATOM     19  C   UNL     1       7.098   3.986  -1.006  0.00  0.00    -0.058 C 
ATOM     20  C   UNL     1       7.971   3.347  -2.089  0.00  0.00    +0.086 C 
ATOM     21  N   UNL     1       5.737   3.416  -1.094  0.00  0.00    +0.391 N 
ATOM     22  H   UNL     1       5.793   2.397  -0.976  0.00  0.00    -0.080 HD
BRANCH  16  28
ATOM     23  C   UNL     1      10.228   4.404  -7.341  0.00  0.00    +0.044 C 
ATOM     24  C   UNL     1       9.586   3.468  -6.349  0.00  0.00    -0.046 A 
ATOM     25  C   UNL     1       9.799   2.105  -6.447  0.00  0.00    +0.004 A 
ATOM     26  C   UNL     1       9.212   1.244  -5.539  0.00  0.00    +0.002 A 
ATOM     27  C   UNL     1       8.415   1.742  -4.527  0.00  0.00    +0.023 A 
ATOM     28  C   UNL     1       8.195   3.110  -4.429  0.00  0.00    +0.033 A 
ATOM     29  C   UNL     1       8.787   3.973  -5.343  0.00  0.00    -0.027 A 
ATOM     30  C   UNL     1       8.556   5.458  -5.236  0.00  0.00    +0.046 C 
ENDBRANCH  16  28
ENDBRANCH   1  21
BRANCH   1  31
ATOM     31  C   UNL     1       5.503   3.660   1.313  0.00  0.00    +0.143 A 
ATOM     32  N   UNL     1       6.009   2.511   1.688  0.00  0.00    -0.115 NA
ATOM     33  N   UNL     1       6.439   2.641   2.896  0.00  0.00    -0.023 NA
ATOM     34  N   UNL     1       6.214   3.842   3.303  0.00  0.00    -0.044 NA
ATOM     35  N   UNL     1       5.638   4.501   2.355  0.00  0.00    -0.228 N 
BRANCH  35  36
ATOM     36  C   UNL     1       5.211   5.902   2.404  0.00  0.00    +0.178 C 
BRANCH  36  37
ATOM     37  C   UNL     1       3.773   5.979   2.920  0.00  0.00    +0.140 C 
ATOM     38  C   UNL     1       3.275   7.439   2.866  0.00  0.00    +0.035 C 
ATOM     39  C   UNL     1       2.455   7.556   4.180  0.00  0.00    +0.031 C 
ATOM     40  C   UNL     1       3.272   6.634   5.120  0.00  0.00    +0.160 C 
ATOM     41  O   UNL     1       3.723   5.554   4.287  0.00  0.00    -0.375 OA
ENDBRANCH  36  37
ENDBRANCH  35  36
ENDBRANCH   1  31
TORSDOF 6
