REMARK  Name = ZINC36207439
REMARK  16 active torsions:
REMARK  status: ('A' for Active; 'I' for Inactive)
REMARK    1  A    between atoms: C_1  and  C_2
REMARK    2  A    between atoms: C_8  and  C_19
REMARK    3  A    between atoms: C_12  and  C_13
REMARK    4  A    between atoms: C_13  and  O_15
REMARK    5  A    between atoms: O_15  and  C_16
REMARK    6  A    between atoms: C_16  and  C_17
REMARK    7  A    between atoms: C_16  and  C_18
REMARK    8  A    between atoms: C_19  and  N_20
REMARK    9  A    between atoms: N_20  and  C_21
REMARK   10  A    between atoms: N_20  and  C_30
REMARK   11  A    between atoms: C_21  and  C_22
REMARK   12  A    between atoms: C_22  and  C_24
REMARK   13  A    between atoms: C_22  and  O_29
REMARK   14  A    between atoms: C_24  and  O_25
REMARK   15  A    between atoms: O_25  and  C_26
REMARK   16  A    between atoms: C_26  and  C_27
REMARK                            x       y       z     vdW  Elec       q    Type
REMARK                         _______ _______ _______ _____ _____    ______ ____
ROOT
ATOM      1  C   UNL     1      -0.924   1.028   0.283  0.00  0.00    +0.046 C 
ATOM      2  C   UNL     1      -0.682  -0.458   0.222  0.00  0.00    -0.015 A 
ATOM      3  C   UNL     1      -0.548  -1.095  -1.012  0.00  0.00    +0.076 A 
ATOM      4  C   UNL     1      -0.607  -0.518  -2.375  0.00  0.00    +0.260 A 
ATOM      5  O   UNL     1      -0.795   0.674  -2.541  0.00  0.00    -0.267 OA
ATOM      6  N   UNL     1      -0.446  -1.345  -3.426  0.00  0.00    -0.312 N 
ATOM      7  H   UNL     1      -0.481  -0.983  -4.325  0.00  0.00    +0.170 HD
ATOM      8  C   UNL     1      -0.235  -2.674  -3.253  0.00  0.00    +0.094 A 
ATOM      9  N   UNL     1      -0.178  -3.214  -2.066  0.00  0.00    -0.229 NA
ATOM     10  C   UNL     1      -0.324  -2.490  -0.964  0.00  0.00    +0.116 A 
ATOM     11  S   UNL     1      -0.311  -2.841   0.776  0.00  0.00    -0.062 S 
ATOM     12  C   UNL     1      -0.588  -1.183   1.375  0.00  0.00    +0.102 A 
ENDROOT
BRANCH  12  13
ATOM     13  C   UNL     1      -0.692  -0.717   2.759  0.00  0.00    +0.346 C 
ATOM     14  O   UNL     1      -0.887   0.461   2.991  0.00  0.00    -0.244 OA
BRANCH  13  15
ATOM     15  O   UNL     1      -0.571  -1.594   3.777  0.00  0.00    -0.458 OA
BRANCH  15  16
ATOM     16  C   UNL     1      -0.682  -1.069   5.102  0.00  0.00    +0.171 C 
ATOM     17  C   UNL     1      -2.146  -1.113   5.546  0.00  0.00    +0.052 C 
ATOM     18  C   UNL     1       0.165  -1.912   6.057  0.00  0.00    +0.052 C 
ENDBRANCH  15  16
ENDBRANCH  13  15
ENDBRANCH  12  13
BRANCH   8  19
ATOM     19  C   UNL     1      -0.063  -3.551  -4.466  0.00  0.00    -0.003 C 
BRANCH  19  20
ATOM     20  N   UNL     1       0.151  -4.940  -4.039  0.00  0.00    +0.388 N 
ATOM     21  H   UNL     1       0.931  -4.979  -3.400  0.00  0.00    -0.081 HD
BRANCH  20  22
ATOM     22  C   UNL     1      -1.058  -5.438  -3.368  0.00  0.00    -0.068 C 
ATOM     23  C   UNL     1      -0.935  -5.835  -1.896  0.00  0.00    -0.017 C 
ATOM     24  C   UNL     1      -1.087  -6.915  -2.969  0.00  0.00    -0.017 C 
ENDBRANCH  20  22
BRANCH  20  25
ATOM     25  C   UNL     1       0.438  -5.775  -5.213  0.00  0.00    -0.044 C 
BRANCH  25  26
ATOM     26  C   UNL     1       1.760  -5.332  -5.843  0.00  0.00    +0.124 C 
BRANCH  26  27
ATOM     27  O   UNL     1       2.813  -5.472  -4.888  0.00  0.00    -0.391 OA
ATOM     28  H   UNL     1       2.938  -6.377  -4.569  0.00  0.00    +0.210 HD
ENDBRANCH  26  27
BRANCH  26  29
ATOM     29  C   UNL     1       2.060  -6.203  -7.064  0.00  0.00    +0.190 C 
BRANCH  29  30
ATOM     30  O   UNL     1       3.233  -5.716  -7.720  0.00  0.00    -0.365 OA
BRANCH  30  31
ATOM     31  C   UNL     1       3.603  -6.464  -8.880  0.00  0.00    +0.248 C 
BRANCH  31  32
ATOM     32  C   UNL     1       4.816  -5.880  -9.474  0.00  0.00    -0.077 C 
ATOM     33  C   UNL     1       5.784  -5.414  -9.948  0.00  0.00    +0.006 C 
ENDBRANCH  31  32
ENDBRANCH  30  31
ENDBRANCH  29  30
ENDBRANCH  26  29
ENDBRANCH  25  26
ENDBRANCH  20  25
ENDBRANCH  19  20
ENDBRANCH   8  19
TORSDOF 13
