REMARK  Name = ZINC08739871
REMARK  4 active torsions:
REMARK  status: ('A' for Active; 'I' for Inactive)
REMARK    1  A    between atoms: C_1  and  C_2
REMARK    2  A    between atoms: C_5  and  C_28
REMARK    3  A    between atoms: C_6  and  C_8
REMARK    4  A    between atoms: C_20  and  C_22
REMARK                            x       y       z     vdW  Elec       q    Type
REMARK                         _______ _______ _______ _____ _____    ______ ____
ROOT
ATOM      1  C   UNL     1       0.341   0.069  -0.507  0.00  0.00    +0.067 C 
ATOM      2  C   UNL     1      -0.272  -0.749   0.631  0.00  0.00    +0.109 C 
ATOM      3  C   UNL     1      -1.774  -0.691   0.550  0.00  0.00    +0.219 C 
ATOM      4  O   UNL     1      -2.429  -0.683   1.570  0.00  0.00    -0.275 OA
ATOM      5  N   UNL     1      -2.398  -0.648  -0.641  0.00  0.00    -0.270 N 
ATOM      6  C   UNL     1      -1.671  -0.639  -1.820  0.00  0.00    +0.136 A 
ATOM      7  C   UNL     1      -0.332  -0.294  -1.803  0.00  0.00    +0.065 A 
ATOM      8  C   UNL     1       0.386  -0.291  -3.006  0.00  0.00    +0.257 A 
ATOM      9  O   UNL     1       1.569   0.008  -3.024  0.00  0.00    -0.267 OA
ATOM     10  N   UNL     1      -0.260  -0.625  -4.144  0.00  0.00    -0.307 N 
ATOM     11  H   UNL     1       0.282  -0.629  -5.102  0.00  0.00    +0.170 HD
ATOM     12  C   UNL     1      -1.581  -0.956  -4.107  0.00  0.00    +0.143 A 
ATOM     13  N   UNL     1      -2.258  -0.961  -2.979  0.00  0.00    -0.214 NA
ATOM     14  H   UNL     1      -3.497  -0.621  -0.685  0.00  0.00    +0.156 HD
ENDROOT
BRANCH   1  20
ATOM     15  C   UNL     1      -2.700   4.007   0.035  0.00  0.00    +0.044 C 
ATOM     16  C   UNL     1      -1.311   3.422   0.025  0.00  0.00    -0.050 A 
ATOM     17  C   UNL     1      -0.218   4.232   0.268  0.00  0.00    +0.003 A 
ATOM     18  C   UNL     1       1.056   3.696   0.260  0.00  0.00    +0.004 A 
ATOM     19  C   UNL     1       1.237   2.348   0.009  0.00  0.00    -0.047 A 
ATOM     20  C   UNL     1       0.144   1.538  -0.233  0.00  0.00    -0.036 A 
ATOM     21  C   UNL     1      -1.130   2.075  -0.230  0.00  0.00    +0.008 A 
ATOM     22  C   UNL     1       2.625   1.763  -0.000  0.00  0.00    +0.044 C 
ENDBRANCH   1  20
BRANCH  12  23
ATOM     23  C   UNL     1      -2.270  -1.319  -5.363  0.00  0.00    +0.017 A 
ATOM     24  C   UNL     1      -1.571  -1.315  -6.572  0.00  0.00    +0.011 A 
ATOM     25  C   UNL     1      -2.219  -1.661  -7.740  0.00  0.00    +0.001 A 
ATOM     26  C   UNL     1      -3.560  -2.000  -7.717  0.00  0.00    +0.000 A 
ATOM     27  C   UNL     1      -4.259  -2.001  -6.523  0.00  0.00    +0.001 A 
ATOM     28  C   UNL     1      -3.623  -1.663  -5.347  0.00  0.00    +0.011 A 
ENDBRANCH  12  23
TORSDOF 2
