REMARK  Name = ZINC16456968
REMARK  11 active torsions:
REMARK  status: ('A' for Active; 'I' for Inactive)
REMARK    1  A    between atoms: C_1  and  O_2
REMARK    2  A    between atoms: O_2  and  C_3
REMARK    3  A    between atoms: C_3  and  C_4
REMARK    4  A    between atoms: C_4  and  C_5
REMARK    5  A    between atoms: C_5  and  N_6
REMARK    6  A    between atoms: C_7  and  N_17
REMARK    7  A    between atoms: N_17  and  C_18
REMARK    8  A    between atoms: C_22  and  C_24
REMARK    9  A    between atoms: N_26  and  C_27
REMARK   10  A    between atoms: C_27  and  C_28
REMARK   11  A    between atoms: C_27  and  C_34
REMARK                            x       y       z     vdW  Elec       q    Type
REMARK                         _______ _______ _______ _____ _____    ______ ____
ROOT
ATOM      1  C   UNL     1      -0.042   3.856  -0.073  0.00  0.00    +0.029 A 
ATOM      2  C   UNL     1       1.163   3.183  -0.232  0.00  0.00    +0.023 A 
ATOM      3  C   UNL     1       1.182   1.804  -0.335  0.00  0.00    +0.003 A 
ATOM      4  C   UNL     1       0.004   1.087  -0.280  0.00  0.00    +0.013 A 
ATOM      5  C   UNL     1      -1.212   1.754  -0.125  0.00  0.00    +0.038 A 
ATOM      6  C   UNL     1      -1.231   3.145  -0.016  0.00  0.00    +0.036 A 
ENDROOT
BRANCH   5   7
ATOM      7  C   UNL     1      -2.477   0.989  -0.072  0.00  0.00    +0.245 C 
ATOM      8  O   UNL     1      -3.535   1.572   0.062  0.00  0.00    -0.270 OA
ATOM      9  N   UNL     1      -2.455  -0.355  -0.173  0.00  0.00    -0.301 N 
ATOM     10  H   UNL     1      -1.611  -0.820  -0.280  0.00  0.00    +0.150 HD
BRANCH   9  11
ATOM     11  C   UNL     1      -3.708  -1.113  -0.120  0.00  0.00    +0.134 C 
BRANCH  11  12
ATOM     12  C   UNL     1      -4.323  -1.163  -1.496  0.00  0.00    -0.023 A 
ATOM     13  C   UNL     1      -3.518  -1.337  -2.606  0.00  0.00    +0.006 A 
ATOM     14  C   UNL     1      -4.082  -1.388  -3.867  0.00  0.00    +0.000 A 
ATOM     15  C   UNL     1      -5.450  -1.256  -4.018  0.00  0.00    +0.000 A 
ATOM     16  C   UNL     1      -6.254  -1.077  -2.908  0.00  0.00    +0.000 A 
ATOM     17  C   UNL     1      -5.690  -1.031  -1.647  0.00  0.00    +0.006 A 
ENDBRANCH  11  12
BRANCH  11  18
ATOM     18  C   UNL     1      -3.427  -2.514   0.356  0.00  0.00    -0.023 A 
ATOM     19  C   UNL     1      -2.303  -3.184  -0.090  0.00  0.00    +0.006 A 
ATOM     20  C   UNL     1      -2.043  -4.468   0.351  0.00  0.00    +0.000 A 
ATOM     21  C   UNL     1      -2.912  -5.086   1.230  0.00  0.00    +0.000 A 
ATOM     22  C   UNL     1      -4.039  -4.419   1.672  0.00  0.00    +0.000 A 
ATOM     23  C   UNL     1      -4.296  -3.133   1.235  0.00  0.00    +0.006 A 
ENDBRANCH  11  18
ENDBRANCH   9  11
ENDBRANCH   5   7
BRANCH   1  24
ATOM     24  N   UNL     1      -0.056   5.249   0.030  0.00  0.00    -0.322 N 
ATOM     25  H   UNL     1      -0.900   5.727   0.034  0.00  0.00    +0.148 HD
BRANCH  24  27
ATOM     26  N   UNL     1       1.482   6.690  -1.126  0.00  0.00    -0.275 N 
ATOM     27  C   UNL     1       1.205   5.989   0.133  0.00  0.00    +0.193 C 
ATOM     28  C   UNL     1       1.096   7.054   1.195  0.00  0.00    +0.003 A 
ATOM     29  C   UNL     1       0.853   7.014   2.549  0.00  0.00    +0.008 A 
ATOM     30  C   UNL     1       0.810   8.190   3.279  0.00  0.00    +0.000 A 
ATOM     31  C   UNL     1       1.014   9.406   2.651  0.00  0.00    +0.001 A 
ATOM     32  C   UNL     1       1.259   9.457   1.295  0.00  0.00    +0.013 A 
ATOM     33  C   UNL     1       1.302   8.276   0.551  0.00  0.00    +0.043 A 
ATOM     34  C   UNL     1       1.537   8.011  -0.881  0.00  0.00    +0.249 C 
ATOM     35  O   UNL     1       1.751   8.865  -1.719  0.00  0.00    -0.270 OA
BRANCH  26  36
ATOM     36  C   UNL     1       1.667   6.056  -2.433  0.00  0.00    +0.112 C 
BRANCH  36  37
ATOM     37  C   UNL     1       0.316   5.941  -3.141  0.00  0.00    +0.047 C 
BRANCH  37  38
ATOM     38  C   UNL     1       0.510   5.279  -4.507  0.00  0.00    +0.161 C 
BRANCH  38  40
ATOM     39  C   UNL     1      -0.683   4.564  -6.459  0.00  0.00    +0.193 C 
ATOM     40  O   UNL     1      -0.753   5.172  -5.168  0.00  0.00    -0.383 OA
ENDBRANCH  38  40
ENDBRANCH  37  38
ENDBRANCH  36  37
ENDBRANCH  26  36
ENDBRANCH  24  27
ENDBRANCH   1  24
TORSDOF 10
