REMARK  Name = ZINC57815178
REMARK  8 active torsions:
REMARK  status: ('A' for Active; 'I' for Inactive)
REMARK    1  A    between atoms: C_1  and  C_2
REMARK    2  A    between atoms: C_3  and  C_27
REMARK    3  A    between atoms: C_7  and  N_11
REMARK    4  A    between atoms: N_11  and  C_12
REMARK    5  A    between atoms: C_12  and  C_13
REMARK    6  A    between atoms: C_17  and  C_26
REMARK    7  A    between atoms: C_22  and  C_24
REMARK    8  A    between atoms: C_22  and  C_25
REMARK                            x       y       z     vdW  Elec       q    Type
REMARK                         _______ _______ _______ _____ _____    ______ ____
ROOT
ATOM      1  C   UNL     1       0.498   1.576   4.201  0.00  0.00    +0.199 C 
ENDROOT
BRANCH   1   2
ATOM      2  C   UNL     1       0.455   3.082   4.214  0.00  0.00    +0.233 C 
ATOM      3  O   UNL     1       0.247   3.691   3.186  0.00  0.00    -0.274 OA
ATOM      4  N   UNL     1       0.646   3.753   5.368  0.00  0.00    -0.297 N 
ATOM      5  C   UNL     1       0.920   3.147   6.680  0.00  0.00    +0.114 C 
ATOM      6  C   UNL     1       1.006   4.315   7.690  0.00  0.00    -0.014 C 
ATOM      7  C   UNL     1       1.491   5.486   6.794  0.00  0.00    +0.030 C 
ATOM      8  C   UNL     1       0.632   5.220   5.532  0.00  0.00    +0.077 C 
ATOM      9  C   UNL     1      -0.790   5.676   5.848  0.00  0.00    +0.029 C 
ATOM     10  C   UNL     1      -1.384   5.023   7.083  0.00  0.00    -0.033 C 
ATOM     11  C   UNL     1      -0.399   4.657   8.177  0.00  0.00    +0.014 C 
ATOM     12  C   UNL     1      -2.200   3.788   6.675  0.00  0.00    +0.011 C 
ATOM     13  C   UNL     1      -2.392   6.030   7.691  0.00  0.00    +0.011 C 
ATOM     14  C   UNL     1       1.979   4.018   8.842  0.00  0.00    +0.013 C 
ENDBRANCH   1   2
BRANCH   1  15
ATOM     15  N   UNL     1       0.262   1.092   2.839  0.00  0.00    -0.320 N 
ATOM     16  H   UNL     1       0.110   1.724   2.119  0.00  0.00    +0.148 HD
BRANCH  15  23
ATOM     17  C   UNL     1      -0.556   1.486   0.114  0.00  0.00    +0.045 C 
ATOM     18  C   UNL     1      -0.484  -0.020   0.096  0.00  0.00    -0.028 A 
ATOM     19  C   UNL     1      -0.771  -0.699  -1.024  0.00  0.00    -0.008 A 
ATOM     20  S   UNL     1      -0.546  -2.402  -0.548  0.00  0.00    -0.074 S 
ATOM     21  C   UNL     1      -0.073  -2.156   1.143  0.00  0.00    +0.114 A 
ATOM     22  C   UNL     1      -0.097  -0.751   1.289  0.00  0.00    +0.051 A 
ATOM     23  C   UNL     1       0.255  -0.267   2.579  0.00  0.00    +0.131 A 
ATOM     24  N   UNL     1       0.577  -1.132   3.527  0.00  0.00    -0.220 NA
ATOM     25  C   UNL     1       0.583  -2.436   3.318  0.00  0.00    +0.224 A 
ATOM     26  N   UNL     1       0.256  -2.946   2.146  0.00  0.00    -0.228 NA
ATOM     27  C   UNL     1      -1.185  -0.153  -2.366  0.00  0.00    +0.052 C 
ENDBRANCH  15  23
ENDBRANCH   1  15
TORSDOF 3
