REMARK  Name = ZINC41335780
REMARK  8 active torsions:
REMARK  status: ('A' for Active; 'I' for Inactive)
REMARK    1  A    between atoms: C_1  and  C_2
REMARK    2  A    between atoms: C_4  and  C_8
REMARK    3  A    between atoms: N_6  and  C_7
REMARK    4  A    between atoms: C_11  and  S_16
REMARK    5  A    between atoms: N_12  and  C_13
REMARK    6  A    between atoms: C_13  and  C_14
REMARK    7  A    between atoms: C_13  and  C_15
REMARK    8  A    between atoms: S_16  and  C_17
REMARK                            x       y       z     vdW  Elec       q    Type
REMARK                         _______ _______ _______ _____ _____    ______ ____
ROOT
ATOM      1  C   UNL     1       0.041  -3.329  -1.535  0.00  0.00    +0.185 A 
ATOM      2  N   UNL     1       0.041  -3.337  -2.847  0.00  0.00    -0.127 NA
ATOM      3  N   UNL     1       0.055  -4.547  -3.278  0.00  0.00    -0.122 NA
ATOM      4  C   UNL     1       0.064  -5.386  -2.267  0.00  0.00    +0.192 A 
ATOM      5  N   UNL     1       0.060  -4.641  -1.123  0.00  0.00    -0.298 N 
ENDROOT
BRANCH   1   9
ATOM      6  C   UNL     1      -0.018   1.503   0.010  0.00  0.00    +0.065 C 
ATOM      7  C   UNL     1       0.002  -0.004   0.002  0.00  0.00    +0.037 A 
ATOM      8  C   UNL     1       0.008  -0.791  -1.095  0.00  0.00    +0.056 A 
ATOM      9  C   UNL     1       0.028  -2.134  -0.663  0.00  0.00    +0.130 A 
ATOM     10  N   UNL     1       0.034  -2.135   0.655  0.00  0.00    -0.168 NA
ATOM     11  N   UNL     1       0.023  -0.803   1.091  0.00  0.00    -0.271 N 
ATOM     12  C   UNL     1       0.031  -0.356   2.485  0.00  0.00    +0.172 C 
ENDBRANCH   1   9
BRANCH   5  13
ATOM     13  C   UNL     1       0.072  -5.136   0.256  0.00  0.00    +0.085 C 
ATOM     14  C   UNL     1      -1.165  -6.004   0.497  0.00  0.00    +0.030 C 
ATOM     15  C   UNL     1       1.334  -5.970   0.488  0.00  0.00    +0.030 C 
ENDBRANCH   5  13
BRANCH   4  16
ATOM     16  S   UNL     1       0.083  -7.146  -2.369  0.00  0.00    -0.083 S 
BRANCH  16  17
ATOM     17  C   UNL     1       0.087  -7.482  -4.152  0.00  0.00    +0.054 C 
ATOM     18  C   UNL     1      -1.260  -7.057  -4.773  0.00  0.00    +0.014 C 
ATOM     19  C   UNL     1      -1.540  -8.137  -5.847  0.00  0.00    +0.001 C 
ATOM     20  C   UNL     1      -1.036  -9.434  -5.168  0.00  0.00    +0.001 C 
ATOM     21  C   UNL     1       0.229  -8.993  -4.403  0.00  0.00    +0.014 C 
ENDBRANCH  16  17
ENDBRANCH   4  16
TORSDOF 4
