REMARK  Name = ZINC37668821
REMARK  7 active torsions:
REMARK  status: ('A' for Active; 'I' for Inactive)
REMARK    1  A    between atoms: C_1  and  C_2
REMARK    2  A    between atoms: C_5  and  S_7
REMARK    3  A    between atoms: S_7  and  C_8
REMARK    4  A    between atoms: C_8  and  C_10
REMARK    5  A    between atoms: C_8  and  C_11
REMARK    6  A    between atoms: N_13  and  C_14
REMARK    7  A    between atoms: C_15  and  N_22
REMARK                            x       y       z     vdW  Elec       q    Type
REMARK                         _______ _______ _______ _____ _____    ______ ____
ROOT
ATOM      1  C   UNL     1       0.718  -6.888  -1.597  0.00  0.00    +0.230 C 
ATOM      2  O   UNL     1       1.771  -7.474  -1.457  0.00  0.00    -0.274 OA
ATOM      3  N   UNL     1      -0.447  -7.550  -1.448  0.00  0.00    -0.282 N 
ATOM      4  H   UNL     1      -1.287  -7.068  -1.487  0.00  0.00    +0.155 HD
ENDROOT
BRANCH   3   5
ATOM      5  C   UNL     1      -0.443  -8.936  -1.235  0.00  0.00    +0.073 A 
ATOM      6  C   UNL     1      -0.453  -9.810  -2.321  0.00  0.00    +0.049 A 
ATOM      7  C   UNL     1      -0.449 -11.180  -2.104  0.00  0.00    +0.044 A 
ATOM      8  C   UNL     1      -0.434 -11.677  -0.813  0.00  0.00    +0.044 A 
ATOM      9  C   UNL     1      -0.424 -10.809   0.265  0.00  0.00    +0.042 A 
ATOM     10  C   UNL     1      -0.423  -9.441   0.057  0.00  0.00    +0.065 A 
ATOM     11 CL   UNL     1      -0.404  -8.357   1.413  0.00  0.00    -0.082 Cl
ATOM     12 CL   UNL     1      -0.430 -13.392  -0.545  0.00  0.00    -0.083 Cl
BRANCH   6  13
ATOM     13  N   UNL     1      -0.468  -9.307  -3.626  0.00  0.00    -0.356 N 
ATOM     14  H   UNL     1      -0.471  -8.349  -3.776  0.00  0.00    +0.142 HD
ATOM     15  H   UNL     1      -0.474  -9.916  -4.381  0.00  0.00    +0.142 HD
ENDBRANCH   6  13
ENDBRANCH   3   5
BRANCH   1  16
ATOM     16  C   UNL     1       0.712  -5.420  -1.937  0.00  0.00    +0.136 C 
ATOM     17  C   UNL     1       0.465  -5.245  -3.437  0.00  0.00    +0.029 C 
BRANCH  16  18
ATOM     18  S   UNL     1       2.314  -4.691  -1.500  0.00  0.00    -0.085 S 
BRANCH  18  23
ATOM     19  C   UNL     1       2.342   1.153  -2.313  0.00  0.00    +0.075 C 
ATOM     20  C   UNL     1       2.127  -0.333  -2.176  0.00  0.00    +0.100 A 
ATOM     21  N   UNL     1       1.059  -1.060  -2.434  0.00  0.00    -0.146 NA
ATOM     22  N   UNL     1       1.040  -2.310  -2.264  0.00  0.00    -0.135 NA
ATOM     23  C   UNL     1       2.100  -2.971  -1.815  0.00  0.00    +0.159 A 
ATOM     24  S   UNL     1       3.252  -1.613  -1.626  0.00  0.00    -0.044 S 
ENDBRANCH  18  23
ENDBRANCH  16  18
ENDBRANCH   1  16
TORSDOF 5
