REMARK  Name = ZINC15773569
REMARK  7 active torsions:
REMARK  status: ('A' for Active; 'I' for Inactive)
REMARK    1  A    between atoms: C_1  and  C_2
REMARK    2  A    between atoms: C_9  and  N_12
REMARK    3  A    between atoms: N_12  and  C_13
REMARK    4  A    between atoms: C_18  and  C_19
REMARK    5  A    between atoms: N_21  and  N_22
REMARK    6  A    between atoms: N_22  and  C_23
REMARK    7  A    between atoms: C_26  and  C_33
REMARK                            x       y       z     vdW  Elec       q    Type
REMARK                         _______ _______ _______ _____ _____    ______ ____
ROOT
ATOM      1  C   UNL     1       0.074  -1.546   3.935  0.00  0.00    +0.044 A 
ATOM      2  C   UNL     1       0.005  -0.527   2.991  0.00  0.00    +0.024 A 
ATOM      3  C   UNL     1      -0.117   0.786   3.399  0.00  0.00    +0.002 A 
ATOM      4  C   UNL     1      -0.170   1.099   4.748  0.00  0.00    +0.001 A 
ATOM      5  C   UNL     1      -0.102   0.102   5.699  0.00  0.00    +0.015 A 
ATOM      6  C   UNL     1       0.015  -1.231   5.303  0.00  0.00    +0.059 A 
ENDROOT
BRANCH   6   7
ATOM      7  C   UNL     1       0.082  -2.304   6.315  0.00  0.00    +0.262 C 
ATOM      8  O   UNL     1       0.129  -3.467   5.966  0.00  0.00    -0.269 OA
ATOM      9  N   UNL     1       0.092  -1.993   7.626  0.00  0.00    -0.232 N 
ATOM     10  H   UNL     1       0.054  -1.064   7.905  0.00  0.00    +0.173 HD
BRANCH   9  11
ATOM     11  N   UNL     1       0.155  -3.010   8.587  0.00  0.00    -0.259 N 
ATOM     12  H   UNL     1       0.175  -3.939   8.309  0.00  0.00    +0.170 HD
BRANCH  11  13
ATOM     13  C   UNL     1       0.189  -2.701   9.886  0.00  0.00    +0.116 C 
ATOM     14  C   UNL     1       0.050  -1.419  10.471  0.00  0.00    +0.024 A 
ATOM     15  C   UNL     1      -0.154  -0.140   9.939  0.00  0.00    +0.015 A 
ATOM     16  C   UNL     1      -0.252   0.945  10.787  0.00  0.00    -0.050 A 
ATOM     17  C   UNL     1      -0.149   0.773  12.158  0.00  0.00    +0.005 A 
ATOM     18  C   UNL     1       0.053  -0.484  12.704  0.00  0.00    +0.024 A 
ATOM     19  C   UNL     1       0.156  -1.598  11.875  0.00  0.00    +0.043 A 
ATOM     20  N   UNL     1       0.351  -2.919  12.152  0.00  0.00    -0.280 N 
ATOM     21  C   UNL     1       0.378  -3.641  11.046  0.00  0.00    +0.264 C 
ATOM     22  O   UNL     1       0.531  -4.847  10.978  0.00  0.00    -0.268 OA
ATOM     23  C   UNL     1      -0.472   2.324  10.219  0.00  0.00    +0.044 C 
ATOM     24  H   UNL     1       0.452  -3.282  13.046  0.00  0.00    +0.155 HD
ENDBRANCH  11  13
ENDBRANCH   9  11
ENDBRANCH   6   7
BRANCH   1  25
ATOM     25  N   UNL     1       0.196  -2.865   3.528  0.00  0.00    -0.309 N 
ATOM     26  H   UNL     1       1.068  -3.226   3.305  0.00  0.00    +0.152 HD
BRANCH  25  35
ATOM     27  C   UNL     1      -4.899  -0.670   4.387  0.00  0.00    +0.044 C 
ATOM     28  C   UNL     1      -4.232  -1.979   4.055  0.00  0.00    -0.050 A 
ATOM     29  C   UNL     1      -5.000  -3.118   3.869  0.00  0.00    +0.005 A 
ATOM     30  C   UNL     1      -4.409  -4.332   3.564  0.00  0.00    +0.024 A 
ATOM     31  C   UNL     1      -3.025  -4.424   3.438  0.00  0.00    +0.043 A 
ATOM     32  N   UNL     1      -2.210  -5.478   3.151  0.00  0.00    -0.280 N 
ATOM     33  C   UNL     1      -0.941  -5.110   3.133  0.00  0.00    +0.263 C 
ATOM     34  O   UNL     1       0.014  -5.832   2.906  0.00  0.00    -0.268 OA
ATOM     35  C   UNL     1      -0.889  -3.642   3.444  0.00  0.00    +0.103 C 
ATOM     36  C   UNL     1      -2.240  -3.257   3.628  0.00  0.00    +0.023 A 
ATOM     37  C   UNL     1      -2.857  -2.038   3.932  0.00  0.00    +0.015 A 
ATOM     38  H   UNL     1      -2.521  -6.381   2.982  0.00  0.00    +0.155 HD
ENDBRANCH  25  35
ENDBRANCH   1  25
TORSDOF 5
