REMARK  Name = ZINC58155438
REMARK  8 active torsions:
REMARK  status: ('A' for Active; 'I' for Inactive)
REMARK    1  A    between atoms: C_1  and  C_2
REMARK    2  A    between atoms: C_2  and  N_3
REMARK    3  A    between atoms: N_12  and  C_13
REMARK    4  A    between atoms: C_13  and  C_15
REMARK    5  A    between atoms: C_15  and  C_16
REMARK    6  A    between atoms: C_16  and  C_18
REMARK    7  A    between atoms: C_16  and  N_25
REMARK    8  A    between atoms: C_22  and  C_24
REMARK                            x       y       z     vdW  Elec       q    Type
REMARK                         _______ _______ _______ _____ _____    ______ ____
ROOT
ATOM      1  C   UNL     1      -2.036  -0.964  -4.774  0.00  0.00    +0.125 C 
ENDROOT
BRANCH   1   2
ATOM      2  C   UNL     1      -2.493  -1.078  -3.342  0.00  0.00    +0.241 C 
ATOM      3  O   UNL     1      -3.603  -1.507  -3.091  0.00  0.00    -0.274 OA
BRANCH   2  13
ATOM      4  N   UNL     1      -1.261  -0.680  -0.003  0.00  0.00    -0.312 N 
ATOM      5  C   UNL     1      -1.991  -1.003   1.137  0.00  0.00    +0.068 A 
ATOM      6  C   UNL     1      -1.699  -0.961   2.493  0.00  0.00    +0.028 A 
ATOM      7  C   UNL     1      -2.648  -1.355   3.414  0.00  0.00    +0.002 A 
ATOM      8  C   UNL     1      -3.892  -1.793   2.990  0.00  0.00    +0.002 A 
ATOM      9  C   UNL     1      -4.192  -1.840   1.644  0.00  0.00    +0.028 A 
ATOM     10  C   UNL     1      -3.245  -1.445   0.710  0.00  0.00    +0.066 A 
ATOM     11  N   UNL     1      -3.250  -1.381  -0.680  0.00  0.00    -0.326 N 
ATOM     12  C   UNL     1      -2.043  -0.911  -1.089  0.00  0.00    +0.201 A 
ATOM     13  N   UNL     1      -1.683  -0.711  -2.354  0.00  0.00    -0.147 NA
ATOM     14  H   UNL     1      -3.990  -1.627  -1.257  0.00  0.00    +0.169 HD
BRANCH   4  16
ATOM     15  C   UNL     1       0.094   1.356   0.037  0.00  0.00    +0.027 C 
ATOM     16  C   UNL     1       0.113  -0.173  -0.026  0.00  0.00    +0.122 C 
ENDBRANCH   4  16
ENDBRANCH   2  13
ENDBRANCH   1   2
BRANCH   1  17
ATOM     17  C   UNL     1      -3.149  -1.448  -5.705  0.00  0.00    +0.113 C 
BRANCH  17  18
ATOM     18  C   UNL     1      -2.650  -1.450  -7.127  0.00  0.00    -0.026 A 
ATOM     19  C   UNL     1      -2.338  -2.644  -7.749  0.00  0.00    +0.005 A 
ATOM     20  C   UNL     1      -1.880  -2.646  -9.053  0.00  0.00    +0.001 A 
ATOM     21  C   UNL     1      -1.734  -1.452  -9.735  0.00  0.00    +0.003 A 
ATOM     22  C   UNL     1      -2.047  -0.258  -9.114  0.00  0.00    -0.050 A 
ATOM     23  C   UNL     1      -2.509  -0.257  -7.811  0.00  0.00    +0.008 A 
ATOM     24  C   UNL     1      -1.888   1.043  -9.858  0.00  0.00    +0.044 C 
ENDBRANCH  17  18
BRANCH  17  25
ATOM     25  N   UNL     1      -4.304  -0.553  -5.593  0.00  0.00    -0.292 N 
ATOM     26  C   UNL     1      -5.525  -0.979  -5.972  0.00  0.00    +0.298 C 
ATOM     27  O   UNL     1      -5.687  -2.133  -6.317  0.00  0.00    -0.253 OA
ATOM     28  N   UNL     1      -6.568  -0.125  -5.967  0.00  0.00    -0.313 N 
ATOM     29  H   UNL     1      -4.189   0.345  -5.247  0.00  0.00    +0.151 HD
ATOM     30  H   UNL     1      -6.439   0.796  -5.691  0.00  0.00    +0.146 HD
ATOM     31  H   UNL     1      -7.447  -0.431  -6.239  0.00  0.00    +0.146 HD
ENDBRANCH  17  25
ENDBRANCH   1  17
TORSDOF 6
