REMARK  Name = ZINC16488808
REMARK  5 active torsions:
REMARK  status: ('A' for Active; 'I' for Inactive)
REMARK    1  A    between atoms: C_4  and  N_7
REMARK    2  A    between atoms: C_12  and  C_20
REMARK    3  A    between atoms: C_14  and  C_18
REMARK    4  A    between atoms: C_15  and  N_17
REMARK    5  A    between atoms: C_28  and  C_30
REMARK                            x       y       z     vdW  Elec       q    Type
REMARK                         _______ _______ _______ _____ _____    ______ ____
ROOT
ATOM      1  N   UNL     1      -2.426   1.043   0.019  0.00  0.00    -0.185 N 
ATOM      2  C   UNL     1      -3.791   1.572   0.035  0.00  0.00    +0.294 C 
ATOM      3  C   UNL     1      -4.415   0.535   1.021  0.00  0.00    +0.118 C 
ATOM      4  C   UNL     1      -5.915   0.628   0.808  0.00  0.00    +0.081 C 
ATOM      5  C   UNL     1      -6.271   2.097   0.947  0.00  0.00    +0.094 C 
ATOM      6  C   UNL     1      -5.340   3.079   0.869  0.00  0.00    +0.194 C 
ATOM      7  O   UNL     1      -4.024   2.839   0.612  0.00  0.00    -0.455 OA
ATOM      8  C   UNL     1      -3.730  -0.717   0.558  0.00  0.00    +0.148 C 
ATOM      9  N   UNL     1      -2.611  -0.363   0.013  0.00  0.00    -0.176 NA
ENDROOT
BRANCH   4  10
ATOM     10  C   UNL     1      -6.638  -0.182   1.853  0.00  0.00    -0.002 A 
ATOM     11  C   UNL     1      -6.477   0.117   3.194  0.00  0.00    +0.046 A 
ATOM     12  C   UNL     1      -7.145  -0.624   4.153  0.00  0.00    +0.020 A 
ATOM     13  C   UNL     1      -7.965  -1.669   3.772  0.00  0.00    +0.003 A 
ATOM     14  C   UNL     1      -8.123  -1.971   2.433  0.00  0.00    +0.020 A 
ATOM     15  C   UNL     1      -7.459  -1.228   1.472  0.00  0.00    +0.046 A 
ATOM     16 CL   UNL     1      -7.657  -1.609  -0.210  0.00  0.00    -0.083 Cl
ATOM     17 CL   UNL     1      -5.442   1.426   3.673  0.00  0.00    -0.083 Cl
ENDBRANCH   4  10
BRANCH   1  21
ATOM     18  C   UNL     1       1.155   3.166   0.009  0.00  0.00    +0.000 A 
ATOM     19  C   UNL     1       1.173   1.783   0.000  0.00  0.00    +0.002 A 
ATOM     20  C   UNL     1      -0.013   1.076   0.008  0.00  0.00    +0.025 A 
ATOM     21  C   UNL     1      -1.225   1.755   0.017  0.00  0.00    +0.055 A 
ATOM     22  C   UNL     1      -1.239   3.145   0.032  0.00  0.00    +0.025 A 
ATOM     23  C   UNL     1      -0.049   3.845   0.024  0.00  0.00    +0.002 A 
ENDBRANCH   1  21
BRANCH   8  24
ATOM     24  C   UNL     1      -4.248  -2.124   0.702  0.00  0.00    +0.432 C 
ATOM     25  F   UNL     1      -3.327  -3.020   0.149  0.00  0.00    -0.165 F 
ATOM     26  F   UNL     1      -4.429  -2.419   2.058  0.00  0.00    -0.165 F 
ATOM     27  F   UNL     1      -5.471  -2.241   0.033  0.00  0.00    -0.165 F 
ENDBRANCH   8  24
BRANCH   6  28
ATOM     28  N   UNL     1      -5.742   4.377   1.060  0.00  0.00    -0.329 N 
ATOM     29  H   UNL     1      -6.673   4.574   1.245  0.00  0.00    +0.145 HD
ATOM     30  H   UNL     1      -5.094   5.097   1.009  0.00  0.00    +0.145 HD
ENDBRANCH   6  28
BRANCH   5  31
ATOM     31  C   UNL     1      -7.639   2.459   1.169  0.00  0.00    +0.100 C 
ATOM     32  N   UNL     1      -8.724   2.746   1.344  0.00  0.00    -0.191 NA
ENDBRANCH   5  31
TORSDOF 5
