REMARK  Name = ZINC12632972
REMARK  8 active torsions:
REMARK  status: ('A' for Active; 'I' for Inactive)
REMARK    1  A    between atoms: C_1  and  C_2
REMARK    2  A    between atoms: C_3  and  C_25
REMARK    3  A    between atoms: C_10  and  C_23
REMARK    4  A    between atoms: C_11  and  S_13
REMARK    5  A    between atoms: S_13  and  C_14
REMARK    6  A    between atoms: C_14  and  C_15
REMARK    7  A    between atoms: C_18  and  C_21
REMARK    8  A    between atoms: N_27  and  C_28
REMARK                            x       y       z     vdW  Elec       q    Type
REMARK                         _______ _______ _______ _____ _____    ______ ____
ROOT
ATOM      1  C   UNL     1      -5.537   5.382  -0.634  0.00  0.00    +0.061 C 
ATOM      2  C   UNL     1      -5.136   4.617   0.601  0.00  0.00    +0.014 C 
ATOM      3  C   UNL     1      -6.085   4.169   1.437  0.00  0.00    +0.042 C 
ATOM      4  C   UNL     1      -5.745   3.409   2.689  0.00  0.00    +0.039 C 
ATOM      5  C   UNL     1      -6.697   2.217   2.832  0.00  0.00    +0.017 C 
ATOM      6  C   UNL     1      -8.140   2.723   2.895  0.00  0.00    +0.001 C 
ATOM      7  C   UNL     1      -8.304   3.648   4.102  0.00  0.00    +0.000 C 
ATOM      8  C   UNL     1      -7.351   4.837   3.966  0.00  0.00    +0.001 C 
ATOM      9  C   UNL     1      -5.909   4.330   3.902  0.00  0.00    +0.017 C 
ATOM     10  C   UNL     1      -4.330   2.903   2.630  0.00  0.00    +0.067 C 
ATOM     11  C   UNL     1      -3.435   3.407   1.740  0.00  0.00    +0.080 C 
ATOM     12  N   UNL     1      -3.810   4.388   0.850  0.00  0.00    -0.312 N 
ATOM     13  H   UNL     1      -3.043   4.988   0.339  0.00  0.00    +0.152 HD
ENDROOT
BRANCH   3  14
ATOM     14  C   UNL     1      -7.445   4.421   1.133  0.00  0.00    +0.247 C 
ATOM     15  O   UNL     1      -7.980   5.438   1.536  0.00  0.00    -0.270 OA
ATOM     16  N   UNL     1      -8.146   3.536   0.398  0.00  0.00    -0.282 N 
ATOM     17  H   UNL     1      -7.691   2.576   0.111  0.00  0.00    +0.155 HD
BRANCH  16  18
ATOM     18  C   UNL     1      -9.453   3.836   0.001  0.00  0.00    +0.034 A 
ATOM     19  C   UNL     1      -9.812   5.149  -0.274  0.00  0.00    +0.023 A 
ATOM     20  C   UNL     1     -11.102   5.441  -0.672  0.00  0.00    +0.002 A 
ATOM     21  C   UNL     1     -12.039   4.430  -0.784  0.00  0.00    +0.000 A 
ATOM     22  C   UNL     1     -11.686   3.123  -0.505  0.00  0.00    +0.002 A 
ATOM     23  C   UNL     1     -10.396   2.823  -0.113  0.00  0.00    +0.023 A 
ENDBRANCH  16  18
ENDBRANCH   3  14
BRANCH  10  24
ATOM     24  C   UNL     1      -3.915   1.872   3.534  0.00  0.00    +0.098 C 
ATOM     25  N   UNL     1      -3.587   1.055   4.251  0.00  0.00    -0.191 NA
ENDBRANCH  10  24
BRANCH  11  26
ATOM     26  S   UNL     1      -1.783   2.794   1.720  0.00  0.00    -0.104 S 
BRANCH  26  27
ATOM     27  C   UNL     1      -1.093   3.793   0.377  0.00  0.00    +0.110 C 
BRANCH  27  28
ATOM     28  C   UNL     1       0.355   3.431   0.174  0.00  0.00    -0.037 A 
ATOM     29  C   UNL     1       1.339   4.111   0.869  0.00  0.00    +0.006 A 
ATOM     30  C   UNL     1       2.668   3.788   0.683  0.00  0.00    +0.019 A 
ATOM     31  C   UNL     1       3.018   2.772  -0.208  0.00  0.00    +0.052 A 
ATOM     32  C   UNL     1       2.019   2.090  -0.907  0.00  0.00    +0.019 A 
ATOM     33  C   UNL     1       0.695   2.423  -0.711  0.00  0.00    +0.006 A 
BRANCH  31  34
ATOM     34  C   UNL     1       4.394   2.431  -0.406  0.00  0.00    +0.099 C 
ATOM     35  N   UNL     1       5.487   2.161  -0.562  0.00  0.00    -0.191 NA
ENDBRANCH  31  34
ENDBRANCH  27  28
ENDBRANCH  26  27
ENDBRANCH  11  26
TORSDOF 7
