REMARK  Name = ZINC00861381
REMARK  12 active torsions:
REMARK  status: ('A' for Active; 'I' for Inactive)
REMARK    1  A    between atoms: C_1  and  C_2
REMARK    2  A    between atoms: C_3  and  C_33
REMARK    3  A    between atoms: C_4  and  C_23
REMARK    4  A    between atoms: C_10  and  C_15
REMARK    5  A    between atoms: C_18  and  O_21
REMARK    6  A    between atoms: O_21  and  C_22
REMARK    7  A    between atoms: C_27  and  O_31
REMARK    8  A    between atoms: C_28  and  O_29
REMARK    9  A    between atoms: O_29  and  C_30
REMARK   10  A    between atoms: O_31  and  C_32
REMARK   11  A    between atoms: C_33  and  O_35
REMARK   12  A    between atoms: O_35  and  C_36
REMARK                            x       y       z     vdW  Elec       q    Type
REMARK                         _______ _______ _______ _____ _____    ______ ____
ROOT
ATOM      1  C   UNL     1      -4.942   1.617  -2.127  0.00  0.00    +0.061 C 
ATOM      2  C   UNL     1      -4.232   2.126  -0.899  0.00  0.00    +0.016 C 
ATOM      3  C   UNL     1      -3.283   3.070  -1.019  0.00  0.00    +0.065 C 
ATOM      4  C   UNL     1      -2.550   3.593   0.181  0.00  0.00    +0.096 C 
ATOM      5  C   UNL     1      -3.291   3.269   1.453  0.00  0.00    +0.024 C 
ATOM      6  C   UNL     1      -4.246   2.314   1.470  0.00  0.00    +0.016 C 
ATOM      7  N   UNL     1      -4.558   1.623   0.330  0.00  0.00    -0.321 N 
ATOM      8  C   UNL     1      -4.995   1.987   2.738  0.00  0.00    +0.059 C 
ATOM      9  C   UNL     1      -4.092   2.237   3.948  0.00  0.00    +0.032 C 
ATOM     10  C   UNL     1      -3.645   3.703   3.926  0.00  0.00    +0.088 C 
ATOM     11  C   UNL     1      -2.960   3.985   2.616  0.00  0.00    +0.162 C 
ATOM     12  O   UNL     1      -2.106   4.847   2.563  0.00  0.00    -0.292 OA
ATOM     13  H   UNL     1      -5.075   0.656   0.409  0.00  0.00    +0.152 HD
ENDROOT
BRANCH   9  14
ATOM     14  C   UNL     1      -4.857   1.961   5.216  0.00  0.00    -0.043 A 
ATOM     15  C   UNL     1      -6.000   2.684   5.505  0.00  0.00    +0.007 A 
ATOM     16  C   UNL     1      -6.706   2.429   6.664  0.00  0.00    +0.046 A 
ATOM     17  C   UNL     1      -6.262   1.453   7.545  0.00  0.00    +0.120 A 
ATOM     18  C   UNL     1      -5.112   0.732   7.256  0.00  0.00    +0.046 A 
ATOM     19  C   UNL     1      -4.413   0.988   6.093  0.00  0.00    +0.007 A 
BRANCH  17  20
ATOM     20  O   UNL     1      -6.952   1.203   8.689  0.00  0.00    -0.495 OA
ATOM     21  C   UNL     1      -8.127   1.984   8.921  0.00  0.00    +0.277 C 
ENDBRANCH  17  20
ENDBRANCH   9  14
BRANCH   4  22
ATOM     22  C   UNL     1      -1.179   2.969   0.234  0.00  0.00    +0.010 A 
ATOM     23  C   UNL     1      -1.048   1.593   0.279  0.00  0.00    +0.008 A 
ATOM     24  C   UNL     1       0.207   1.017   0.333  0.00  0.00    +0.004 A 
ATOM     25  C   UNL     1       1.338   1.813   0.331  0.00  0.00    +0.049 A 
ATOM     26  C   UNL     1       1.213   3.192   0.280  0.00  0.00    +0.162 A 
ATOM     27  C   UNL     1      -0.051   3.772   0.231  0.00  0.00    +0.166 A 
BRANCH  27  28
ATOM     28  O   UNL     1      -0.178   5.125   0.181  0.00  0.00    -0.491 OA
ATOM     29  C   UNL     1      -0.076   5.739  -1.106  0.00  0.00    +0.277 C 
ENDBRANCH  27  28
BRANCH  26  30
ATOM     30  O   UNL     1       2.324   3.977   0.277  0.00  0.00    -0.491 OA
ATOM     31  C   UNL     1       3.588   3.312   0.329  0.00  0.00    +0.277 C 
ENDBRANCH  26  30
ENDBRANCH   4  22
BRANCH   3  32
ATOM     32  C   UNL     1      -2.970   3.580  -2.301  0.00  0.00    +0.338 C 
ATOM     33  O   UNL     1      -3.407   4.661  -2.649  0.00  0.00    -0.245 OA
BRANCH  32  34
ATOM     34  O   UNL     1      -2.186   2.868  -3.137  0.00  0.00    -0.458 OA
BRANCH  34  35
ATOM     35  C   UNL     1      -1.911   3.443  -4.416  0.00  0.00    +0.177 C 
ATOM     36  C   UNL     1      -2.981   3.001  -5.415  0.00  0.00    +0.044 C 
ATOM     37  C   UNL     1      -2.686   3.617  -6.785  0.00  0.00    +0.004 C 
ATOM     38  C   UNL     1      -1.312   3.150  -7.269  0.00  0.00    +0.000 C 
ATOM     39  C   UNL     1      -0.241   3.593  -6.269  0.00  0.00    +0.004 C 
ATOM     40  C   UNL     1      -0.536   2.977  -4.900  0.00  0.00    +0.044 C 
ENDBRANCH  34  35
ENDBRANCH  32  34
ENDBRANCH   3  32
TORSDOF 8
