REMARK  Name = ZINC23259868
REMARK  10 active torsions:
REMARK  status: ('A' for Active; 'I' for Inactive)
REMARK    1  A    between atoms: C_1  and  C_2
REMARK    2  A    between atoms: C_2  and  C_4
REMARK    3  A    between atoms: C_2  and  N_14
REMARK    4  A    between atoms: C_7  and  S_10
REMARK    5  A    between atoms: S_10  and  N_13
REMARK    6  A    between atoms: N_14  and  C_15
REMARK    7  A    between atoms: N_14  and  C_16
REMARK    8  A    between atoms: C_16  and  C_17
REMARK    9  A    between atoms: N_19  and  C_20
REMARK   10  A    between atoms: N_19  and  C_26
REMARK                            x       y       z     vdW  Elec       q    Type
REMARK                         _______ _______ _______ _____ _____    ______ ____
ROOT
ATOM      1  N   UNL     1      -2.466   3.064   6.079  0.00  0.00    +0.388 N 
ATOM      2  C   UNL     1      -2.195   4.193   5.178  0.00  0.00    -0.095 C 
ATOM      3  H   UNL     1      -1.503   2.599   6.337  0.00  0.00    -0.081 HD
ENDROOT
BRANCH   1   5
ATOM      4  C   UNL     1      -2.547   1.493   4.202  0.00  0.00    -0.008 C 
ATOM      5  C   UNL     1      -3.294   2.049   5.416  0.00  0.00    -0.041 C 
BRANCH   5   6
ATOM      6  C   UNL     1      -3.586   0.929   6.382  0.00  0.00    -0.061 A 
ATOM      7  C   UNL     1      -4.874   0.444   6.509  0.00  0.00    +0.004 A 
ATOM      8  C   UNL     1      -5.141  -0.583   7.395  0.00  0.00    +0.029 A 
ATOM      9  C   UNL     1      -4.120  -1.125   8.154  0.00  0.00    +0.105 A 
ATOM     10  C   UNL     1      -2.833  -0.636   8.030  0.00  0.00    +0.029 A 
ATOM     11  C   UNL     1      -2.565   0.388   7.141  0.00  0.00    +0.004 A 
BRANCH   9  12
ATOM     12  S   UNL     1      -4.461  -2.433   9.283  0.00  0.00    +0.056 S 
ATOM     13  O   UNL     1      -5.840  -2.337   9.612  0.00  0.00    -0.153 OA
ATOM     14  O   UNL     1      -3.438  -2.396  10.268  0.00  0.00    -0.153 OA
BRANCH  12  15
ATOM     15  N   UNL     1      -4.270  -3.856   8.456  0.00  0.00    -0.204 NA
ATOM     16  H   UNL     1      -4.475  -4.701   9.129  0.00  0.00    +0.144 HD
ATOM     17  H   UNL     1      -3.238  -3.926   8.082  0.00  0.00    +0.144 HD
ENDBRANCH  12  15
ENDBRANCH   9  12
ENDBRANCH   5   6
ENDBRANCH   1   5
BRANCH   1  18
ATOM     18  C   UNL     1      -3.093   3.524   7.325  0.00  0.00    +0.020 C 
BRANCH  18  19
ATOM     19  C   UNL     1      -2.115   4.372   8.096  0.00  0.00    +0.203 C 
ATOM     20  O   UNL     1      -0.972   4.488   7.705  0.00  0.00    -0.277 OA
ATOM     21  N   UNL     1      -2.509   5.002   9.221  0.00  0.00    -0.270 N 
BRANCH  21  22
ATOM     22  C   UNL     1      -1.655   5.917   9.847  0.00  0.00    +0.036 A 
ATOM     23  C   UNL     1      -1.994   6.452  11.082  0.00  0.00    +0.023 A 
ATOM     24  C   UNL     1      -1.147   7.352  11.699  0.00  0.00    +0.002 A 
ATOM     25  C   UNL     1       0.032   7.727  11.083  0.00  0.00    +0.000 A 
ATOM     26  C   UNL     1       0.371   7.199   9.851  0.00  0.00    +0.002 A 
ATOM     27  C   UNL     1      -0.470   6.296   9.231  0.00  0.00    +0.023 A 
ENDBRANCH  21  22
BRANCH  21  28
ATOM     28  C   UNL     1      -3.832   4.728   9.788  0.00  0.00    +0.081 C 
ATOM     29  C   UNL     1      -4.596   6.043   9.959  0.00  0.00    +0.023 C 
ATOM     30  C   UNL     1      -5.977   5.757  10.551  0.00  0.00    +0.002 C 
ATOM     31  C   UNL     1      -5.818   5.080  11.913  0.00  0.00    +0.000 C 
ATOM     32  C   UNL     1      -5.054   3.765  11.742  0.00  0.00    +0.002 C 
ATOM     33  C   UNL     1      -3.673   4.051  11.150  0.00  0.00    +0.023 C 
ENDBRANCH  21  28
ENDBRANCH  18  19
ENDBRANCH   1  18
TORSDOF 8
