REMARK  Name = ZINC65036380
REMARK  8 active torsions:
REMARK  status: ('A' for Active; 'I' for Inactive)
REMARK    1  A    between atoms: C_1  and  C_2
REMARK    2  A    between atoms: C_3  and  C_25
REMARK    3  A    between atoms: C_5  and  C_7
REMARK    4  A    between atoms: C_9  and  S_14
REMARK    5  A    between atoms: C_10  and  C_13
REMARK    6  A    between atoms: N_11  and  C_12
REMARK    7  A    between atoms: S_14  and  N_17
REMARK    8  A    between atoms: N_17  and  C_18
REMARK                            x       y       z     vdW  Elec       q    Type
REMARK                         _______ _______ _______ _____ _____    ______ ____
ROOT
ATOM      1  C   UNL     1      -0.215  -3.016   2.302  0.00  0.00    +0.076 A 
ATOM      2  C   UNL     1      -0.134  -4.380   2.237  0.00  0.00    +0.058 A 
ATOM      3  C   UNL     1      -0.002  -4.852   3.549  0.00  0.00    +0.126 A 
ATOM      4  C   UNL     1      -0.005  -3.782   4.376  0.00  0.00    +0.042 A 
ATOM      5  N   UNL     1      -0.129  -2.654   3.625  0.00  0.00    -0.344 N 
ATOM      6  C   UNL     1      -0.169  -1.284   4.141  0.00  0.00    +0.149 C 
ATOM      7  C   UNL     1       0.115  -3.830   5.878  0.00  0.00    +0.065 C 
ENDROOT
BRANCH   1  12
ATOM      8  C   UNL     1      -0.655   1.401   0.063  0.00  0.00    +0.067 C 
ATOM      9  C   UNL     1      -0.568  -0.103   0.042  0.00  0.00    +0.058 A 
ATOM     10  C   UNL     1      -0.625  -0.794  -1.163  0.00  0.00    +0.097 A 
ATOM     11  S   UNL     1      -0.479  -2.479  -0.582  0.00  0.00    -0.061 S 
ATOM     12  C   UNL     1      -0.360  -2.102   1.162  0.00  0.00    +0.126 A 
ATOM     13  N   UNL     1      -0.434  -0.772   1.153  0.00  0.00    -0.242 NA
BRANCH  10  14
ATOM     14  C   UNL     1      -0.765  -0.284  -2.528  0.00  0.00    +0.255 C 
ATOM     15  O   UNL     1      -0.852   0.915  -2.724  0.00  0.00    -0.269 OA
ATOM     16  N   UNL     1      -0.798  -1.141  -3.567  0.00  0.00    -0.297 N 
ATOM     17  C   UNL     1      -0.711  -2.605  -3.474  0.00  0.00    +0.108 C 
ATOM     18  C   UNL     1      -0.765  -3.160  -4.912  0.00  0.00    +0.020 C 
ATOM     19  C   UNL     1      -0.311  -1.950  -5.770  0.00  0.00    +0.020 C 
ATOM     20  C   UNL     1      -0.935  -0.765  -4.986  0.00  0.00    +0.108 C 
ENDBRANCH  10  14
ENDBRANCH   1  12
BRANCH   3  21
ATOM     21  S   UNL     1       0.143  -6.540   4.035  0.00  0.00    +0.060 S 
ATOM     22  O   UNL     1      -0.801  -6.744   5.078  0.00  0.00    -0.153 OA
ATOM     23  O   UNL     1       0.136  -7.309   2.841  0.00  0.00    -0.153 OA
BRANCH  21  24
ATOM     24  N   UNL     1       1.643  -6.728   4.711  0.00  0.00    -0.187 NA
ATOM     25  H   UNL     1       1.727  -6.967   5.647  0.00  0.00    +0.148 HD
BRANCH  24  26
ATOM     26  C   UNL     1       2.844  -6.533   3.894  0.00  0.00    +0.077 C 
ATOM     27  C   UNL     1       3.287  -7.896   3.325  0.00  0.00    +0.020 C 
ATOM     28  C   UNL     1       4.159  -7.651   2.123  0.00  0.00    +0.002 C 
ATOM     29  C   UNL     1       5.658  -7.634   2.477  0.00  0.00    +0.000 C 
ATOM     30  C   UNL     1       5.955  -6.879   3.787  0.00  0.00    +0.000 C 
ATOM     31  C   UNL     1       5.157  -5.609   3.912  0.00  0.00    +0.002 C 
ATOM     32  C   UNL     1       3.875  -5.912   4.713  0.00  0.00    +0.020 C 
ENDBRANCH  24  26
ENDBRANCH  21  24
ENDBRANCH   3  21
TORSDOF 5
