REMARK  Name = ZINC65404240
REMARK  10 active torsions:
REMARK  status: ('A' for Active; 'I' for Inactive)
REMARK    1  A    between atoms: C_1  and  C_2
REMARK    2  A    between atoms: C_2  and  C_3
REMARK    3  A    between atoms: C_3  and  C_4
REMARK    4  A    between atoms: C_6  and  C_9
REMARK    5  A    between atoms: C_9  and  C_10
REMARK    6  A    between atoms: C_9  and  C_11
REMARK    7  A    between atoms: C_9  and  N_12
REMARK    8  A    between atoms: C_13  and  C_15
REMARK    9  A    between atoms: C_16  and  C_27
REMARK   10  A    between atoms: C_18  and  C_20
REMARK                            x       y       z     vdW  Elec       q    Type
REMARK                         _______ _______ _______ _____ _____    ______ ____
ROOT
ATOM      1  N   UNL     1       0.052  -6.484  -1.716  0.00  0.00    -0.299 N 
ATOM      2  C   UNL     1      -0.483  -7.678  -2.037  0.00  0.00    +0.253 C 
ATOM      3  O   UNL     1      -1.539  -7.729  -2.641  0.00  0.00    -0.270 OA
ATOM      4  H   UNL     1       0.894  -6.444  -1.235  0.00  0.00    +0.150 HD
ENDROOT
BRANCH   2   5
ATOM      5  C   UNL     1       0.206  -8.916  -1.660  0.00  0.00    +0.097 A 
ATOM      6  C   UNL     1      -0.155 -10.238  -1.890  0.00  0.00    +0.058 A 
ATOM      7  N   UNL     1       0.662 -11.150  -1.434  0.00  0.00    -0.243 NA
ATOM      8  C   UNL     1       1.771 -10.826  -0.790  0.00  0.00    +0.109 A 
ATOM      9  S   UNL     1       1.746  -9.143  -0.785  0.00  0.00    -0.062 S 
ATOM     10  C   UNL     1      -1.420 -10.600  -2.625  0.00  0.00    +0.067 C 
BRANCH   8  11
ATOM     11  C   UNL     1       2.792 -11.726  -0.216  0.00  0.00    +0.007 A 
ATOM     12  C   UNL     1       3.904 -11.197   0.441  0.00  0.00    +0.012 A 
ATOM     13  C   UNL     1       4.853 -12.043   0.975  0.00  0.00    +0.020 A 
ATOM     14  C   UNL     1       4.705 -13.415   0.861  0.00  0.00    +0.041 A 
ATOM     15  C   UNL     1       3.604 -13.946   0.210  0.00  0.00    +0.020 A 
ATOM     16  C   UNL     1       2.645 -13.111  -0.323  0.00  0.00    +0.012 A 
ATOM     17 CL   UNL     1       5.904 -14.473   1.535  0.00  0.00    -0.084 Cl
ENDBRANCH   8  11
ENDBRANCH   2   5
BRANCH   1  18
ATOM     18  C   UNL     1      -0.636  -5.247  -2.093  0.00  0.00    +0.092 C 
ATOM     19  C   UNL     1      -2.022  -5.217  -1.445  0.00  0.00    +0.040 C 
ATOM     20  C   UNL     1      -0.784  -5.189  -3.615  0.00  0.00    +0.040 C 
BRANCH  18  23
ATOM     21  C   UNL     1       0.739  -2.004  -1.265  0.00  0.00    +0.227 A 
ATOM     22  N   UNL     1      -0.169  -2.778  -1.794  0.00  0.00    -0.194 NA
ATOM     23  C   UNL     1       0.165  -4.062  -1.620  0.00  0.00    +0.194 A 
ATOM     24  N   UNL     1       1.295  -4.120  -0.975  0.00  0.00    -0.059 NA
ATOM     25  O   UNL     1       1.694  -2.779  -0.736  0.00  0.00    -0.338 OA
BRANCH  21  26
ATOM     26  C   UNL     1       0.718  -0.497  -1.257  0.00  0.00    +0.098 C 
BRANCH  26  28
ATOM     27  C   UNL     1      -0.019   1.526   0.010  0.00  0.00    +0.004 C 
ATOM     28  C   UNL     1       0.002  -0.004   0.002  0.00  0.00    +0.006 C 
ENDBRANCH  26  28
ENDBRANCH  21  26
ENDBRANCH  18  23
ENDBRANCH   1  18
TORSDOF 6
