REMARK  Name = ZINC59851507
REMARK  5 active torsions:
REMARK  status: ('A' for Active; 'I' for Inactive)
REMARK    1  A    between atoms: C_1  and  C_2
REMARK    2  A    between atoms: C_2  and  N_3
REMARK    3  A    between atoms: C_6  and  C_9
REMARK    4  A    between atoms: C_14  and  C_16
REMARK    5  A    between atoms: C_24  and  C_26
REMARK                            x       y       z     vdW  Elec       q    Type
REMARK                         _______ _______ _______ _____ _____    ______ ____
ROOT
ATOM      1  C   UNL     1       5.186  -1.833  -3.314  0.00  0.00    +0.063 C 
ATOM      2  C   UNL     1       4.884  -2.350  -4.561  0.00  0.00    +0.154 C 
ATOM      3  C   UNL     1       5.829  -2.861  -5.565  0.00  0.00    +0.364 C 
ATOM      4  O   UNL     1       7.042  -2.918  -5.476  0.00  0.00    -0.243 OA
ATOM      5  O   UNL     1       5.064  -3.252  -6.607  0.00  0.00    -0.402 OA
ATOM      6  C   UNL     1       3.772  -3.019  -6.305  0.00  0.00    +0.232 C 
ATOM      7  N   UNL     1       3.646  -2.499  -5.116  0.00  0.00    -0.205 NA
ENDROOT
BRANCH   1  11
ATOM      8  N   UNL     1       0.570  -1.710  -1.890  0.00  0.00    -0.251 N 
ATOM      9  C   UNL     1       1.940  -1.502  -1.818  0.00  0.00    +0.168 A 
ATOM     10  N   UNL     1       2.872  -1.817  -2.693  0.00  0.00    -0.225 NA
ATOM     11  C   UNL     1       4.144  -1.516  -2.407  0.00  0.00    +0.075 A 
ATOM     12  C   UNL     1       4.418  -0.888  -1.204  0.00  0.00    +0.076 A 
ATOM     13  S   UNL     1       2.889  -0.733  -0.518  0.00  0.00    -0.060 S 
ATOM     14  C   UNL     1       0.047  -2.401  -2.922  0.00  0.00    +0.218 C 
ATOM     15  O   UNL     1       0.780  -2.923  -3.736  0.00  0.00    -0.276 OA
ATOM     16  C   UNL     1      -1.448  -2.526  -3.066  0.00  0.00    +0.110 C 
BRANCH   8  18
ATOM     17  C   UNL     1      -0.778   0.224  -1.239  0.00  0.00    +0.025 C 
ATOM     18  C   UNL     1      -0.308  -1.178  -0.845  0.00  0.00    +0.112 C 
ENDBRANCH   8  18
ENDBRANCH   1  11
BRANCH   6  19
ATOM     19  C   UNL     1       2.641  -3.319  -7.205  0.00  0.00    +0.040 A 
ATOM     20  C   UNL     1       1.353  -2.888  -6.880  0.00  0.00    +0.016 A 
ATOM     21  C   UNL     1       0.300  -3.171  -7.723  0.00  0.00    +0.042 A 
ATOM     22  C   UNL     1       0.516  -3.882  -8.893  0.00  0.00    +0.158 A 
ATOM     23  C   UNL     1       1.794  -4.313  -9.223  0.00  0.00    +0.159 A 
ATOM     24  C   UNL     1       2.857  -4.030  -8.388  0.00  0.00    +0.054 A 
ATOM     25  F   UNL     1       1.999  -5.006 -10.365  0.00  0.00    -0.202 F 
ATOM     26  F   UNL     1      -0.520  -4.157  -9.716  0.00  0.00    -0.202 F 
ENDBRANCH   6  19
TORSDOF 3
