REMARK  Name = ZINC03011263
REMARK  5 active torsions:
REMARK  status: ('A' for Active; 'I' for Inactive)
REMARK    1  A    between atoms: C_3  and  N_9
REMARK    2  A    between atoms: C_6  and  C_7
REMARK    3  A    between atoms: C_10  and  C_12
REMARK    4  A    between atoms: C_17  and  C_32
REMARK    5  A    between atoms: C_20  and  C_23
REMARK                            x       y       z     vdW  Elec       q    Type
REMARK                         _______ _______ _______ _____ _____    ______ ____
ROOT
ATOM      1  C   UNL     1       6.016   2.241   0.168  0.00  0.00    +0.149 A 
ATOM      2  C   UNL     1       7.313   1.687   0.259  0.00  0.00    +0.078 A 
ATOM      3  C   UNL     1       8.187   2.710   0.335  0.00  0.00    +0.119 A 
ATOM      4  N   UNL     1       7.480   3.878   0.297  0.00  0.00    -0.238 N 
ATOM      5  N   UNL     1       6.128   3.557   0.185  0.00  0.00    -0.164 NA
ATOM      6  C   UNL     1       8.098   5.205   0.362  0.00  0.00    +0.215 C 
ATOM      7  C   UNL     1       9.508   5.067   0.949  0.00  0.00    +0.063 C 
ATOM      8  C   UNL     1      10.275   3.964   0.212  0.00  0.00    +0.104 C 
ATOM      9  N   UNL     1       9.581   2.680   0.436  0.00  0.00    -0.322 N 
ATOM     10  H   UNL     1      10.064   1.865   0.641  0.00  0.00    +0.148 HD
ENDROOT
BRANCH   8  11
ATOM     11  C   UNL     1      10.313   4.273  -1.263  0.00  0.00    -0.024 A 
ATOM     12  C   UNL     1       9.214   3.996  -2.054  0.00  0.00    +0.009 A 
ATOM     13  C   UNL     1       9.244   4.277  -3.407  0.00  0.00    +0.050 A 
ATOM     14  C   UNL     1      10.377   4.838  -3.974  0.00  0.00    +0.166 A 
ATOM     15  C   UNL     1      11.484   5.118  -3.176  0.00  0.00    +0.167 A 
ATOM     16  C   UNL     1      11.445   4.838  -1.820  0.00  0.00    +0.055 A 
ATOM     17  O   UNL     1      12.461   5.660  -3.961  0.00  0.00    -0.453 OA
ATOM     18  C   UNL     1      12.093   5.333  -5.314  0.00  0.00    +0.466 C 
ATOM     19  O   UNL     1      10.660   5.206  -5.257  0.00  0.00    -0.453 OA
ENDBRANCH   8  11
BRANCH   1  21
ATOM     20  N   UNL     1       3.578   2.133  -0.022  0.00  0.00    -0.280 N 
ATOM     21  C   UNL     1       4.754   1.480   0.065  0.00  0.00    +0.268 C 
ATOM     22  O   UNL     1       4.776   0.264   0.058  0.00  0.00    -0.268 OA
ATOM     23  H   UNL     1       3.564   3.101  -0.083  0.00  0.00    +0.155 HD
BRANCH  20  26
ATOM     24  C   UNL     1       1.137  -0.537  -0.644  0.00  0.00    +0.020 A 
ATOM     25  C   UNL     1       2.317   0.173  -0.642  0.00  0.00    +0.024 A 
ATOM     26  C   UNL     1       2.381   1.417  -0.022  0.00  0.00    +0.034 A 
ATOM     27  C   UNL     1       1.255   1.948   0.597  0.00  0.00    +0.024 A 
ATOM     28  C   UNL     1       0.071   1.244   0.599  0.00  0.00    +0.020 A 
ATOM     29  C   UNL     1       0.003  -0.006  -0.023  0.00  0.00    +0.052 A 
BRANCH  29  30
ATOM     30  C   UNL     1      -1.226  -0.741  -0.024  0.00  0.00    +0.099 C 
ATOM     31  N   UNL     1      -2.201  -1.324  -0.025  0.00  0.00    -0.191 NA
ENDBRANCH  29  30
ENDBRANCH  20  26
ENDBRANCH   1  21
BRANCH   6  32
ATOM     32  C   UNL     1       7.256   6.120   1.254  0.00  0.00    +0.412 C 
ATOM     33  F   UNL     1       7.183   5.577   2.541  0.00  0.00    -0.168 F 
ATOM     34  F   UNL     1       7.848   7.386   1.315  0.00  0.00    -0.168 F 
ATOM     35  F   UNL     1       5.968   6.232   0.721  0.00  0.00    -0.168 F 
ENDBRANCH   6  32
TORSDOF 5
