REMARK  Name = ZINC20730459
REMARK  8 active torsions:
REMARK  status: ('A' for Active; 'I' for Inactive)
REMARK    1  A    between atoms: C_1  and  C_2
REMARK    2  A    between atoms: C_2  and  C_3
REMARK    3  A    between atoms: C_2  and  C_4
REMARK    4  A    between atoms: C_4  and  C_6
REMARK    5  A    between atoms: C_4  and  N_10
REMARK    6  A    between atoms: C_6  and  O_8
REMARK    7  A    between atoms: O_8  and  C_9
REMARK    8  A    between atoms: C_22  and  C_24
REMARK                            x       y       z     vdW  Elec       q    Type
REMARK                         _______ _______ _______ _____ _____    ______ ____
ROOT
ATOM      1  N   UNL     1      -1.194  -2.009   2.307  0.00  0.00    -0.286 N 
ATOM      2  C   UNL     1      -1.290  -2.687   1.146  0.00  0.00    +0.304 C 
ATOM      3  O   UNL     1      -1.487  -2.087   0.107  0.00  0.00    -0.253 OA
ATOM      4  N   UNL     1      -1.169  -4.029   1.137  0.00  0.00    -0.273 N 
ATOM      5  C   UNL     1      -1.157  -4.776  -0.130  0.00  0.00    +0.116 C 
ATOM      6  C   UNL     1       0.210  -5.451  -0.301  0.00  0.00    +0.074 C 
ATOM      7  C   UNL     1       0.599  -6.097   1.002  0.00  0.00    +0.040 A 
ATOM      8  C   UNL     1       0.053  -5.804   2.202  0.00  0.00    +0.062 A 
ATOM      9  N   UNL     1       0.645  -6.565   3.125  0.00  0.00    -0.348 N 
ATOM     10  C   UNL     1       1.538  -7.324   2.545  0.00  0.00    +0.171 A 
ATOM     11  N   UNL     1       1.538  -7.060   1.218  0.00  0.00    -0.349 N 
ATOM     12  H   UNL     1       2.100  -7.478   0.547  0.00  0.00    +0.166 HD
ATOM     13  C   UNL     1      -1.038  -4.784   2.397  0.00  0.00    +0.156 C 
ATOM     14  H   UNL     1      -1.100  -2.491   3.144  0.00  0.00    +0.151 HD
ATOM     15  H   UNL     1       0.444  -6.557   4.074  0.00  0.00    +0.167 HD
ENDROOT
BRANCH  13  16
ATOM     16  C   UNL     1      -2.336  -5.480   2.714  0.00  0.00    -0.020 A 
ATOM     17  C   UNL     1      -2.807  -6.477   1.880  0.00  0.00    +0.006 A 
ATOM     18  C   UNL     1      -3.998  -7.117   2.170  0.00  0.00    +0.002 A 
ATOM     19  C   UNL     1      -4.718  -6.760   3.295  0.00  0.00    +0.020 A 
ATOM     20  C   UNL     1      -4.246  -5.763   4.130  0.00  0.00    +0.041 A 
ATOM     21  C   UNL     1      -3.052  -5.127   3.842  0.00  0.00    +0.025 A 
ATOM     22 CL   UNL     1      -5.150  -5.314   5.543  0.00  0.00    -0.084 Cl
ENDBRANCH  13  16
BRANCH   1  23
ATOM     23  C   UNL     1      -1.233  -0.545   2.306  0.00  0.00    +0.186 C 
BRANCH  23  25
ATOM     24  C   UNL     1      -2.728   1.457   2.319  0.00  0.00    +0.009 C 
ATOM     25  C   UNL     1      -2.688  -0.073   2.320  0.00  0.00    +0.014 C 
ATOM     26  C   UNL     1      -3.409  -0.603   1.079  0.00  0.00    +0.009 C 
ENDBRANCH  23  25
BRANCH  23  27
ATOM     27  C   UNL     1      -0.523  -0.023   3.529  0.00  0.00    +0.328 C 
ATOM     28  O   UNL     1      -0.036  -0.795   4.320  0.00  0.00    -0.249 OA
BRANCH  27  29
ATOM     29  O   UNL     1      -0.433   1.300   3.739  0.00  0.00    -0.467 OA
ATOM     30  C   UNL     1       0.253   1.724   4.918  0.00  0.00    +0.280 C 
ENDBRANCH  27  29
ENDBRANCH  23  27
ENDBRANCH   1  23
TORSDOF 5
