REMARK  Name = ZINC50152635
REMARK  12 active torsions:
REMARK  status: ('A' for Active; 'I' for Inactive)
REMARK    1  A    between atoms: C_1  and  C_2
REMARK    2  A    between atoms: C_2  and  N_3
REMARK    3  A    between atoms: N_3  and  C_4
REMARK    4  A    between atoms: C_4  and  C_5
REMARK    5  A    between atoms: N_7  and  C_8
REMARK    6  A    between atoms: C_8  and  C_9
REMARK    7  A    between atoms: C_8  and  C_10
REMARK    8  A    between atoms: C_8  and  C_11
REMARK    9  A    between atoms: N_14  and  C_15
REMARK   10  A    between atoms: C_15  and  C_17
REMARK   11  A    between atoms: C_15  and  C_18
REMARK   12  A    between atoms: C_19  and  C_27
REMARK                            x       y       z     vdW  Elec       q    Type
REMARK                         _______ _______ _______ _____ _____    ______ ____
ROOT
ATOM      1  N   UNL     1      -1.372  -0.511   0.012  0.00  0.00    -0.277 N 
ATOM      2  C   UNL     1      -1.993  -0.751   1.184  0.00  0.00    +0.303 C 
ATOM      3  O   UNL     1      -3.134  -1.171   1.193  0.00  0.00    -0.253 OA
ATOM      4  N   UNL     1      -1.350  -0.524   2.347  0.00  0.00    -0.290 N 
ATOM      5  H   UNL     1      -0.440  -0.188   2.340  0.00  0.00    +0.151 HD
ENDROOT
BRANCH   1   7
ATOM      6  C   UNL     1      -0.019   1.526   0.010  0.00  0.00    +0.024 C 
ATOM      7  C   UNL     1       0.002  -0.004   0.002  0.00  0.00    +0.106 C 
ENDBRANCH   1   7
BRANCH   4   8
ATOM      8  C   UNL     1      -2.025  -0.784   3.620  0.00  0.00    +0.138 C 
ATOM      9  C   UNL     1      -1.866  -2.260   3.990  0.00  0.00    +0.036 C 
BRANCH   8  10
ATOM     10  C   UNL     1      -1.412   0.073   4.698  0.00  0.00    +0.129 A 
ATOM     11  C   UNL     1      -2.103   0.765   5.614  0.00  0.00    +0.000 A 
ATOM     12  C   UNL     1      -1.107   1.444   6.451  0.00  0.00    +0.023 A 
ATOM     13  C   UNL     1      -1.177   2.298   7.550  0.00  0.00    +0.012 A 
ATOM     14  C   UNL     1      -0.026   2.772   8.116  0.00  0.00    +0.001 A 
ATOM     15  C   UNL     1       1.210   2.408   7.601  0.00  0.00    +0.004 A 
ATOM     16  C   UNL     1       1.299   1.565   6.514  0.00  0.00    +0.047 A 
ATOM     17  C   UNL     1       0.141   1.072   5.925  0.00  0.00    +0.136 A 
ATOM     18  O   UNL     1      -0.092   0.248   4.884  0.00  0.00    -0.458 OA
ATOM     19  C   UNL     1      -3.602   0.832   5.756  0.00  0.00    +0.048 C 
ENDBRANCH   8  10
ENDBRANCH   4   8
BRANCH   1  20
ATOM     20  C   UNL     1      -2.072  -0.758  -1.251  0.00  0.00    +0.205 C 
BRANCH  20  21
ATOM     21  C   UNL     1      -1.820  -2.175  -1.696  0.00  0.00    +0.231 C 
ATOM     22  O   UNL     1      -1.125  -2.908  -1.024  0.00  0.00    -0.274 OA
ATOM     23  N   UNL     1      -2.367  -2.630  -2.841  0.00  0.00    -0.309 N 
ATOM     24  H   UNL     1      -2.923  -2.044  -3.378  0.00  0.00    +0.149 HD
BRANCH  23  25
ATOM     25  C   UNL     1      -2.122  -4.008  -3.274  0.00  0.00    +0.026 C 
ATOM     26  C   UNL     1      -2.638  -4.976  -2.208  0.00  0.00    +0.031 C 
ATOM     27  C   UNL     1      -2.853  -4.265  -4.593  0.00  0.00    +0.031 C 
ATOM     28  C   UNL     1      -0.620  -4.221  -3.472  0.00  0.00    +0.031 C 
ENDBRANCH  23  25
ENDBRANCH  20  21
ENDBRANCH   1  20
TORSDOF 6
