REMARK  Name = ZINC12485994
REMARK  9 active torsions:
REMARK  status: ('A' for Active; 'I' for Inactive)
REMARK    1  A    between atoms: C_4  and  C_7
REMARK    2  A    between atoms: C_7  and  C_9
REMARK    3  A    between atoms: C_7  and  N_19
REMARK    4  A    between atoms: N_11  and  C_12
REMARK    5  A    between atoms: C_12  and  C_13
REMARK    6  A    between atoms: N_19  and  C_20
REMARK    7  A    between atoms: C_30  and  C_32
REMARK    8  A    between atoms: C_32  and  N_33
REMARK    9  A    between atoms: C_34  and  C_36
REMARK                            x       y       z     vdW  Elec       q    Type
REMARK                         _______ _______ _______ _____ _____    ______ ____
ROOT
ATOM      1  N   UNL     1      -1.913   5.479  -0.083  0.00  0.00    -0.253 N 
ATOM      2  C   UNL     1      -2.676   5.723   1.000  0.00  0.00    +0.238 C 
ATOM      3  O   UNL     1      -3.369   6.718   1.042  0.00  0.00    -0.274 OA
ENDROOT
BRANCH   1   4
ATOM      4  C   UNL     1      -1.116   4.333  -0.131  0.00  0.00    +0.045 A 
ATOM      5  C   UNL     1       0.053   4.268   0.596  0.00  0.00    +0.024 A 
ATOM      6  C   UNL     1       0.855   3.131   0.554  0.00  0.00    +0.002 A 
ATOM      7  C   UNL     1       0.508   2.054  -0.202  0.00  0.00    +0.008 A 
ATOM      8  C   UNL     1      -0.676   2.079  -0.958  0.00  0.00    -0.016 A 
ATOM      9  C   UNL     1      -1.500   3.231  -0.924  0.00  0.00    +0.004 A 
ATOM     10  C   UNL     1      -2.683   3.256  -1.680  0.00  0.00    +0.010 A 
ATOM     11  C   UNL     1      -3.020   2.176  -2.439  0.00  0.00    +0.001 A 
ATOM     12  C   UNL     1      -2.213   1.041  -2.469  0.00  0.00    +0.001 A 
ATOM     13  C   UNL     1      -1.060   0.982  -1.749  0.00  0.00    +0.008 A 
ENDBRANCH   1   4
BRANCH   1  14
ATOM     14  C   UNL     1      -1.919   6.415  -1.210  0.00  0.00    +0.197 C 
BRANCH  14  18
ATOM     15  C   UNL     1      -0.155  10.112   0.003  0.00  0.00    +0.000 A 
ATOM     16  C   UNL     1      -1.347  10.111  -0.696  0.00  0.00    +0.000 A 
ATOM     17  C   UNL     1      -1.918   8.915  -1.089  0.00  0.00    +0.006 A 
ATOM     18  C   UNL     1      -1.296   7.719  -0.782  0.00  0.00    -0.018 A 
ATOM     19  C   UNL     1      -0.106   7.719  -0.079  0.00  0.00    +0.006 A 
ATOM     20  C   UNL     1       0.468   8.916   0.309  0.00  0.00    +0.000 A 
ENDBRANCH  14  18
BRANCH  14  21
ATOM     21  C   UNL     1      -1.127   5.832  -2.352  0.00  0.00    +0.239 C 
ATOM     22  O   UNL     1      -0.137   5.168  -2.127  0.00  0.00    -0.273 OA
ATOM     23  N   UNL     1      -1.520   6.047  -3.623  0.00  0.00    -0.311 N 
ATOM     24  H   UNL     1      -2.312   6.577  -3.803  0.00  0.00    +0.149 HD
BRANCH  23  25
ATOM     25  C   UNL     1      -0.751   5.479  -4.734  0.00  0.00    +0.135 C 
BRANCH  25  26
ATOM     26  C   UNL     1      -1.407   5.870  -6.060  0.00  0.00    +0.135 C 
ATOM     27  C   UNL     1      -0.605   5.278  -7.235  0.00  0.00    +0.035 C 
ATOM     28  C   UNL     1      -1.630   4.395  -7.987  0.00  0.00    +0.031 C 
ATOM     29  C   UNL     1      -2.980   4.990  -7.512  0.00  0.00    +0.160 C 
ATOM     30  O   UNL     1      -2.734   5.323  -6.129  0.00  0.00    -0.375 OA
ENDBRANCH  25  26
ENDBRANCH  23  25
ENDBRANCH  14  21
ENDBRANCH   1  14
BRANCH   2  31
ATOM     31  C   UNL     1      -2.670   4.760   2.159  0.00  0.00    +0.201 C 
BRANCH  31  32
ATOM     32  N   UNL     1      -3.576   5.246   3.203  0.00  0.00    -0.300 N 
ATOM     33  C   UNL     1      -3.732   4.542   4.341  0.00  0.00    +0.280 C 
ATOM     34  O   UNL     1      -3.121   3.501   4.502  0.00  0.00    -0.267 OA
ATOM     35  H   UNL     1      -4.062   6.075   3.075  0.00  0.00    +0.150 HD
BRANCH  33  36
ATOM     36  C   UNL     1      -4.638   5.029   5.387  0.00  0.00    +0.189 A 
ATOM     37  C   UNL     1      -4.888   4.416   6.581  0.00  0.00    +0.054 A 
ATOM     38  C   UNL     1      -5.809   5.226   7.265  0.00  0.00    +0.042 A 
ATOM     39  C   UNL     1      -6.078   6.283   6.467  0.00  0.00    +0.196 A 
ATOM     40  O   UNL     1      -5.367   6.163   5.339  0.00  0.00    -0.458 OA
ENDBRANCH  33  36
ENDBRANCH  31  32
ENDBRANCH   2  31
TORSDOF 9
