REMARK  Name = ZINC04936366
REMARK  6 active torsions:
REMARK  status: ('A' for Active; 'I' for Inactive)
REMARK    1  A    between atoms: C_1  and  C_2
REMARK    2  A    between atoms: C_2  and  C_3
REMARK    3  A    between atoms: C_2  and  C_4
REMARK    4  A    between atoms: C_6  and  C_21
REMARK    5  A    between atoms: C_9  and  C_15
REMARK    6  A    between atoms: N_13  and  O_14
REMARK                            x       y       z     vdW  Elec       q    Type
REMARK                         _______ _______ _______ _____ _____    ______ ____
ROOT
ATOM      1  C   UNL     1       0.766  -0.383  -1.432  0.00  0.00    +0.061 C 
ATOM      2  C   UNL     1       0.816  -1.915  -1.400  0.00  0.00    +0.093 C 
ATOM      3  N   UNL     1       1.554  -2.354  -0.209  0.00  0.00    -0.302 NA
ATOM      4  C   UNL     1       2.965  -1.952  -0.271  0.00  0.00    +0.090 C 
ATOM      5  C   UNL     1       3.062  -0.423  -0.227  0.00  0.00    +0.078 C 
ATOM      6  C   UNL     1       2.183   0.140  -1.325  0.00  0.00    +0.064 C 
ATOM      7  N   UNL     1       2.623   1.027  -2.136  0.00  0.00    -0.096 NA
ATOM      8  H   UNL     1       1.117  -2.012   0.634  0.00  0.00    +0.123 HD
ENDROOT
BRANCH   4   9
ATOM      9  C   UNL     1       3.706  -2.537   0.904  0.00  0.00    -0.030 A 
ATOM     10  C   UNL     1       3.107  -2.574   2.150  0.00  0.00    +0.005 A 
ATOM     11  C   UNL     1       3.787  -3.111   3.227  0.00  0.00    +0.000 A 
ATOM     12  C   UNL     1       5.065  -3.611   3.059  0.00  0.00    +0.000 A 
ATOM     13  C   UNL     1       5.663  -3.574   1.813  0.00  0.00    +0.000 A 
ATOM     14  C   UNL     1       4.982  -3.042   0.735  0.00  0.00    +0.005 A 
ENDBRANCH   4   9
BRANCH   2  15
ATOM     15  C   UNL     1      -0.588  -2.462  -1.351  0.00  0.00    -0.030 A 
ATOM     16  C   UNL     1      -1.189  -2.717  -0.133  0.00  0.00    +0.005 A 
ATOM     17  C   UNL     1      -2.476  -3.219  -0.088  0.00  0.00    +0.000 A 
ATOM     18  C   UNL     1      -3.163  -3.465  -1.262  0.00  0.00    +0.000 A 
ATOM     19  C   UNL     1      -2.562  -3.210  -2.481  0.00  0.00    +0.000 A 
ATOM     20  C   UNL     1      -1.276  -2.704  -2.525  0.00  0.00    +0.005 A 
ENDBRANCH   2  15
BRANCH   1  22
ATOM     21  C   UNL     1       0.867   0.512   0.898  0.00  0.00    +0.008 C 
ATOM     22  C   UNL     1      -0.064   0.132  -0.254  0.00  0.00    -0.007 C 
ATOM     23  C   UNL     1      -0.863   1.361  -0.692  0.00  0.00    +0.008 C 
ENDBRANCH   1  22
BRANCH   7  24
ATOM     24  O   UNL     1       3.953   1.499  -2.015  0.00  0.00    -0.409 OA
ATOM     25  H   UNL     1       4.194   2.167  -2.671  0.00  0.00    +0.328 HD
ENDBRANCH   7  24
TORSDOF 4
