REMARK  Name = ZINC09010699
REMARK  8 active torsions:
REMARK  status: ('A' for Active; 'I' for Inactive)
REMARK    1  A    between atoms: C_1  and  C_2
REMARK    2  A    between atoms: C_5  and  N_9
REMARK    3  A    between atoms: C_6  and  C_8
REMARK    4  A    between atoms: C_13  and  C_15
REMARK    5  A    between atoms: C_15  and  S_16
REMARK    6  A    between atoms: S_16  and  C_17
REMARK    7  A    between atoms: N_27  and  C_28
REMARK    8  A    between atoms: C_28  and  C_29
REMARK                            x       y       z     vdW  Elec       q    Type
REMARK                         _______ _______ _______ _____ _____    ______ ____
ROOT
ATOM      1  S   UNL     1      -2.655  -2.896  -0.024  0.00  0.00    -0.078 S 
ENDROOT
BRANCH   1   2
ATOM      2  C   UNL     1      -1.118  -2.035  -0.051  0.00  0.00    +0.173 A 
ATOM      3  N   UNL     1      -1.137  -0.725  -0.050  0.00  0.00    -0.223 NA
ATOM      4  C   UNL     1       0.001  -0.002  -0.071  0.00  0.00    +0.079 A 
ATOM      5  C   UNL     1      -0.018   1.396  -0.070  0.00  0.00    +0.028 A 
ATOM      6  C   UNL     1       1.159   2.089  -0.091  0.00  0.00    +0.002 A 
ATOM      7  C   UNL     1       2.379   1.425  -0.113  0.00  0.00    +0.001 A 
ATOM      8  C   UNL     1       2.430   0.058  -0.114  0.00  0.00    +0.015 A 
ATOM      9  C   UNL     1       1.244  -0.674  -0.093  0.00  0.00    +0.065 A 
ATOM     10  C   UNL     1       1.239  -2.143  -0.093  0.00  0.00    +0.263 A 
ATOM     11  O   UNL     1       2.277  -2.778  -0.112  0.00  0.00    -0.267 OA
ATOM     12  N   UNL     1       0.036  -2.764  -0.071  0.00  0.00    -0.280 N 
BRANCH  12  13
ATOM     13  C   UNL     1      -0.027  -4.227  -0.069  0.00  0.00    +0.201 C 
BRANCH  13  14
ATOM     14  C   UNL     1      -0.074  -4.729  -1.489  0.00  0.00    +0.125 A 
ATOM     15  C   UNL     1       0.991  -5.034  -2.252  0.00  0.00    +0.046 A 
ATOM     16  C   UNL     1       0.491  -5.464  -3.502  0.00  0.00    +0.041 A 
ATOM     17  C   UNL     1      -0.850  -5.389  -3.432  0.00  0.00    +0.195 A 
ATOM     18  O   UNL     1      -1.187  -4.944  -2.210  0.00  0.00    -0.466 OA
ENDBRANCH  13  14
ENDBRANCH  12  13
ENDBRANCH   1   2
BRANCH   1  19
ATOM     19  C   UNL     1      -3.801  -1.495  -0.004  0.00  0.00    +0.173 C 
BRANCH  19  24
ATOM     20  N   UNL     1      -8.545  -0.723   0.079  0.00  0.00    -0.269 N 
ATOM     21  C   UNL     1      -7.516  -1.593   0.061  0.00  0.00    +0.310 C 
ATOM     22  O   UNL     1      -7.731  -2.789   0.065  0.00  0.00    -0.252 OA
ATOM     23  N   UNL     1      -6.248  -1.136   0.039  0.00  0.00    -0.239 N 
ATOM     24  C   UNL     1      -5.218  -2.006   0.021  0.00  0.00    +0.231 C 
ATOM     25  O   UNL     1      -5.433  -3.199   0.025  0.00  0.00    -0.274 OA
ATOM     26  H   UNL     1      -8.374   0.229   0.158  0.00  0.00    +0.156 HD
ATOM     27  H   UNL     1      -6.076  -0.181   0.035  0.00  0.00    +0.159 HD
BRANCH  20  32
ATOM     28  C   UNL     1     -13.875  -2.627  -0.308  0.00  0.00    +0.044 C 
ATOM     29  C   UNL     1     -12.459  -2.121  -0.206  0.00  0.00    -0.050 A 
ATOM     30  C   UNL     1     -11.418  -2.873  -0.720  0.00  0.00    +0.005 A 
ATOM     31  C   UNL     1     -10.120  -2.413  -0.627  0.00  0.00    +0.024 A 
ATOM     32  C   UNL     1      -9.860  -1.192  -0.017  0.00  0.00    +0.038 A 
ATOM     33  C   UNL     1     -10.906  -0.442   0.502  0.00  0.00    -0.029 A 
ATOM     34  C   UNL     1     -12.203  -0.906   0.402  0.00  0.00    +0.008 A 
ATOM     35  C   UNL     1     -10.627   0.880   1.170  0.00  0.00    +0.045 C 
ENDBRANCH  20  32
ENDBRANCH  19  24
ENDBRANCH   1  19
TORSDOF 6
