REMARK  Name = ZINC41014752
REMARK  11 active torsions:
REMARK  status: ('A' for Active; 'I' for Inactive)
REMARK    1  A    between atoms: C_1  and  C_2
REMARK    2  A    between atoms: C_5  and  C_29
REMARK    3  A    between atoms: C_6  and  O_8
REMARK    4  A    between atoms: O_8  and  C_9
REMARK    5  A    between atoms: C_9  and  C_11
REMARK    6  A    between atoms: C_9  and  C_12
REMARK    7  A    between atoms: N_14  and  C_15
REMARK    8  A    between atoms: N_21  and  C_28
REMARK    9  A    between atoms: C_24  and  C_27
REMARK   10  A    between atoms: C_29  and  C_30
REMARK   11  A    between atoms: C_29  and  C_31
REMARK                            x       y       z     vdW  Elec       q    Type
REMARK                         _______ _______ _______ _____ _____    ______ ____
ROOT
ATOM      1  C   UNL     1      -0.591  -2.731   4.679  0.00  0.00    +0.258 C 
ATOM      2  O   UNL     1      -1.116  -3.808   4.489  0.00  0.00    -0.271 OA
ATOM      3  N   UNL     1      -0.541  -2.216   5.923  0.00  0.00    -0.282 N 
ATOM      4  H   UNL     1      -0.190  -1.323   6.065  0.00  0.00    +0.155 HD
ENDROOT
BRANCH   3   5
ATOM      5  C   UNL     1      -0.996  -2.971   7.013  0.00  0.00    +0.035 A 
ATOM      6  C   UNL     1      -0.846  -4.351   7.011  0.00  0.00    +0.027 A 
ATOM      7  C   UNL     1      -1.294  -5.100   8.084  0.00  0.00    +0.049 A 
ATOM      8  C   UNL     1      -1.893  -4.473   9.163  0.00  0.00    +0.143 A 
ATOM      9  C   UNL     1      -2.044  -3.087   9.167  0.00  0.00    +0.080 A 
ATOM     10  C   UNL     1      -1.591  -2.337   8.096  0.00  0.00    +0.050 A 
ATOM     11  N   UNL     1      -2.654  -2.468  10.267  0.00  0.00    -0.268 N 
ATOM     12  C   UNL     1      -2.793  -3.163  11.417  0.00  0.00    +0.260 C 
ATOM     13  O   UNL     1      -3.344  -2.658  12.372  0.00  0.00    -0.271 OA
ATOM     14  C   UNL     1      -2.259  -4.570  11.508  0.00  0.00    +0.256 C 
ATOM     15  O   UNL     1      -2.336  -5.198  10.226  0.00  0.00    -0.478 OA
ATOM     16  C   UNL     1      -3.092  -5.367  12.515  0.00  0.00    +0.062 C 
ATOM     17  C   UNL     1      -3.135  -1.087  10.171  0.00  0.00    +0.138 C 
ENDBRANCH   3   5
BRANCH   1  18
ATOM     18  C   UNL     1       0.005  -1.969   3.524  0.00  0.00    +0.256 C 
ATOM     19  C   UNL     1       1.519  -1.859   3.713  0.00  0.00    +0.062 C 
BRANCH  18  20
ATOM     20  O   UNL     1      -0.274  -2.659   2.304  0.00  0.00    -0.480 OA
BRANCH  20  26
ATOM     21  C   UNL     1       0.450   1.628   0.086  0.00  0.00    +0.044 C 
ATOM     22  C   UNL     1       0.061   0.172   0.044  0.00  0.00    -0.047 A 
ATOM     23  C   UNL     1      -0.309  -0.410  -1.154  0.00  0.00    +0.004 A 
ATOM     24  C   UNL     1      -0.667  -1.744  -1.196  0.00  0.00    +0.008 A 
ATOM     25  C   UNL     1      -0.656  -2.500  -0.039  0.00  0.00    -0.003 A 
ATOM     26  C   UNL     1      -0.285  -1.918   1.165  0.00  0.00    +0.125 A 
ATOM     27  C   UNL     1       0.079  -0.580   1.202  0.00  0.00    +0.049 A 
BRANCH  25  28
ATOM     28  C   UNL     1      -1.047  -3.954  -0.085  0.00  0.00    +0.016 C 
ATOM     29  C   UNL     1      -2.484  -4.080  -0.595  0.00  0.00    +0.012 C 
ATOM     30  C   UNL     1      -0.104  -4.707  -1.026  0.00  0.00    +0.012 C 
ENDBRANCH  25  28
ENDBRANCH  20  26
ENDBRANCH  18  20
ENDBRANCH   1  18
TORSDOF 5
