REMARK  Name = ZINC48971523
REMARK  5 active torsions:
REMARK  status: ('A' for Active; 'I' for Inactive)
REMARK    1  A    between atoms: C_1  and  N_2
REMARK    2  A    between atoms: N_2  and  C_3
REMARK    3  A    between atoms: N_2  and  C_10
REMARK    4  A    between atoms: C_3  and  C_4
REMARK    5  A    between atoms: C_13  and  N_20
REMARK                            x       y       z     vdW  Elec       q    Type
REMARK                         _______ _______ _______ _____ _____    ______ ____
ROOT
ATOM      1  C   UNL     1       0.000  -0.697  -1.213  0.00  0.00    +0.038 A 
ATOM      2  C   UNL     1       1.190  -1.029  -1.824  0.00  0.00    +0.025 A 
ATOM      3  C   UNL     1       1.204  -1.718  -3.033  0.00  0.00    +0.025 A 
ATOM      4  C   UNL     1       0.029  -2.087  -3.652  0.00  0.00    +0.034 A 
ATOM      5  C   UNL     1      -1.204  -1.761  -3.053  0.00  0.00    +0.020 A 
ATOM      6  C   UNL     1      -1.216  -1.064  -1.816  0.00  0.00    +0.008 A 
ATOM      7  C   UNL     1      -2.461  -0.757  -1.238  0.00  0.00    +0.028 A 
ATOM      8  C   UNL     1      -3.595  -1.146  -1.883  0.00  0.00    +0.083 A 
ATOM      9  N   UNL     1      -3.555  -1.802  -3.035  0.00  0.00    -0.366 N 
ATOM     10  C   UNL     1      -2.430  -2.111  -3.638  0.00  0.00    +0.093 A 
ATOM     11  H   UNL     1      -4.392  -2.057  -3.455  0.00  0.00    +0.165 HD
ENDROOT
BRANCH   4  12
ATOM     12  N   UNL     1       0.060  -2.777  -4.865  0.00  0.00    -0.357 N 
ATOM     13  H   UNL     1       0.910  -2.999  -5.276  0.00  0.00    +0.142 HD
ATOM     14  H   UNL     1      -0.769  -3.034  -5.298  0.00  0.00    +0.142 HD
ENDBRANCH   4  12
BRANCH   1  16
ATOM     15  C   UNL     1      -0.018   1.461   0.010  0.00  0.00    +0.129 C 
ATOM     16  N   UNL     1       0.002  -0.004   0.002  0.00  0.00    -0.328 N 
BRANCH  16  17
ATOM     17  C   UNL     1       0.024  -0.743   1.267  0.00  0.00    +0.147 C 
BRANCH  17  18
ATOM     18  C   UNL     1      -1.389  -1.016   1.714  0.00  0.00    +0.008 A 
ATOM     19  C   UNL     1      -2.180  -2.082   1.440  0.00  0.00    +0.014 A 
ATOM     20  C   UNL     1      -3.459  -2.121   1.964  0.00  0.00    +0.028 A 
ATOM     21  C   UNL     1      -3.883  -1.090   2.737  0.00  0.00    +0.078 A 
ATOM     22  S   UNL     1      -2.452  -0.022   2.748  0.00  0.00    -0.080 S 
ATOM     23 CL   UNL     1      -5.418  -0.869   3.518  0.00  0.00    -0.076 Cl
ENDBRANCH  17  18
ENDBRANCH  16  17
ENDBRANCH   1  16
TORSDOF 4
