REMARK  Name = ZINC63340036
REMARK  15 active torsions:
REMARK  status: ('A' for Active; 'I' for Inactive)
REMARK    1  A    between atoms: C_1  and  C_2
REMARK    2  A    between atoms: C_2  and  N_3
REMARK    3  A    between atoms: N_3  and  C_4
REMARK    4  A    between atoms: C_4  and  C_5
REMARK    5  A    between atoms: C_6  and  C_8
REMARK    6  A    between atoms: C_10  and  N_18
REMARK    7  A    between atoms: C_11  and  O_16
REMARK    8  A    between atoms: C_12  and  O_14
REMARK    9  A    between atoms: O_14  and  C_15
REMARK   10  A    between atoms: O_16  and  C_17
REMARK   11  A    between atoms: C_19  and  C_21
REMARK   12  A    between atoms: C_21  and  C_23
REMARK   13  A    between atoms: C_21  and  N_33
REMARK   14  A    between atoms: C_23  and  C_24
REMARK   15  A    between atoms: C_34  and  C_36
REMARK                            x       y       z     vdW  Elec       q    Type
REMARK                         _______ _______ _______ _____ _____    ______ ____
ROOT
ATOM      1  N   UNL     1       1.978  -1.555  -7.786  0.00  0.00    -0.281 N 
ATOM      2  C   UNL     1       0.872  -0.965  -8.282  0.00  0.00    +0.238 C 
ATOM      3  O   UNL     1       0.190  -0.258  -7.570  0.00  0.00    -0.273 OA
ATOM      4  H   UNL     1       2.569  -2.050  -8.374  0.00  0.00    +0.155 HD
ENDROOT
BRANCH   1   7
ATOM      5  C   UNL     1       1.567  -1.043  -4.155  0.00  0.00    +0.042 A 
ATOM      6  C   UNL     1       1.272  -1.144  -5.516  0.00  0.00    +0.040 A 
ATOM      7  C   UNL     1       2.273  -1.453  -6.419  0.00  0.00    +0.080 A 
ATOM      8  C   UNL     1       3.576  -1.663  -5.971  0.00  0.00    +0.183 A 
ATOM      9  C   UNL     1       3.872  -1.564  -4.614  0.00  0.00    +0.164 A 
ATOM     10  C   UNL     1       2.875  -1.249  -3.709  0.00  0.00    +0.062 A 
BRANCH   5  12
ATOM     11  N   UNL     1       0.749   0.140  -2.176  0.00  0.00    -0.298 N 
ATOM     12  C   UNL     1       0.501  -0.714  -3.189  0.00  0.00    +0.247 C 
ATOM     13  O   UNL     1      -0.602  -1.212  -3.308  0.00  0.00    -0.270 OA
BRANCH  11  15
ATOM     14  C   UNL     1      -1.123   1.623  -1.652  0.00  0.00    +0.024 C 
ATOM     15  C   UNL     1      -0.293   0.425  -1.186  0.00  0.00    +0.104 C 
ENDBRANCH  11  15
BRANCH  11  16
ATOM     16  C   UNL     1       2.062   0.781  -2.063  0.00  0.00    +0.104 C 
ATOM     17  C   UNL     1       2.880   0.082  -0.976  0.00  0.00    +0.024 C 
ENDBRANCH  11  16
ENDBRANCH   5  12
BRANCH   9  18
ATOM     18  O   UNL     1       5.144  -1.770  -4.179  0.00  0.00    -0.491 OA
ATOM     19  C   UNL     1       5.377  -1.652  -2.775  0.00  0.00    +0.277 C 
ENDBRANCH   9  18
BRANCH   8  20
ATOM     20  O   UNL     1       4.559  -1.967  -6.859  0.00  0.00    -0.490 OA
ATOM     21  C   UNL     1       5.278  -0.872  -7.429  0.00  0.00    +0.277 C 
ENDBRANCH   8  20
ENDBRANCH   1   7
BRANCH   2  22
ATOM     22  C   UNL     1       0.482  -1.184  -9.721  0.00  0.00    +0.163 C 
BRANCH  22  23
ATOM     23  N   UNL     1      -0.422  -0.114 -10.150  0.00  0.00    -0.304 N 
ATOM     24  C   UNL     1      -1.599   0.067  -9.518  0.00  0.00    +0.211 C 
ATOM     25  O   UNL     1      -1.909  -0.656  -8.594  0.00  0.00    -0.276 OA
ATOM     26  C   UNL     1      -2.530   1.166  -9.959  0.00  0.00    +0.109 C 
ATOM     27  H   UNL     1      -0.175   0.463 -10.889  0.00  0.00    +0.149 HD
ENDBRANCH  22  23
BRANCH  22  28
ATOM     28  C   UNL     1      -0.223  -2.534  -9.859  0.00  0.00    +0.065 C 
BRANCH  28  29
ATOM     29  C   UNL     1      -0.502  -2.809 -11.314  0.00  0.00    -0.039 C 
ATOM     30  C   UNL     1       0.259  -3.533 -12.166  0.00  0.00    -0.001 A 
ATOM     31  C   UNL     1       1.527  -4.252 -12.000  0.00  0.00    +0.010 A 
ATOM     32  C   UNL     1       2.058  -4.900 -13.062  0.00  0.00    +0.001 A 
ATOM     33  C   UNL     1       1.430  -4.900 -14.315  0.00  0.00    +0.002 A 
ATOM     34  C   UNL     1       0.263  -4.261 -14.545  0.00  0.00    +0.026 A 
ATOM     35  C   UNL     1      -0.385  -3.548 -13.499  0.00  0.00    +0.043 A 
ATOM     36  N   UNL     1      -1.501  -2.861 -13.472  0.00  0.00    -0.380 N 
ATOM     37  C   UNL     1      -1.694  -2.336 -12.116  0.00  0.00    +0.144 C 
ATOM     38  H   UNL     1      -2.101  -2.726 -14.222  0.00  0.00    +0.160 HD
ENDBRANCH  28  29
ENDBRANCH  22  28
ENDBRANCH   2  22
TORSDOF 10
