REMARK  Name = ZINC08949715
REMARK  5 active torsions:
REMARK  status: ('A' for Active; 'I' for Inactive)
REMARK    1  A    between atoms: C_1  and  C_2
REMARK    2  A    between atoms: C_5  and  C_8
REMARK    3  A    between atoms: N_15  and  C_18
REMARK    4  A    between atoms: C_18  and  C_19
REMARK    5  A    between atoms: N_21  and  C_22
REMARK                            x       y       z     vdW  Elec       q    Type
REMARK                         _______ _______ _______ _____ _____    ______ ____
ROOT
ATOM      1  C   UNL     1       0.122   5.292   0.047  0.00  0.00    +0.004 A 
ATOM      2  C   UNL     1       1.384   5.785   0.036  0.00  0.00    +0.056 A 
ATOM      3  S   UNL     1       2.399   4.320   0.007  0.00  0.00    -0.076 S 
ATOM      4  C   UNL     1       1.118   3.092   0.009  0.00  0.00    +0.116 A 
ATOM      5  C   UNL     1      -0.067   3.846   0.033  0.00  0.00    +0.080 A 
ATOM      6  C   UNL     1      -1.283   3.091   0.040  0.00  0.00    +0.263 A 
ATOM      7  O   UNL     1      -2.362   3.657   0.060  0.00  0.00    -0.267 OA
ATOM      8  N   UNL     1      -1.216   1.747   0.019  0.00  0.00    -0.290 N 
ATOM      9  C   UNL     1      -0.022   1.101   0.001  0.00  0.00    +0.203 A 
ATOM     10  N   UNL     1       1.104   1.762  -0.005  0.00  0.00    -0.230 NA
ENDROOT
BRANCH   1  15
ATOM     11  C   UNL     1      -4.411   8.841   0.145  0.00  0.00    +0.044 C 
ATOM     12  C   UNL     1      -3.225   7.912   0.120  0.00  0.00    -0.050 A 
ATOM     13  C   UNL     1      -2.196   8.084   1.028  0.00  0.00    +0.004 A 
ATOM     14  C   UNL     1      -1.107   7.236   1.009  0.00  0.00    +0.009 A 
ATOM     15  C   UNL     1      -1.045   6.206   0.072  0.00  0.00    -0.017 A 
ATOM     16  C   UNL     1      -2.083   6.041  -0.844  0.00  0.00    +0.009 A 
ATOM     17  C   UNL     1      -3.169   6.892  -0.813  0.00  0.00    +0.004 A 
ENDBRANCH   1  15
BRANCH   8  18
ATOM     18  C   UNL     1      -2.456   0.967   0.020  0.00  0.00    +0.222 C 
BRANCH  18  19
ATOM     19  C   UNL     1      -2.869   0.682   1.441  0.00  0.00    +0.237 C 
ATOM     20  O   UNL     1      -2.195   1.092   2.362  0.00  0.00    -0.274 OA
ATOM     21  N   UNL     1      -3.988  -0.026   1.688  0.00  0.00    -0.283 N 
ATOM     22  H   UNL     1      -4.562  -0.298   0.955  0.00  0.00    +0.155 HD
BRANCH  21  23
ATOM     23  C   UNL     1      -4.323  -0.371   3.003  0.00  0.00    +0.052 A 
ATOM     24  C   UNL     1      -4.032   0.499   4.046  0.00  0.00    +0.026 A 
ATOM     25  C   UNL     1      -4.362   0.157   5.342  0.00  0.00    +0.022 A 
ATOM     26  C   UNL     1      -4.983  -1.052   5.604  0.00  0.00    +0.042 A 
ATOM     27  C   UNL     1      -5.274  -1.922   4.568  0.00  0.00    +0.041 A 
ATOM     28  C   UNL     1      -4.951  -1.582   3.268  0.00  0.00    +0.064 A 
ATOM     29 CL   UNL     1      -5.323  -2.670   1.967  0.00  0.00    -0.082 Cl
ATOM     30 CL   UNL     1      -5.397  -1.478   7.235  0.00  0.00    -0.083 Cl
ENDBRANCH  21  23
ENDBRANCH  18  19
ENDBRANCH   8  18
TORSDOF 4
