REMARK  Name = ZINC39595735
REMARK  7 active torsions:
REMARK  status: ('A' for Active; 'I' for Inactive)
REMARK    1  A    between atoms: C_1  and  C_2
REMARK    2  A    between atoms: C_2  and  C_4
REMARK    3  A    between atoms: C_2  and  O_29
REMARK    4  A    between atoms: C_4  and  N_5
REMARK    5  A    between atoms: C_6  and  C_8
REMARK    6  A    between atoms: C_19  and  C_21
REMARK    7  A    between atoms: O_29  and  C_30
REMARK                            x       y       z     vdW  Elec       q    Type
REMARK                         _______ _______ _______ _____ _____    ______ ____
ROOT
ATOM      1  C   UNL     1       0.907  -3.867  -2.330  0.00  0.00    +0.100 C 
ATOM      2  C   UNL     1       1.521  -4.490  -1.056  0.00  0.00    +0.121 C 
ATOM      3  N   UNL     1       2.183  -5.730  -1.528  0.00  0.00    -0.296 N 
ATOM      4  C   UNL     1       2.788  -5.352  -2.828  0.00  0.00    +0.115 C 
ATOM      5  C   UNL     1       1.742  -4.434  -3.490  0.00  0.00    -0.004 C 
ATOM      6  C   UNL     1       2.435  -3.304  -4.245  0.00  0.00    -0.010 C 
ATOM      7  C   UNL     1       3.211  -3.888  -5.428  0.00  0.00    -0.082 C 
ATOM      8  N   UNL     1       2.288  -4.603  -6.317  0.00  0.00    +0.379 N 
ATOM      9  C   UNL     1       1.696  -5.745  -5.610  0.00  0.00    -0.082 C 
ATOM     10  C   UNL     1       0.855  -5.240  -4.434  0.00  0.00    -0.010 C 
ATOM     11  C   UNL     1       2.224  -6.929  -0.915  0.00  0.00    +0.247 C 
ATOM     12  O   UNL     1       1.583  -7.114   0.102  0.00  0.00    -0.270 OA
ATOM     13  H   UNL     1       1.555  -3.975  -6.613  0.00  0.00    -0.086 HD
ATOM     14  H   UNL     1       2.791  -4.934  -7.127  0.00  0.00    -0.086 HD
ENDROOT
BRANCH  11  15
ATOM     15  C   UNL     1       3.048  -8.020  -1.478  0.00  0.00    +0.040 A 
ATOM     16  C   UNL     1       4.147  -7.722  -2.285  0.00  0.00    +0.033 A 
ATOM     17  C   UNL     1       4.913  -8.745  -2.808  0.00  0.00    +0.043 A 
ATOM     18  C   UNL     1       4.593 -10.063  -2.533  0.00  0.00    +0.040 A 
ATOM     19  C   UNL     1       3.504 -10.365  -1.734  0.00  0.00    +0.043 A 
ATOM     20  C   UNL     1       2.734  -9.351  -1.200  0.00  0.00    +0.033 A 
ATOM     21 CL   UNL     1       3.110 -12.021  -1.396  0.00  0.00    -0.083 Cl
ATOM     22 CL   UNL     1       6.280  -8.376  -3.812  0.00  0.00    -0.083 Cl
ENDBRANCH  11  15
BRANCH   1  24
ATOM     23  N   UNL     1       0.092  -1.600  -2.893  0.00  0.00    -0.312 N 
ATOM     24  C   UNL     1       1.022  -2.365  -2.286  0.00  0.00    +0.218 C 
ATOM     25  O   UNL     1       1.950  -1.844  -1.705  0.00  0.00    -0.275 OA
ATOM     26  H   UNL     1      -0.650  -2.017  -3.358  0.00  0.00    +0.149 HD
BRANCH  23  27
ATOM     27  C   UNL     1       0.204  -0.140  -2.851  0.00  0.00    +0.148 C 
BRANCH  27  29
ATOM     28  C   UNL     1      -0.787   2.001  -3.673  0.00  0.00    +0.053 C 
ATOM     29  C   UNL     1      -0.969   0.483  -3.610  0.00  0.00    +0.187 C 
BRANCH  29  30
ATOM     30  O   UNL     1      -2.190   0.178  -2.934  0.00  0.00    -0.488 OA
BRANCH  30  31
ATOM     31  C   UNL     1      -3.326   0.182  -3.681  0.00  0.00    +0.121 A 
ATOM     32  C   UNL     1      -3.255   0.370  -5.053  0.00  0.00    +0.048 A 
ATOM     33  C   UNL     1      -4.410   0.375  -5.810  0.00  0.00    +0.042 A 
ATOM     34  C   UNL     1      -5.640   0.192  -5.200  0.00  0.00    +0.124 A 
ATOM     35  C   UNL     1      -5.713   0.005  -3.830  0.00  0.00    +0.042 A 
ATOM     36  C   UNL     1      -4.558  -0.006  -3.071  0.00  0.00    +0.048 A 
ATOM     37  F   UNL     1      -6.769   0.198  -5.941  0.00  0.00    -0.205 F 
ENDBRANCH  30  31
ENDBRANCH  29  30
ENDBRANCH  27  29
ENDBRANCH  23  27
ENDBRANCH   1  24
TORSDOF 6
