REMARK  Name = ZINC45781125
REMARK  8 active torsions:
REMARK  status: ('A' for Active; 'I' for Inactive)
REMARK    1  A    between atoms: C_1  and  C_2
REMARK    2  A    between atoms: C_4  and  C_18
REMARK    3  A    between atoms: C_6  and  C_12
REMARK    4  A    between atoms: N_9  and  C_11
REMARK    5  A    between atoms: N_20  and  C_21
REMARK    6  A    between atoms: C_21  and  C_22
REMARK    7  A    between atoms: C_22  and  C_24
REMARK    8  A    between atoms: C_22  and  N_29
REMARK                            x       y       z     vdW  Elec       q    Type
REMARK                         _______ _______ _______ _____ _____    ______ ____
ROOT
ATOM      1  C   UNL     1       0.120   0.793  -3.255  0.00  0.00    +0.245 C 
ATOM      2  O   UNL     1       0.354   1.740  -2.530  0.00  0.00    -0.270 OA
ATOM      3  N   UNL     1      -0.259   1.000  -4.532  0.00  0.00    -0.312 N 
ATOM      4  H   UNL     1      -0.446   0.244  -5.111  0.00  0.00    +0.149 HD
ENDROOT
BRANCH   1   8
ATOM      5  C   UNL     1      -1.155   1.274  -0.439  0.00  0.00    +0.068 C 
ATOM      6  C   UNL     1      -0.806  -0.191  -0.397  0.00  0.00    +0.070 A 
ATOM      7  C   UNL     1      -0.197  -0.922  -1.438  0.00  0.00    +0.054 A 
ATOM      8  C   UNL     1       0.252  -0.585  -2.737  0.00  0.00    +0.051 A 
ATOM      9  C   UNL     1       0.820  -1.591  -3.510  0.00  0.00    +0.042 A 
ATOM     10  C   UNL     1       0.926  -2.882  -2.984  0.00  0.00    +0.074 A 
ATOM     11  N   UNL     1       0.497  -3.167  -1.766  0.00  0.00    -0.228 NA
ATOM     12  C   UNL     1      -0.052  -2.249  -0.985  0.00  0.00    +0.160 A 
ATOM     13  N   UNL     1      -0.566  -2.280   0.286  0.00  0.00    -0.249 N 
ATOM     14  N   UNL     1      -1.013  -0.993   0.608  0.00  0.00    -0.174 NA
ATOM     15  C   UNL     1      -0.631  -3.456   1.158  0.00  0.00    +0.174 C 
BRANCH  10  16
ATOM     16  C   UNL     1       1.532  -3.955  -3.809  0.00  0.00    +0.000 A 
ATOM     17  C   UNL     1       1.995  -3.672  -5.093  0.00  0.00    +0.010 A 
ATOM     18  C   UNL     1       2.559  -4.675  -5.856  0.00  0.00    +0.001 A 
ATOM     19  C   UNL     1       2.665  -5.957  -5.349  0.00  0.00    +0.000 A 
ATOM     20  C   UNL     1       2.207  -6.243  -4.075  0.00  0.00    +0.001 A 
ATOM     21  C   UNL     1       1.646  -5.248  -3.301  0.00  0.00    +0.010 A 
ENDBRANCH  10  16
ENDBRANCH   1   8
BRANCH   3  22
ATOM     22  C   UNL     1      -0.389   2.365  -5.046  0.00  0.00    +0.097 C 
BRANCH  22  23
ATOM     23  C   UNL     1      -0.930   2.322  -6.477  0.00  0.00    +0.016 C 
BRANCH  23  24
ATOM     24  N   UNL     1      -0.054   1.485  -7.306  0.00  0.00    +0.387 N 
ATOM     25  C   UNL     1       1.326   1.977  -7.210  0.00  0.00    -0.078 C 
ATOM     26  C   UNL     1       2.256   1.060  -8.008  0.00  0.00    -0.019 C 
ATOM     27  C   UNL     1       1.817   1.048  -9.475  0.00  0.00    -0.004 C 
ATOM     28  C   UNL     1       0.354   0.604  -9.556  0.00  0.00    -0.019 C 
ATOM     29  C   UNL     1      -0.506   1.538  -8.702  0.00  0.00    -0.078 C 
ATOM     30  H   UNL     1      -0.092   0.531  -6.978  0.00  0.00    -0.081 HD
ENDBRANCH  23  24
BRANCH  23  31
ATOM     31  C   UNL     1      -0.970   3.719  -7.040  0.00  0.00    +0.093 A 
ATOM     32  C   UNL     1      -2.066   4.491  -7.154  0.00  0.00    +0.043 A 
ATOM     33  C   UNL     1      -1.650   5.713  -7.730  0.00  0.00    +0.041 A 
ATOM     34  C   UNL     1      -0.324   5.615  -7.935  0.00  0.00    +0.195 A 
ATOM     35  O   UNL     1       0.083   4.408  -7.510  0.00  0.00    -0.469 OA
ENDBRANCH  23  31
ENDBRANCH  22  23
ENDBRANCH   3  22
TORSDOF 6
