REMARK  Name = ZINC38685138
REMARK  16 active torsions:
REMARK  status: ('A' for Active; 'I' for Inactive)
REMARK    1  A    between atoms: C_1  and  C_2
REMARK    2  A    between atoms: C_2  and  C_3
REMARK    3  A    between atoms: C_3  and  C_4
REMARK    4  A    between atoms: C_4  and  O_5
REMARK    5  A    between atoms: O_5  and  C_6
REMARK    6  A    between atoms: C_10  and  C_12
REMARK    7  A    between atoms: C_17  and  O_26
REMARK    8  A    between atoms: C_21  and  N_25
REMARK    9  A    between atoms: C_22  and  C_23
REMARK   10  A    between atoms: O_26  and  C_27
REMARK   11  A    between atoms: C_27  and  C_29
REMARK   12  A    between atoms: C_30  and  C_31
REMARK   13  A    between atoms: C_34  and  C_37
REMARK   14  A    between atoms: C_37  and  C_38
REMARK   15  A    between atoms: C_37  and  C_39
REMARK   16  A    between atoms: C_37  and  C_40
REMARK                            x       y       z     vdW  Elec       q    Type
REMARK                         _______ _______ _______ _____ _____    ______ ____
ROOT
ATOM      1  C   UNL     1      -5.708  -6.377   0.048  0.00  0.00    +0.098 C 
ATOM      2  C   UNL     1      -5.889  -7.239   1.269  0.00  0.00    +0.008 A 
ATOM      3  C   UNL     1      -6.013  -6.642   2.511  0.00  0.00    +0.012 A 
ATOM      4  C   UNL     1      -6.179  -7.417   3.642  0.00  0.00    +0.047 A 
ATOM      5  C   UNL     1      -6.222  -8.800   3.535  0.00  0.00    +0.135 A 
ATOM      6  C   UNL     1      -6.098  -9.401   2.292  0.00  0.00    +0.093 A 
ATOM      7  C   UNL     1      -5.930  -8.620   1.156  0.00  0.00    +0.138 A 
ATOM      8  O   UNL     1      -5.810  -9.223  -0.052  0.00  0.00    -0.441 OA
ATOM      9  C   UNL     1      -6.035  -8.522  -1.176  0.00  0.00    +0.199 C 
ATOM     10  C   UNL     1      -6.000  -7.172  -1.194  0.00  0.00    +0.098 C 
ENDROOT
BRANCH   1  15
ATOM     11  C   UNL     1      -2.728  -4.054  -0.025  0.00  0.00    +0.121 A 
ATOM     12  C   UNL     1      -1.677  -4.958  -0.097  0.00  0.00    +0.045 A 
ATOM     13  C   UNL     1      -1.936  -6.315  -0.122  0.00  0.00    +0.004 A 
ATOM     14  C   UNL     1      -3.240  -6.773  -0.074  0.00  0.00    +0.005 A 
ATOM     15  C   UNL     1      -4.288  -5.874  -0.003  0.00  0.00    -0.031 A 
ATOM     16  C   UNL     1      -4.035  -4.516   0.027  0.00  0.00    +0.050 A 
BRANCH  11  17
ATOM     17  O   UNL     1      -2.476  -2.719  -0.001  0.00  0.00    -0.492 OA
BRANCH  17  18
ATOM     18  C   UNL     1      -1.107  -2.316  -0.058  0.00  0.00    +0.229 C 
BRANCH  18  19
ATOM     19  C   UNL     1      -1.023  -0.788  -0.020  0.00  0.00    +0.041 C 
BRANCH  19  21
ATOM     20  C   UNL     1       0.528   1.171  -0.043  0.00  0.00    +0.004 C 
ATOM     21  C   UNL     1       0.444  -0.357  -0.081  0.00  0.00    -0.000 C 
ENDBRANCH  19  21
ENDBRANCH  18  19
ENDBRANCH  17  18
ENDBRANCH  11  17
ENDBRANCH   1  15
BRANCH   9  22
ATOM     22  N   UNL     1      -6.306  -9.198  -2.340  0.00  0.00    -0.328 N 
ATOM     23  H   UNL     1      -6.333 -10.168  -2.342  0.00  0.00    +0.145 HD
ATOM     24  H   UNL     1      -6.470  -8.706  -3.159  0.00  0.00    +0.145 HD
ENDBRANCH   9  22
BRANCH  10  25
ATOM     25  C   UNL     1      -6.247  -6.484  -2.425  0.00  0.00    +0.101 C 
ATOM     26  N   UNL     1      -6.444  -5.939  -3.402  0.00  0.00    -0.191 NA
ENDBRANCH  10  25
BRANCH   5  27
ATOM     27  O   UNL     1      -6.385  -9.564   4.647  0.00  0.00    -0.423 OA
BRANCH  27  28
ATOM     28  C   UNL     1      -7.581  -9.528   5.270  0.00  0.00    +0.337 C 
ATOM     29  O   UNL     1      -8.505  -8.909   4.777  0.00  0.00    -0.245 OA
BRANCH  28  30
ATOM     30  C   UNL     1      -7.766 -10.232   6.538  0.00  0.00    +0.092 C 
ATOM     31  C   UNL     1      -8.962 -10.196   7.162  0.00  0.00    +0.015 C 
BRANCH  31  32
ATOM     32  C   UNL     1      -9.149 -10.905   8.438  0.00  0.00    -0.025 A 
ATOM     33  C   UNL     1      -8.087 -11.612   9.010  0.00  0.00    +0.008 A 
ATOM     34  C   UNL     1      -8.269 -12.274  10.206  0.00  0.00    +0.005 A 
ATOM     35  C   UNL     1      -9.499 -12.239  10.840  0.00  0.00    -0.042 A 
ATOM     36  C   UNL     1     -10.555 -11.542  10.279  0.00  0.00    +0.005 A 
ATOM     37  C   UNL     1     -10.387 -10.870   9.087  0.00  0.00    +0.008 A 
BRANCH  35  38
ATOM     38  C   UNL     1      -9.690 -12.965  12.146  0.00  0.00    -0.013 C 
ATOM     39  C   UNL     1      -8.720 -12.405  13.188  0.00  0.00    +0.015 C 
ATOM     40  C   UNL     1     -11.128 -12.771  12.633  0.00  0.00    +0.015 C 
ATOM     41  C   UNL     1      -9.417 -14.457  11.946  0.00  0.00    +0.015 C 
ENDBRANCH  35  38
ENDBRANCH  31  32
ENDBRANCH  28  30
ENDBRANCH  27  28
ENDBRANCH   5  27
TORSDOF 12
