REMARK  Name = ZINC36601310
REMARK  17 active torsions:
REMARK  status: ('A' for Active; 'I' for Inactive)
REMARK    1  A    between atoms: C_1  and  C_2
REMARK    2  A    between atoms: C_5  and  C_7
REMARK    3  A    between atoms: C_7  and  N_8
REMARK    4  A    between atoms: N_8  and  C_9
REMARK    5  A    between atoms: C_9  and  C_11
REMARK    6  A    between atoms: C_9  and  C_18
REMARK    7  A    between atoms: C_14  and  O_17
REMARK    8  A    between atoms: N_20  and  C_21
REMARK    9  A    between atoms: C_21  and  C_22
REMARK   10  A    between atoms: C_21  and  C_23
REMARK   11  A    between atoms: C_21  and  C_24
REMARK   12  A    between atoms: C_24  and  C_25
REMARK   13  A    between atoms: C_25  and  C_26
REMARK   14  A    between atoms: C_25  and  C_27
REMARK   15  A    between atoms: C_25  and  C_28
REMARK   16  A    between atoms: C_29  and  C_31
REMARK   17  A    between atoms: C_35  and  N_37
REMARK                            x       y       z     vdW  Elec       q    Type
REMARK                         _______ _______ _______ _____ _____    ______ ____
ROOT
ATOM      1  C   UNL     1       2.348  -3.095  -2.389  0.00  0.00    +0.193 C 
ENDROOT
BRANCH   1   2
ATOM      2  C   UNL     1       3.562  -3.875  -1.953  0.00  0.00    -0.018 A 
ATOM      3  C   UNL     1       3.912  -3.918  -0.616  0.00  0.00    +0.009 A 
ATOM      4  C   UNL     1       5.024  -4.631  -0.215  0.00  0.00    +0.046 A 
ATOM      5  C   UNL     1       5.791  -5.305  -1.154  0.00  0.00    +0.117 A 
ATOM      6  C   UNL     1       5.437  -5.261  -2.495  0.00  0.00    +0.046 A 
ATOM      7  C   UNL     1       4.321  -4.551  -2.891  0.00  0.00    +0.009 A 
BRANCH   5   8
ATOM      8  O   UNL     1       6.886  -6.007  -0.762  0.00  0.00    -0.507 OA
ATOM      9  H   UNL     1       6.703  -6.931  -0.539  0.00  0.00    +0.292 HD
ENDBRANCH   5   8
ENDBRANCH   1   2
BRANCH   1  10
ATOM     10  C   UNL     1       2.774  -1.739  -2.888  0.00  0.00    +0.239 C 
ATOM     11  O   UNL     1       2.378  -0.736  -2.332  0.00  0.00    -0.273 OA
ATOM     12  N   UNL     1       3.595  -1.640  -3.952  0.00  0.00    -0.308 N 
ATOM     13  H   UNL     1       3.911  -2.442  -4.397  0.00  0.00    +0.149 HD
BRANCH  12  14
ATOM     14  C   UNL     1       4.009  -0.321  -4.437  0.00  0.00    +0.030 C 
ATOM     15  C   UNL     1       2.822   0.371  -5.109  0.00  0.00    +0.031 C 
ATOM     16  C   UNL     1       4.494   0.526  -3.259  0.00  0.00    +0.031 C 
BRANCH  14  17
ATOM     17  C   UNL     1       5.145  -0.484  -5.449  0.00  0.00    +0.031 C 
BRANCH  17  18
ATOM     18  C   UNL     1       6.126  -1.545  -4.949  0.00  0.00    -0.036 C 
ATOM     19  C   UNL     1       5.451  -2.918  -4.976  0.00  0.00    +0.010 C 
ATOM     20  C   UNL     1       7.361  -1.566  -5.853  0.00  0.00    +0.010 C 
ATOM     21  C   UNL     1       6.549  -1.214  -3.516  0.00  0.00    +0.010 C 
ENDBRANCH  17  18
ENDBRANCH  14  17
ENDBRANCH  12  14
ENDBRANCH   1  10
BRANCH   1  22
ATOM     22  N   UNL     1       1.438  -2.934  -1.252  0.00  0.00    -0.275 N 
ATOM     23  C   UNL     1       0.821  -4.010  -0.724  0.00  0.00    +0.248 C 
ATOM     24  O   UNL     1       0.114  -3.885   0.257  0.00  0.00    -0.270 OA
BRANCH  23  25
ATOM     25  C   UNL     1       1.006  -5.342  -1.337  0.00  0.00    +0.039 A 
ATOM     26  C   UNL     1       1.880  -5.504  -2.413  0.00  0.00    +0.013 A 
ATOM     27  C   UNL     1       2.048  -6.750  -2.980  0.00  0.00    +0.003 A 
ATOM     28  C   UNL     1       1.351  -7.838  -2.485  0.00  0.00    +0.033 A 
ATOM     29  C   UNL     1       0.482  -7.685  -1.419  0.00  0.00    +0.127 A 
ATOM     30  C   UNL     1       0.310  -6.445  -0.839  0.00  0.00    +0.045 A 
BRANCH  29  31
ATOM     31  N   UNL     1      -0.259  -8.854  -0.897  0.00  0.00    +0.056 N 
ATOM     32  O   UNL     1      -0.106  -9.942  -1.401  0.00  0.00    -0.126 OA
ATOM     33  O   UNL     1      -1.019  -8.722   0.034  0.00  0.00    -0.126 OA
ENDBRANCH  29  31
ENDBRANCH  23  25
BRANCH  22  34
ATOM     34  C   UNL     1       1.198  -1.603  -0.689  0.00  0.00    +0.183 C 
BRANCH  34  39
ATOM     35  C   UNL     1      -1.296   1.275  -3.997  0.00  0.00    +0.086 C 
ATOM     36  C   UNL     1      -1.016   0.313  -2.872  0.00  0.00    +0.102 A 
ATOM     37  C   UNL     1      -1.942  -0.302  -2.114  0.00  0.00    +0.045 A 
ATOM     38  C   UNL     1      -1.244  -1.109  -1.187  0.00  0.00    +0.046 A 
ATOM     39  C   UNL     1       0.068  -0.939  -1.434  0.00  0.00    +0.122 A 
ATOM     40  O   UNL     1       0.199  -0.081  -2.459  0.00  0.00    -0.463 OA
ENDBRANCH  34  39
ENDBRANCH  22  34
ENDBRANCH   1  22
TORSDOF 11
