REMARK  Name = ZINC39942501
REMARK  7 active torsions:
REMARK  status: ('A' for Active; 'I' for Inactive)
REMARK    1  A    between atoms: C_1  and  C_2
REMARK    2  A    between atoms: C_2  and  C_4
REMARK    3  A    between atoms: C_2  and  N_14
REMARK    4  A    between atoms: C_15  and  C_17
REMARK    5  A    between atoms: C_17  and  S_18
REMARK    6  A    between atoms: S_18  and  C_19
REMARK    7  A    between atoms: C_23  and  C_25
REMARK                            x       y       z     vdW  Elec       q    Type
REMARK                         _______ _______ _______ _____ _____    ______ ____
ROOT
ATOM      1  C   UNL     1       2.783  -1.099   2.395  0.00  0.00    +0.170 C 
ENDROOT
BRANCH   1   3
ATOM      2  N   UNL     1       0.711  -0.489   1.189  0.00  0.00    -0.308 N 
ATOM      3  C   UNL     1       2.054  -0.600   1.174  0.00  0.00    +0.223 C 
ATOM      4  O   UNL     1       2.676  -0.297   0.177  0.00  0.00    -0.275 OA
ATOM      5  H   UNL     1       0.213  -0.731   1.986  0.00  0.00    +0.149 HD
BRANCH   2   7
ATOM      6  C   UNL     1      -0.019   1.526   0.010  0.00  0.00    +0.033 C 
ATOM      7  C   UNL     1       0.002  -0.004   0.002  0.00  0.00    +0.100 C 
BRANCH   7   8
ATOM      8  C   UNL     1      -1.412  -0.526   0.013  0.00  0.00    -0.027 A 
ATOM      9  C   UNL     1      -2.125  -0.572   1.196  0.00  0.00    +0.006 A 
ATOM     10  C   UNL     1      -3.418  -1.054   1.198  0.00  0.00    +0.004 A 
ATOM     11  C   UNL     1      -4.010  -1.491   0.021  0.00  0.00    -0.044 A 
ATOM     12  C   UNL     1      -3.301  -1.440  -1.159  0.00  0.00    -0.044 A 
ATOM     13  C   UNL     1      -2.001  -0.953  -1.159  0.00  0.00    +0.009 A 
ATOM     14  C   UNL     1      -3.885  -1.883  -2.475  0.00  0.00    +0.035 C 
ATOM     15  C   UNL     1      -5.113  -2.762  -2.249  0.00  0.00    +0.005 C 
ATOM     16  C   UNL     1      -6.061  -2.033  -1.290  0.00  0.00    +0.005 C 
ATOM     17  C   UNL     1      -5.421  -2.012   0.097  0.00  0.00    +0.035 C 
ENDBRANCH   7   8
ENDBRANCH   2   7
ENDBRANCH   1   3
BRANCH   1  18
ATOM     18  S   UNL     1       4.566  -1.134   2.062  0.00  0.00    -0.087 S 
BRANCH  18  19
ATOM     19  C   UNL     1       5.288  -1.749   3.608  0.00  0.00    +0.339 C 
ATOM     20  N   UNL     1       4.926  -0.868   4.731  0.00  0.00    -0.219 N 
ATOM     21  N   UNL     1       4.198  -1.673   5.620  0.00  0.00    -0.145 NA
ATOM     22  C   UNL     1       4.101  -2.888   5.150  0.00  0.00    +0.238 C 
ATOM     23  O   UNL     1       4.726  -3.023   3.952  0.00  0.00    -0.443 OA
ATOM     24  H   UNL     1       5.144   0.071   4.835  0.00  0.00    +0.173 HD
BRANCH  22  25
ATOM     25  C   UNL     1       3.432  -3.931   5.806  0.00  0.00    +0.043 C 
ATOM     26  C   UNL     1       2.766  -3.867   7.031  0.00  0.00    +0.008 A 
ATOM     27  C   UNL     1       2.558  -2.817   7.949  0.00  0.00    +0.010 A 
ATOM     28  C   UNL     1       1.854  -3.046   9.088  0.00  0.00    +0.001 A 
ATOM     29  C   UNL     1       1.326  -4.306   9.379  0.00  0.00    +0.002 A 
ATOM     30  C   UNL     1       1.487  -5.360   8.542  0.00  0.00    +0.026 A 
ATOM     31  C   UNL     1       2.211  -5.197   7.333  0.00  0.00    +0.043 A 
ATOM     32  N   UNL     1       2.502  -6.048   6.369  0.00  0.00    -0.380 N 
ATOM     33  C   UNL     1       3.275  -5.358   5.331  0.00  0.00    +0.154 C 
ATOM     34  H   UNL     1       2.242  -6.982   6.348  0.00  0.00    +0.160 HD
ENDBRANCH  22  25
ENDBRANCH  18  19
ENDBRANCH   1  18
TORSDOF 6
