REMARK  Name = ZINC41541312
REMARK  7 active torsions:
REMARK  status: ('A' for Active; 'I' for Inactive)
REMARK    1  A    between atoms: C_1  and  C_2
REMARK    2  A    between atoms: C_5  and  N_9
REMARK    3  A    between atoms: C_10  and  N_18
REMARK    4  A    between atoms: C_12  and  C_14
REMARK    5  A    between atoms: C_14  and  C_15
REMARK    6  A    between atoms: C_15  and  C_16
REMARK    7  A    between atoms: C_15  and  C_17
REMARK                            x       y       z     vdW  Elec       q    Type
REMARK                         _______ _______ _______ _____ _____    ______ ____
ROOT
ATOM      1  N   UNL     1      -0.149  -4.195   0.001  0.00  0.00    -0.218 N 
ATOM      2  C   UNL     1       0.165  -4.980   1.068  0.00  0.00    +0.120 A 
ATOM      3  C   UNL     1       0.350  -6.246   0.601  0.00  0.00    +0.068 A 
ATOM      4  C   UNL     1       0.144  -6.228  -0.781  0.00  0.00    +0.066 A 
ATOM      5  N   UNL     1      -0.159  -5.007  -1.140  0.00  0.00    -0.170 NA
ENDROOT
BRANCH   1  10
ATOM      6  C   UNL     1      -1.244   1.373   0.157  0.00  0.00    +0.044 C 
ATOM      7  C   UNL     1      -0.953  -0.105   0.115  0.00  0.00    -0.049 A 
ATOM      8  C   UNL     1      -1.570  -0.956   1.015  0.00  0.00    +0.005 A 
ATOM      9  C   UNL     1      -1.306  -2.311   0.979  0.00  0.00    +0.029 A 
ATOM     10  C   UNL     1      -0.420  -2.820   0.039  0.00  0.00    +0.081 A 
ATOM     11  C   UNL     1       0.198  -1.964  -0.863  0.00  0.00    +0.044 A 
ATOM     12  C   UNL     1      -0.075  -0.609  -0.826  0.00  0.00    +0.020 A 
ATOM     13 BR   UNL     1       1.406  -2.651  -2.145  0.00  0.00    -0.048 Br
ENDBRANCH   1  10
BRANCH   2  14
ATOM     14  N   UNL     1       0.276  -4.565   2.392  0.00  0.00    -0.343 N 
ATOM     15  H   UNL     1       0.209  -3.623   2.612  0.00  0.00    +0.144 HD
ATOM     16  H   UNL     1       0.419  -5.219   3.094  0.00  0.00    +0.144 HD
ENDBRANCH   2  14
BRANCH   4  17
ATOM     17  C   UNL     1       0.247  -7.417  -1.702  0.00  0.00    +0.060 C 
BRANCH  17  18
ATOM     18  C   UNL     1      -1.056  -7.566  -2.490  0.00  0.00    -0.011 C 
ATOM     19  C   UNL     1      -1.237  -6.356  -3.409  0.00  0.00    +0.007 C 
ATOM     20  C   UNL     1      -0.999  -8.842  -3.332  0.00  0.00    +0.007 C 
ENDBRANCH  17  18
ENDBRANCH   4  17
TORSDOF 4
