REMARK  Name = ZINC44714252
REMARK  12 active torsions:
REMARK  status: ('A' for Active; 'I' for Inactive)
REMARK    1  A    between atoms: C_1  and  C_2
REMARK    2  A    between atoms: C_3  and  C_9
REMARK    3  A    between atoms: C_4  and  C_8
REMARK    4  A    between atoms: C_9  and  C_11
REMARK    5  A    between atoms: C_9  and  N_12
REMARK    6  A    between atoms: C_13  and  C_15
REMARK    7  A    between atoms: C_26  and  C_28
REMARK    8  A    between atoms: C_28  and  C_30
REMARK    9  A    between atoms: C_28  and  O_33
REMARK   10  A    between atoms: C_30  and  C_31
REMARK   11  A    between atoms: C_30  and  C_32
REMARK   12  A    between atoms: O_33  and  C_34
REMARK                            x       y       z     vdW  Elec       q    Type
REMARK                         _______ _______ _______ _____ _____    ______ ____
ROOT
ATOM      1  C   UNL     1      -2.384  -2.177  -4.813  0.00  0.00    +0.100 C 
ATOM      2  C   UNL     1      -3.708  -2.250  -4.021  0.00  0.00    +0.121 C 
ATOM      3  N   UNL     1      -4.567  -1.207  -4.629  0.00  0.00    -0.297 N 
ATOM      4  C   UNL     1      -4.285  -1.298  -6.081  0.00  0.00    +0.115 C 
ATOM      5  C   UNL     1      -2.768  -1.555  -6.167  0.00  0.00    -0.004 C 
ATOM      6  C   UNL     1      -2.459  -2.527  -7.301  0.00  0.00    -0.010 C 
ATOM      7  C   UNL     1      -2.795  -1.865  -8.640  0.00  0.00    -0.082 C 
ATOM      8  N   UNL     1      -2.005  -0.637  -8.793  0.00  0.00    +0.379 N 
ATOM      9  C   UNL     1      -2.375   0.329  -7.751  0.00  0.00    -0.082 C 
ATOM     10  C   UNL     1      -2.022  -0.241  -6.375  0.00  0.00    -0.010 C 
ATOM     11  C   UNL     1      -5.413  -0.365  -4.003  0.00  0.00    +0.257 C 
ATOM     12  O   UNL     1      -6.104   0.393  -4.650  0.00  0.00    -0.272 OA
ATOM     13  H   UNL     1      -1.023  -0.858  -8.711  0.00  0.00    -0.086 HD
ATOM     14  H   UNL     1      -2.182  -0.235  -9.701  0.00  0.00    -0.086 HD
ENDROOT
BRANCH   1  16
ATOM     15  N   UNL     1      -0.162  -1.772  -3.805  0.00  0.00    -0.308 N 
ATOM     16  C   UNL     1      -1.391  -1.300  -4.096  0.00  0.00    +0.219 C 
ATOM     17  O   UNL     1      -1.697  -0.170  -3.779  0.00  0.00    -0.275 OA
ATOM     18  H   UNL     1       0.083  -2.675  -4.059  0.00  0.00    +0.149 HD
BRANCH  15  19
ATOM     19  C   UNL     1       0.804  -0.919  -3.108  0.00  0.00    +0.104 C 
ATOM     20  C   UNL     1       1.488   0.007  -4.116  0.00  0.00    +0.033 C 
BRANCH  19  23
ATOM     21  C   UNL     1       2.253  -3.386  -4.372  0.00  0.00    +0.065 C 
ATOM     22  C   UNL     1       2.467  -2.848  -2.981  0.00  0.00    +0.038 A 
ATOM     23  C   UNL     1       1.840  -1.781  -2.433  0.00  0.00    +0.015 A 
ATOM     24  C   UNL     1       2.324  -1.619  -1.131  0.00  0.00    +0.065 A 
ATOM     25  N   UNL     1       3.209  -2.555  -0.905  0.00  0.00    -0.179 NA
ATOM     26  N   UNL     1       3.313  -3.347  -2.056  0.00  0.00    -0.281 N 
ATOM     27  H   UNL     1       3.893  -4.117  -2.169  0.00  0.00    +0.189 HD
ATOM     28  C   UNL     1       1.899  -0.551  -0.157  0.00  0.00    +0.068 C 
ENDBRANCH  19  23
ENDBRANCH  15  19
ENDBRANCH   1  16
BRANCH  11  29
ATOM     29  C   UNL     1      -5.501  -0.366  -2.498  0.00  0.00    +0.261 C 
BRANCH  29  30
ATOM     30  C   UNL     1      -4.997   0.974  -1.957  0.00  0.00    +0.033 C 
ATOM     31  C   UNL     1      -5.025   0.948  -0.427  0.00  0.00    +0.011 C 
ATOM     32  C   UNL     1      -3.564   1.211  -2.438  0.00  0.00    +0.011 C 
ENDBRANCH  29  30
BRANCH  29  33
ATOM     33  O   UNL     1      -6.860  -0.560  -2.100  0.00  0.00    -0.479 OA
BRANCH  33  34
ATOM     34  C   UNL     1      -7.077  -1.319  -0.995  0.00  0.00    +0.122 A 
ATOM     35  C   UNL     1      -8.363  -1.470  -0.497  0.00  0.00    +0.045 A 
ATOM     36  C   UNL     1      -8.581  -2.244   0.627  0.00  0.00    +0.004 A 
ATOM     37  C   UNL     1      -7.519  -2.866   1.256  0.00  0.00    +0.000 A 
ATOM     38  C   UNL     1      -6.236  -2.716   0.763  0.00  0.00    +0.004 A 
ATOM     39  C   UNL     1      -6.013  -1.949  -0.365  0.00  0.00    +0.045 A 
ENDBRANCH  33  34
ENDBRANCH  29  33
ENDBRANCH  11  29
TORSDOF 7
