REMARK  Name = ZINC22452450
REMARK  6 active torsions:
REMARK  status: ('A' for Active; 'I' for Inactive)
REMARK    1  A    between atoms: C_1  and  C_2
REMARK    2  A    between atoms: C_2  and  C_3
REMARK    3  A    between atoms: C_16  and  C_18
REMARK    4  A    between atoms: C_18  and  S_19
REMARK    5  A    between atoms: S_19  and  C_20
REMARK    6  A    between atoms: C_23  and  C_26
REMARK                            x       y       z     vdW  Elec       q    Type
REMARK                         _______ _______ _______ _____ _____    ______ ____
ROOT
ATOM      1  C   UNL     1      -0.001  -2.207  -0.564  0.00  0.00    +0.076 C 
ATOM      2  C   UNL     1      -0.051  -3.699  -0.903  0.00  0.00    +0.022 C 
ATOM      3  C   UNL     1       0.698  -4.487   0.175  0.00  0.00    +0.003 C 
ATOM      4  C   UNL     1       2.139  -3.976   0.263  0.00  0.00    +0.019 C 
ATOM      5  C   UNL     1       2.125  -2.476   0.568  0.00  0.00    +0.108 C 
ATOM      6  N   UNL     1       1.398  -1.766  -0.492  0.00  0.00    -0.298 N 
ATOM      7  C   UNL     1       1.478  -0.411  -0.318  0.00  0.00    +0.199 A 
ATOM      8  N   UNL     1       2.691   0.202  -0.383  0.00  0.00    -0.295 N 
ATOM      9  H   UNL     1       3.597  -0.392  -0.573  0.00  0.00    +0.172 HD
ATOM     10  C   UNL     1       2.777   1.538  -0.212  0.00  0.00    +0.253 A 
ATOM     11  O   UNL     1       3.857   2.104  -0.266  0.00  0.00    -0.268 OA
ATOM     12  C   UNL     1       1.598   2.266   0.030  0.00  0.00    +0.094 A 
ATOM     13  C   UNL     1       0.409   1.598   0.083  0.00  0.00    +0.060 A 
ATOM     14  N   UNL     1       0.377   0.279  -0.092  0.00  0.00    -0.220 NA
ENDROOT
BRANCH   1  16
ATOM     15  C   UNL     1      -2.218  -1.770  -1.629  0.00  0.00    +0.006 C 
ATOM     16  C   UNL     1      -0.730  -1.413  -1.649  0.00  0.00    +0.019 C 
ENDBRANCH   1  16
BRANCH  13  17
ATOM     17  C   UNL     1      -0.869   2.355   0.333  0.00  0.00    +0.130 C 
BRANCH  17  18
ATOM     18  S   UNL     1      -1.792   2.515  -1.220  0.00  0.00    -0.119 S 
BRANCH  18  19
ATOM     19  C   UNL     1      -3.239   3.411  -0.766  0.00  0.00    +0.008 A 
ATOM     20  C   UNL     1      -3.430   3.803   0.553  0.00  0.00    +0.015 A 
ATOM     21  C   UNL     1      -4.563   4.511   0.904  0.00  0.00    +0.004 A 
ATOM     22  C   UNL     1      -5.513   4.818  -0.053  0.00  0.00    -0.050 A 
ATOM     23  C   UNL     1      -5.329   4.424  -1.366  0.00  0.00    +0.004 A 
ATOM     24  C   UNL     1      -4.196   3.722  -1.726  0.00  0.00    +0.015 A 
ATOM     25  C   UNL     1      -6.751   5.585   0.335  0.00  0.00    +0.044 C 
ENDBRANCH  18  19
ENDBRANCH  17  18
ENDBRANCH  13  17
TORSDOF 4
