REMARK  Name = ZINC20837558
REMARK  10 active torsions:
REMARK  status: ('A' for Active; 'I' for Inactive)
REMARK    1  A    between atoms: C_1  and  N_2
REMARK    2  A    between atoms: C_4  and  C_7
REMARK    3  A    between atoms: N_8  and  N_9
REMARK    4  A    between atoms: C_14  and  S_16
REMARK    5  A    between atoms: S_16  and  C_17
REMARK    6  A    between atoms: C_17  and  C_18
REMARK    7  A    between atoms: N_20  and  C_21
REMARK    8  A    between atoms: C_24  and  S_27
REMARK    9  A    between atoms: S_27  and  N_30
REMARK   10  A    between atoms: N_30  and  C_31
REMARK                            x       y       z     vdW  Elec       q    Type
REMARK                         _______ _______ _______ _____ _____    ______ ____
ROOT
ATOM      1  C   UNL     1      11.278  -2.953  -0.607  0.00  0.00    +0.227 C 
ATOM      2  O   UNL     1      11.485  -1.758  -0.620  0.00  0.00    -0.275 OA
ATOM      3  N   UNL     1      12.311  -3.816  -0.534  0.00  0.00    -0.285 N 
ATOM      4  H   UNL     1      12.121  -4.896  -0.445  0.00  0.00    +0.155 HD
ENDROOT
BRANCH   3   5
ATOM      5  C   UNL     1      13.626  -3.338  -0.572  0.00  0.00    +0.034 A 
ATOM      6  C   UNL     1      14.617  -4.078  -1.202  0.00  0.00    +0.025 A 
ATOM      7  C   UNL     1      15.913  -3.600  -1.243  0.00  0.00    +0.030 A 
ATOM      8  C   UNL     1      16.225  -2.392  -0.648  0.00  0.00    +0.109 A 
ATOM      9  C   UNL     1      15.241  -1.655  -0.014  0.00  0.00    +0.030 A 
ATOM     10  C   UNL     1      13.942  -2.125   0.025  0.00  0.00    +0.025 A 
BRANCH   8  11
ATOM     11  S   UNL     1      17.880  -1.789  -0.697  0.00  0.00    +0.072 S 
ATOM     12  O   UNL     1      18.467  -2.311  -1.881  0.00  0.00    -0.150 OA
ATOM     13  O   UNL     1      17.812  -0.395  -0.429  0.00  0.00    -0.150 OA
BRANCH  11  14
ATOM     14  N   UNL     1      18.688  -2.476   0.575  0.00  0.00    -0.216 N 
ATOM     15  H   UNL     1      19.090  -1.842   1.379  0.00  0.00    +0.174 HD
BRANCH  14  16
ATOM     16  C   UNL     1      18.860  -3.861   0.627  0.00  0.00    +0.048 A 
ATOM     17  C   UNL     1      18.105  -4.624   1.510  0.00  0.00    +0.024 A 
ATOM     18  C   UNL     1      18.274  -5.994   1.555  0.00  0.00    +0.002 A 
ATOM     19  C   UNL     1      19.200  -6.606   0.731  0.00  0.00    +0.000 A 
ATOM     20  C   UNL     1      19.957  -5.849  -0.145  0.00  0.00    +0.002 A 
ATOM     21  C   UNL     1      19.790  -4.479  -0.199  0.00  0.00    +0.024 A 
ENDBRANCH  14  16
ENDBRANCH  11  14
ENDBRANCH   8  11
ENDBRANCH   3   5
BRANCH   1  22
ATOM     22  C   UNL     1       9.865  -3.474  -0.672  0.00  0.00    +0.173 C 
BRANCH  22  23
ATOM     23  S   UNL     1       8.710  -2.078  -0.762  0.00  0.00    -0.075 S 
BRANCH  23  29
ATOM     24  N   UNL     1       3.622  -2.773  -1.022  0.00  0.00    -0.205 N 
ATOM     25  C   UNL     1       4.969  -3.070  -0.943  0.00  0.00    +0.232 A 
ATOM     26  N   UNL     1       5.507  -4.308  -0.890  0.00  0.00    -0.245 N 
ATOM     27  H   UNL     1       4.854  -5.193  -0.908  0.00  0.00    +0.192 HD
ATOM     28  N   UNL     1       6.899  -4.134  -0.819  0.00  0.00    -0.144 NA
ATOM     29  C   UNL     1       7.124  -2.841  -0.832  0.00  0.00    +0.211 A 
ATOM     30  N   UNL     1       5.954  -2.197  -0.913  0.00  0.00    -0.186 NA
ATOM     31  H   UNL     1       2.880  -3.584  -1.046  0.00  0.00    +0.177 HD
BRANCH  24  33
ATOM     32  C   UNL     1       1.936  -1.158  -1.144  0.00  0.00    +0.141 C 
ATOM     33  N   UNL     1       3.201  -1.437  -1.070  0.00  0.00    -0.187 NA
BRANCH  32  37
ATOM     34  C   UNL     1      -0.938   2.927  -1.385  0.00  0.00    +0.172 C 
ATOM     35  N   UNL     1       0.226   2.041  -1.299  0.00  0.00    -0.274 N 
ATOM     36  C   UNL     1       0.191   0.693  -1.274  0.00  0.00    +0.117 A 
ATOM     37  C   UNL     1       1.493   0.249  -1.195  0.00  0.00    +0.032 A 
ATOM     38  C   UNL     1       2.324   1.390  -1.173  0.00  0.00    +0.143 A 
ATOM     39  N   UNL     1       1.563   2.449  -1.235  0.00  0.00    -0.179 NA
ENDBRANCH  32  37
ENDBRANCH  24  33
ENDBRANCH  23  29
ENDBRANCH  22  23
ENDBRANCH   1  22
TORSDOF 9
