REMARK  Name = ZINC09373741
REMARK  14 active torsions:
REMARK  status: ('A' for Active; 'I' for Inactive)
REMARK    1  A    between atoms: C_1  and  C_2
REMARK    2  A    between atoms: C_2  and  C_3
REMARK    3  A    between atoms: C_3  and  O_4
REMARK    4  A    between atoms: O_4  and  C_5
REMARK    5  A    between atoms: C_9  and  C_11
REMARK    6  A    between atoms: C_14  and  C_15
REMARK    7  A    between atoms: C_14  and  O_26
REMARK    8  A    between atoms: C_22  and  C_25
REMARK    9  A    between atoms: N_31  and  C_32
REMARK   10  A    between atoms: C_32  and  C_33
REMARK   11  A    between atoms: C_33  and  C_34
REMARK   12  A    between atoms: C_34  and  N_69
REMARK   13  A    between atoms: C_35  and  N_69
REMARK   14  A    between atoms: C_36  and  N_69
REMARK                            x       y       z     vdW  Elec       q    Type
REMARK                         _______ _______ _______ _____ _____    ______ ____
ROOT
ATOM      1  C   UNL     1      -2.171   0.944   0.107  0.00  0.00    +0.145 C 
ATOM      2  C   UNL     1      -2.468   0.435   1.499  0.00  0.00    +0.071 C 
ATOM      3  C   UNL     1      -2.964   1.165   2.561  0.00  0.00    +0.133 C 
ATOM      4  C   UNL     1      -2.138  -0.929   1.494  0.00  0.00    +0.249 C 
ATOM      5  O   UNL     1      -2.239  -1.691   2.438  0.00  0.00    -0.282 OA
ATOM      6  C   UNL     1      -1.643  -1.282   0.136  0.00  0.00    +0.288 C 
ATOM      7  O   UNL     1      -1.274  -2.387  -0.205  0.00  0.00    -0.266 OA
ATOM      8  N   UNL     1      -1.665  -0.198  -0.659  0.00  0.00    -0.284 N 
ENDROOT
BRANCH   3   9
ATOM      9  C   UNL     1      -3.336   0.484   3.811  0.00  0.00    +0.017 A 
ATOM     10  C   UNL     1      -4.190  -0.625   3.784  0.00  0.00    +0.015 A 
ATOM     11  C   UNL     1      -4.529  -1.264   4.952  0.00  0.00    +0.046 A 
ATOM     12  C   UNL     1      -4.035  -0.809   6.177  0.00  0.00    +0.124 A 
ATOM     13  C   UNL     1      -3.196   0.302   6.200  0.00  0.00    -0.002 A 
ATOM     14  C   UNL     1      -2.843   0.944   5.040  0.00  0.00    +0.019 A 
ATOM     15  C   UNL     1      -2.849   0.566   7.653  0.00  0.00    +0.083 C 
ATOM     16  C   UNL     1      -3.913  -0.279   8.393  0.00  0.00    +0.175 C 
ATOM     17  O   UNL     1      -4.240  -1.295   7.431  0.00  0.00    -0.488 OA
ATOM     18  C   UNL     1      -5.142   0.569   8.726  0.00  0.00    +0.052 C 
ENDBRANCH   3   9
BRANCH   1  23
ATOM     19  C   UNL     1      -0.538   4.352   0.100  0.00  0.00    +0.121 A 
ATOM     20  C   UNL     1       0.797   4.016   0.271  0.00  0.00    +0.045 A 
ATOM     21  C   UNL     1       1.165   2.691   0.393  0.00  0.00    +0.004 A 
ATOM     22  C   UNL     1       0.204   1.698   0.344  0.00  0.00    +0.006 A 
ATOM     23  C   UNL     1      -1.127   2.029   0.167  0.00  0.00    -0.019 A 
ATOM     24  C   UNL     1      -1.500   3.354   0.051  0.00  0.00    +0.051 A 
BRANCH  19  25
ATOM     25  O   UNL     1      -0.903   5.655  -0.020  0.00  0.00    -0.492 OA
BRANCH  25  26
ATOM     26  C   UNL     1       0.142   6.629   0.040  0.00  0.00    +0.229 C 
BRANCH  26  28
ATOM     27  C   UNL     1       0.661   9.072  -0.048  0.00  0.00    +0.007 C 
ATOM     28  C   UNL     1      -0.457   8.029  -0.112  0.00  0.00    +0.038 C 
ENDBRANCH  26  28
ENDBRANCH  25  26
ENDBRANCH  19  25
ENDBRANCH   1  23
BRANCH   3  29
ATOM     29  O   UNL     1      -3.108   2.503   2.453  0.00  0.00    -0.506 OA
ATOM     30  H   UNL     1      -3.476   2.869   3.307  0.00  0.00    +0.292 HD
ENDBRANCH   3  29
BRANCH   8  31
ATOM     31  C   UNL     1      -1.250  -0.165  -2.063  0.00  0.00    +0.107 C 
BRANCH  31  32
ATOM     32  C   UNL     1       0.241   0.172  -2.147  0.00  0.00    +0.000 C 
BRANCH  32  33
ATOM     33  C   UNL     1       0.674   0.207  -3.614  0.00  0.00    -0.078 C 
BRANCH  33  36
ATOM     34  C   UNL     1       2.611   0.342  -5.061  0.00  0.00    -0.097 C 
ATOM     35  C   UNL     1       2.363   1.896  -3.221  0.00  0.00    -0.097 C 
ATOM     36  N   UNL     1       2.119   0.512  -3.677  0.00  0.00    +0.376 N 
ATOM     37  H   UNL     1       2.624  -0.136  -3.061  0.00  0.00    -0.083 HD
ENDBRANCH  33  36
ENDBRANCH  32  33
ENDBRANCH  31  32
ENDBRANCH   8  31
TORSDOF 10
