REMARK  Name = ZINC23038636
REMARK  12 active torsions:
REMARK  status: ('A' for Active; 'I' for Inactive)
REMARK    1  A    between atoms: C_1  and  C_2
REMARK    2  A    between atoms: C_3  and  C_27
REMARK    3  A    between atoms: C_4  and  C_26
REMARK    4  A    between atoms: C_7  and  C_8
REMARK    5  A    between atoms: C_8  and  C_10
REMARK    6  A    between atoms: C_10  and  C_12
REMARK    7  A    between atoms: C_10  and  N_13
REMARK    8  A    between atoms: N_13  and  C_14
REMARK    9  A    between atoms: N_13  and  C_15
REMARK   10  A    between atoms: C_15  and  C_16
REMARK   11  A    between atoms: N_18  and  C_19
REMARK   12  A    between atoms: C_27  and  C_29
REMARK                            x       y       z     vdW  Elec       q    Type
REMARK                         _______ _______ _______ _____ _____    ______ ____
ROOT
ATOM      1  C   UNL     1      -6.770   2.634   1.491  0.00  0.00    +0.003 C 
ATOM      2  C   UNL     1      -6.817   3.781   0.480  0.00  0.00    -0.005 C 
ENDROOT
BRANCH   1   3
ATOM      3  N   UNL     1      -7.874   2.779   2.449  0.00  0.00    +0.390 N 
ATOM      4  C   UNL     1      -7.858   4.109   3.072  0.00  0.00    -0.095 C 
ATOM      5  H   UNL     1      -7.732   2.032   3.244  0.00  0.00    -0.081 HD
BRANCH   3   6
ATOM      6  C   UNL     1      -9.168   2.515   1.806  0.00  0.00    +0.019 C 
BRANCH   6   7
ATOM      7  C   UNL     1     -10.243   2.431   2.857  0.00  0.00    +0.201 C 
ATOM      8  O   UNL     1      -9.960   2.577   4.028  0.00  0.00    -0.278 OA
ATOM      9  N   UNL     1     -11.521   2.193   2.498  0.00  0.00    -0.286 N 
ATOM     10  H   UNL     1     -11.766   1.987   1.445  0.00  0.00    +0.155 HD
BRANCH   9  11
ATOM     11  C   UNL     1     -12.534   2.209   3.463  0.00  0.00    +0.047 A 
ATOM     12  C   UNL     1     -12.276   1.754   4.750  0.00  0.00    +0.024 A 
ATOM     13  C   UNL     1     -13.277   1.774   5.701  0.00  0.00    +0.002 A 
ATOM     14  C   UNL     1     -14.538   2.237   5.371  0.00  0.00    +0.001 A 
ATOM     15  C   UNL     1     -14.800   2.686   4.090  0.00  0.00    +0.017 A 
ATOM     16  C   UNL     1     -13.802   2.673   3.134  0.00  0.00    +0.039 A 
ATOM     17 BR   UNL     1     -14.160   3.285   1.381  0.00  0.00    -0.048 Br
ENDBRANCH   9  11
ENDBRANCH   6   7
ENDBRANCH   3   6
ENDBRANCH   1   3
BRANCH   1  18
ATOM     18  C   UNL     1      -5.456   2.668   2.229  0.00  0.00    +0.166 C 
ATOM     19  O   UNL     1      -5.414   3.067   3.374  0.00  0.00    -0.292 OA
BRANCH  18  26
ATOM     20  C   UNL     1      -2.638   2.644   3.536  0.00  0.00    +0.047 C 
ATOM     21  C   UNL     1      -3.011   2.214   2.141  0.00  0.00    -0.012 A 
ATOM     22  C   UNL     1      -2.136   1.712   1.151  0.00  0.00    +0.041 A 
ATOM     23  C   UNL     1      -2.902   1.451   0.024  0.00  0.00    +0.024 A 
ATOM     24  N   UNL     1      -4.178   1.760   0.292  0.00  0.00    -0.355 N 
ATOM     25  H   UNL     1      -4.952   1.617  -0.476  0.00  0.00    +0.166 HD
ATOM     26  C   UNL     1      -4.271   2.235   1.586  0.00  0.00    +0.084 A 
ATOM     27  C   UNL     1      -2.386   0.908  -1.283  0.00  0.00    +0.064 C 
BRANCH  22  28
ATOM     28  C   UNL     1      -0.690   1.510   1.287  0.00  0.00    +0.162 C 
ATOM     29  O   UNL     1       0.072   2.431   1.085  0.00  0.00    -0.292 OA
ATOM     30  C   UNL     1      -0.152   0.158   1.680  0.00  0.00    +0.091 C 
ENDBRANCH  22  28
ENDBRANCH  18  26
ENDBRANCH   1  18
TORSDOF 7
