REMARK  Name = ZINC39530232
REMARK  9 active torsions:
REMARK  status: ('A' for Active; 'I' for Inactive)
REMARK    1  A    between atoms: C_1  and  C_2
REMARK    2  A    between atoms: C_2  and  O_3
REMARK    3  A    between atoms: O_3  and  C_4
REMARK    4  A    between atoms: C_7  and  N_17
REMARK    5  A    between atoms: C_8  and  C_10
REMARK    6  A    between atoms: C_15  and  O_16
REMARK    7  A    between atoms: C_21  and  S_24
REMARK    8  A    between atoms: S_24  and  O_27
REMARK    9  A    between atoms: O_27  and  C_28
REMARK                            x       y       z     vdW  Elec       q    Type
REMARK                         _______ _______ _______ _____ _____    ______ ____
ROOT
ATOM      1  N   UNL     1       1.083  -5.446  -1.905  0.00  0.00    -0.331 N 
ATOM      2  C   UNL     1       2.225  -6.070  -1.220  0.00  0.00    +0.086 C 
ATOM      3  C   UNL     1       2.781  -7.181  -2.116  0.00  0.00    -0.061 C 
ATOM      4  N   UNL     1       1.702  -8.113  -2.465  0.00  0.00    +0.398 N 
ATOM      5  C   UNL     1       0.688  -7.424  -3.273  0.00  0.00    +0.133 C 
ATOM      6  C   UNL     1       0.025  -6.324  -2.429  0.00  0.00    +0.115 C 
ATOM      7  H   UNL     1       2.082  -8.885  -2.992  0.00  0.00    -0.083 HD
ATOM      8  H   UNL     1       1.276  -8.464  -1.621  0.00  0.00    -0.083 HD
ENDROOT
BRANCH   1  12
ATOM      9  C   UNL     1       0.838  -1.301  -2.335  0.00  0.00    +0.121 A 
ATOM     10  C   UNL     1       1.584  -2.054  -3.231  0.00  0.00    +0.047 A 
ATOM     11  C   UNL     1       1.665  -3.426  -3.089  0.00  0.00    +0.027 A 
ATOM     12  C   UNL     1       1.001  -4.058  -2.048  0.00  0.00    +0.038 A 
ATOM     13  C   UNL     1       0.248  -3.303  -1.142  0.00  0.00    +0.010 A 
ATOM     14  C   UNL     1       0.175  -1.919  -1.289  0.00  0.00    +0.056 A 
BRANCH  13  15
ATOM     15  C   UNL     1      -0.466  -3.971  -0.028  0.00  0.00    +0.025 A 
ATOM     16  C   UNL     1      -1.859  -4.005  -0.008  0.00  0.00    +0.012 A 
ATOM     17  C   UNL     1      -2.518  -4.628   1.031  0.00  0.00    +0.001 A 
ATOM     18  C   UNL     1      -1.801  -5.221   2.056  0.00  0.00    +0.004 A 
ATOM     19  C   UNL     1      -0.419  -5.194   2.046  0.00  0.00    +0.046 A 
ATOM     20  C   UNL     1       0.256  -4.576   1.006  0.00  0.00    +0.125 A 
BRANCH  20  21
ATOM     21  O   UNL     1       1.614  -4.554   0.992  0.00  0.00    -0.506 OA
ATOM     22  H   UNL     1       2.000  -3.788   1.439  0.00  0.00    +0.292 HD
ENDBRANCH  20  21
ENDBRANCH  13  15
BRANCH   9  23
ATOM     23  O   UNL     1       0.763   0.049  -2.482  0.00  0.00    -0.492 OA
BRANCH  23  25
ATOM     24  C   UNL     1       1.272   2.139  -3.584  0.00  0.00    +0.048 C 
ATOM     25  C   UNL     1       1.472   0.623  -3.582  0.00  0.00    +0.225 C 
ENDBRANCH  23  25
ENDBRANCH   9  23
ENDBRANCH   1  12
BRANCH   5  26
ATOM     26  S   UNL     1      -0.572  -8.615  -3.808  0.00  0.00    +0.109 S 
ATOM     27  O   UNL     1      -1.090  -9.316  -2.686  0.00  0.00    -0.138 OA
ATOM     28  O   UNL     1      -1.446  -8.012  -4.752  0.00  0.00    -0.138 OA
BRANCH  26  29
ATOM     29  O   UNL     1       0.194  -9.664  -4.601  0.00  0.00    -0.347 OA
BRANCH  29  30
ATOM     30  C   UNL     1       0.581  -9.249  -5.836  0.00  0.00    +0.156 A 
ATOM     31  C   UNL     1      -0.290  -9.358  -6.910  0.00  0.00    +0.048 A 
ATOM     32  C   UNL     1       0.106  -8.935  -8.165  0.00  0.00    +0.004 A 
ATOM     33  C   UNL     1       1.369  -8.405  -8.350  0.00  0.00    +0.000 A 
ATOM     34  C   UNL     1       2.239  -8.296  -7.281  0.00  0.00    +0.004 A 
ATOM     35  C   UNL     1       1.846  -8.711  -6.024  0.00  0.00    +0.048 A 
ENDBRANCH  29  30
ENDBRANCH  26  29
ENDBRANCH   5  26
TORSDOF 8
