REMARK  Name = ZINC08599484
REMARK  11 active torsions:
REMARK  status: ('A' for Active; 'I' for Inactive)
REMARK    1  A    between atoms: C_1  and  C_2
REMARK    2  A    between atoms: C_2  and  C_3
REMARK    3  A    between atoms: C_7  and  N_9
REMARK    4  A    between atoms: C_10  and  C_12
REMARK    5  A    between atoms: C_12  and  C_14
REMARK    6  A    between atoms: C_12  and  N_21
REMARK    7  A    between atoms: C_14  and  C_15
REMARK    8  A    between atoms: N_21  and  S_22
REMARK    9  A    between atoms: S_22  and  C_25
REMARK   10  A    between atoms: N_33  and  C_38
REMARK   11  A    between atoms: N_36  and  C_37
REMARK                            x       y       z     vdW  Elec       q    Type
REMARK                         _______ _______ _______ _____ _____    ______ ____
ROOT
ATOM      1  C   UNL     1       6.429  -2.157  -3.376  0.00  0.00    +0.167 C 
ENDROOT
BRANCH   1   3
ATOM      2  N   UNL     1       4.160  -1.714  -2.496  0.00  0.00    -0.284 N 
ATOM      3  C   UNL     1       4.932  -2.085  -3.537  0.00  0.00    +0.236 C 
ATOM      4  O   UNL     1       4.423  -2.362  -4.602  0.00  0.00    -0.274 OA
ATOM      5  H   UNL     1       4.571  -1.419  -1.669  0.00  0.00    +0.155 HD
BRANCH   2  10
ATOM      6  C   UNL     1       0.611  -0.853  -2.069  0.00  0.00    -0.046 A 
ATOM      7  C   UNL     1       0.009  -1.835  -2.835  0.00  0.00    +0.004 A 
ATOM      8  C   UNL     1       0.783  -2.776  -3.489  0.00  0.00    +0.002 A 
ATOM      9  C   UNL     1       2.159  -2.739  -3.379  0.00  0.00    +0.023 A 
ATOM     10  C   UNL     1       2.766  -1.754  -2.610  0.00  0.00    +0.034 A 
ATOM     11  C   UNL     1       1.987  -0.807  -1.959  0.00  0.00    +0.027 A 
BRANCH   6  13
ATOM     12  C   UNL     1      -0.458   1.375  -2.276  0.00  0.00    +0.009 C 
ATOM     13  C   UNL     1      -0.235   0.171  -1.358  0.00  0.00    +0.032 C 
ENDBRANCH   6  13
ENDBRANCH   2  10
ENDBRANCH   1   3
BRANCH   1  14
ATOM     14  N   UNL     1       7.036  -2.582  -4.640  0.00  0.00    -0.178 NA
ATOM     15  H   UNL     1       7.102  -3.526  -4.853  0.00  0.00    +0.149 HD
BRANCH  14  16
ATOM     16  S   UNL     1       7.608  -1.450  -5.705  0.00  0.00    +0.059 S 
ATOM     17  O   UNL     1       8.163  -2.167  -6.800  0.00  0.00    -0.153 OA
ATOM     18  O   UNL     1       6.576  -0.488  -5.869  0.00  0.00    -0.153 OA
BRANCH  16  19
ATOM     19  C   UNL     1       8.948  -0.622  -4.915  0.00  0.00    +0.106 A 
ATOM     20  C   UNL     1       8.696   0.459  -4.084  0.00  0.00    +0.030 A 
ATOM     21  C   UNL     1       9.732   1.120  -3.456  0.00  0.00    +0.028 A 
ATOM     22  C   UNL     1      11.038   0.701  -3.657  0.00  0.00    +0.058 A 
ATOM     23  C   UNL     1      11.295  -0.394  -4.500  0.00  0.00    +0.065 A 
ATOM     24  C   UNL     1      10.240  -1.056  -5.123  0.00  0.00    +0.043 A 
ATOM     25  C   UNL     1      12.695  -0.813  -4.691  0.00  0.00    +0.264 A 
ATOM     26  O   UNL     1      12.972  -1.754  -5.410  0.00  0.00    -0.267 OA
ATOM     27  N   UNL     1      13.663  -0.125  -4.048  0.00  0.00    -0.263 N 
ATOM     28  C   UNL     1      13.367   0.915  -3.253  0.00  0.00    +0.332 A 
ATOM     29  O   UNL     1      14.276   1.501  -2.697  0.00  0.00    -0.246 OA
ATOM     30  N   UNL     1      12.108   1.338  -3.044  0.00  0.00    -0.296 N 
ATOM     31  C   UNL     1      11.863   2.482  -2.162  0.00  0.00    +0.154 C 
ATOM     32  C   UNL     1      15.063  -0.521  -4.220  0.00  0.00    +0.157 C 
ENDBRANCH  16  19
ENDBRANCH  14  16
ENDBRANCH   1  14
BRANCH   1  33
ATOM     33  C   UNL     1       6.777  -3.166  -2.279  0.00  0.00    +0.065 C 
BRANCH  33  34
ATOM     34  C   UNL     1       8.264  -3.151  -2.037  0.00  0.00    -0.045 A 
ATOM     35  C   UNL     1       9.096  -3.951  -2.799  0.00  0.00    +0.004 A 
ATOM     36  C   UNL     1      10.460  -3.938  -2.576  0.00  0.00    +0.000 A 
ATOM     37  C   UNL     1      10.993  -3.125  -1.593  0.00  0.00    +0.000 A 
ATOM     38  C   UNL     1      10.161  -2.325  -0.832  0.00  0.00    +0.000 A 
ATOM     39  C   UNL     1       8.797  -2.335  -1.057  0.00  0.00    +0.004 A 
ENDBRANCH  33  34
ENDBRANCH   1  33
TORSDOF 8
