REMARK  Name = ZINC63622971
REMARK  9 active torsions:
REMARK  status: ('A' for Active; 'I' for Inactive)
REMARK    1  A    between atoms: C_7  and  C_10
REMARK    2  A    between atoms: C_10  and  C_11
REMARK    3  A    between atoms: C_11  and  C_13
REMARK    4  A    between atoms: C_11  and  N_26
REMARK    5  A    between atoms: C_13  and  O_15
REMARK    6  A    between atoms: O_15  and  C_16
REMARK    7  A    between atoms: C_16  and  C_17
REMARK    8  A    between atoms: C_17  and  C_19
REMARK    9  A    between atoms: C_27  and  C_29
REMARK                            x       y       z     vdW  Elec       q    Type
REMARK                         _______ _______ _______ _____ _____    ______ ____
ROOT
ATOM      1  C   UNL     1       0.358  -3.575  -1.466  0.00  0.00    +0.186 C 
ENDROOT
BRANCH   1   2
ATOM      2  N   UNL     1       1.542  -4.161  -2.099  0.00  0.00    -0.302 N 
ATOM      3  C   UNL     1       2.517  -3.361  -2.575  0.00  0.00    +0.220 C 
ATOM      4  O   UNL     1       2.414  -2.156  -2.479  0.00  0.00    -0.275 OA
ATOM      5  H   UNL     1       1.625  -5.124  -2.175  0.00  0.00    +0.150 HD
BRANCH   3   6
ATOM      6  C   UNL     1       3.736  -3.963  -3.226  0.00  0.00    +0.048 C 
ATOM      7  C   UNL     1       3.308  -4.789  -4.441  0.00  0.00    +0.019 C 
ATOM      8  C   UNL     1       4.545  -5.401  -5.102  0.00  0.00    -0.009 C 
ATOM      9  C   UNL     1       5.489  -4.284  -5.551  0.00  0.00    +0.007 C 
ATOM     10  C   UNL     1       5.916  -3.458  -4.336  0.00  0.00    -0.009 C 
ATOM     11  C   UNL     1       4.679  -2.846  -3.675  0.00  0.00    +0.019 C 
ATOM     12  C   UNL     1       6.636  -4.361  -3.333  0.00  0.00    +0.007 C 
ATOM     13  C   UNL     1       5.692  -5.479  -2.884  0.00  0.00    -0.009 C 
ATOM     14  C   UNL     1       5.265  -6.304  -4.099  0.00  0.00    +0.007 C 
ATOM     15  C   UNL     1       4.456  -4.867  -2.223  0.00  0.00    +0.019 C 
ENDBRANCH   3   6
ENDBRANCH   1   2
BRANCH   1  16
ATOM     16  C   UNL     1      -0.795  -3.603  -2.435  0.00  0.00    +0.328 C 
ATOM     17  O   UNL     1      -0.643  -4.065  -3.541  0.00  0.00    -0.249 OA
BRANCH  16  18
ATOM     18  O   UNL     1      -1.991  -3.115  -2.070  0.00  0.00    -0.455 OA
BRANCH  18  19
ATOM     19  C   UNL     1      -3.039  -3.174  -3.039  0.00  0.00    +0.311 C 
BRANCH  19  20
ATOM     20  C   UNL     1      -4.297  -2.585  -2.455  0.00  0.00    +0.200 C 
ATOM     21  O   UNL     1      -4.296  -2.157  -1.320  0.00  0.00    -0.288 OA
BRANCH  20  22
ATOM     22  C   UNL     1      -5.527  -2.529  -3.261  0.00  0.00    +0.021 A 
ATOM     23  C   UNL     1      -5.533  -3.027  -4.568  0.00  0.00    +0.013 A 
ATOM     24  C   UNL     1      -6.689  -2.972  -5.317  0.00  0.00    +0.021 A 
ATOM     25  C   UNL     1      -7.842  -2.424  -4.779  0.00  0.00    +0.041 A 
ATOM     26  C   UNL     1      -7.843  -1.929  -3.484  0.00  0.00    +0.021 A 
ATOM     27  C   UNL     1      -6.696  -1.983  -2.722  0.00  0.00    +0.013 A 
ATOM     28 CL   UNL     1      -9.292  -2.358  -5.730  0.00  0.00    -0.084 Cl
ENDBRANCH  20  22
ENDBRANCH  19  20
ENDBRANCH  18  19
ENDBRANCH  16  18
ENDBRANCH   1  16
BRANCH   1  29
ATOM     29  C   UNL     1      -0.005  -4.382  -0.218  0.00  0.00    +0.067 C 
BRANCH  29  36
ATOM     30  C   UNL     1       0.666  -1.655   3.411  0.00  0.00    +0.001 A 
ATOM     31  C   UNL     1       1.868  -1.904   4.087  0.00  0.00    +0.002 A 
ATOM     32  C   UNL     1       2.739  -2.859   3.698  0.00  0.00    +0.026 A 
ATOM     33  C   UNL     1       2.460  -3.666   2.560  0.00  0.00    +0.043 A 
ATOM     34  N   UNL     1       3.132  -4.638   1.993  0.00  0.00    -0.380 N 
ATOM     35  C   UNL     1       2.370  -5.121   0.837  0.00  0.00    +0.144 C 
ATOM     36  C   UNL     1       1.113  -4.282   0.788  0.00  0.00    -0.039 C 
ATOM     37  C   UNL     1       1.196  -3.423   1.829  0.00  0.00    -0.001 A 
ATOM     38  C   UNL     1       0.304  -2.365   2.319  0.00  0.00    +0.010 A 
ATOM     39  H   UNL     1       3.991  -4.980   2.288  0.00  0.00    +0.160 HD
ENDBRANCH  29  36
ENDBRANCH   1  29
TORSDOF 9
