REMARK  Name = ZINC13644192
REMARK  5 active torsions:
REMARK  status: ('A' for Active; 'I' for Inactive)
REMARK    1  A    between atoms: C_1  and  C_2
REMARK    2  A    between atoms: C_2  and  C_19
REMARK    3  A    between atoms: N_3  and  N_4
REMARK    4  A    between atoms: C_5  and  C_7
REMARK    5  A    between atoms: C_9  and  C_13
REMARK                            x       y       z     vdW  Elec       q    Type
REMARK                         _______ _______ _______ _____ _____    ______ ____
ROOT
ATOM      1  N   UNL     1      -1.058  -1.530   1.442  0.00  0.00    -0.201 N 
ATOM      2  C   UNL     1      -1.575  -1.794   2.658  0.00  0.00    +0.283 C 
ATOM      3  O   UNL     1      -1.482  -0.972   3.550  0.00  0.00    -0.267 OA
ATOM      4  H   UNL     1      -1.132  -2.186   0.731  0.00  0.00    +0.178 HD
ENDROOT
BRANCH   2   5
ATOM      5  C   UNL     1      -2.255  -3.081   2.909  0.00  0.00    +0.149 A 
ATOM      6  C   UNL     1      -2.847  -3.492   4.123  0.00  0.00    +0.062 A 
ATOM      7  C   UNL     1      -3.346  -4.741   3.880  0.00  0.00    +0.066 A 
ATOM      8  N   UNL     1      -3.054  -5.037   2.581  0.00  0.00    -0.276 N 
ATOM      9  H   UNL     1      -3.290  -5.863   2.132  0.00  0.00    +0.189 HD
ATOM     10  N   UNL     1      -2.427  -4.056   2.038  0.00  0.00    -0.169 NA
BRANCH   7  11
ATOM     11  C   UNL     1      -4.065  -5.606   4.842  0.00  0.00    -0.000 A 
ATOM     12  C   UNL     1      -4.295  -5.164   6.145  0.00  0.00    +0.010 A 
ATOM     13  C   UNL     1      -4.966  -5.976   7.037  0.00  0.00    +0.001 A 
ATOM     14  C   UNL     1      -5.409  -7.225   6.642  0.00  0.00    +0.000 A 
ATOM     15  C   UNL     1      -5.183  -7.669   5.351  0.00  0.00    +0.001 A 
ATOM     16  C   UNL     1      -4.519  -6.865   4.448  0.00  0.00    +0.010 A 
ENDBRANCH   7  11
ENDBRANCH   2   5
BRANCH   1  19
ATOM     17  C   UNL     1       0.820   1.226  -0.222  0.00  0.00    +0.068 C 
ATOM     18  C   UNL     1      -0.010  -0.011   0.007  0.00  0.00    +0.063 C 
ATOM     19  N   UNL     1      -0.413  -0.310   1.204  0.00  0.00    -0.184 NA
BRANCH  18  20
ATOM     20  C   UNL     1      -0.364  -0.881  -1.129  0.00  0.00    -0.002 A 
ATOM     21  C   UNL     1      -1.646  -1.460  -1.192  0.00  0.00    +0.010 A 
ATOM     22  C   UNL     1      -1.996  -2.264  -2.227  0.00  0.00    +0.009 A 
ATOM     23  C   UNL     1      -1.073  -2.529  -3.256  0.00  0.00    -0.018 A 
ATOM     24  C   UNL     1      -1.413  -3.358  -4.338  0.00  0.00    +0.008 A 
ATOM     25  C   UNL     1      -0.499  -3.597  -5.319  0.00  0.00    +0.001 A 
ATOM     26  C   UNL     1       0.773  -3.029  -5.269  0.00  0.00    +0.001 A 
ATOM     27  C   UNL     1       1.139  -2.221  -4.237  0.00  0.00    +0.008 A 
ATOM     28  C   UNL     1       0.222  -1.952  -3.205  0.00  0.00    -0.017 A 
ATOM     29  C   UNL     1       0.564  -1.118  -2.130  0.00  0.00    +0.018 A 
ENDBRANCH  18  20
ENDBRANCH   1  19
TORSDOF 4
