REMARK  Name = ZINC35539337
REMARK  8 active torsions:
REMARK  status: ('A' for Active; 'I' for Inactive)
REMARK    1  A    between atoms: C_1  and  C_2
REMARK    2  A    between atoms: C_2  and  C_3
REMARK    3  A    between atoms: C_5  and  C_8
REMARK    4  A    between atoms: C_10  and  S_14
REMARK    5  A    between atoms: C_11  and  C_13
REMARK    6  A    between atoms: S_14  and  N_17
REMARK    7  A    between atoms: N_17  and  C_18
REMARK    8  A    between atoms: C_21  and  C_24
REMARK                            x       y       z     vdW  Elec       q    Type
REMARK                         _______ _______ _______ _____ _____    ______ ____
ROOT
ATOM      1  C   UNL     1       0.893  -1.598   4.643  0.00  0.00    +0.062 A 
ATOM      2  C   UNL     1       1.794  -2.030   5.580  0.00  0.00    +0.048 A 
ATOM      3  C   UNL     1       1.338  -2.350   6.838  0.00  0.00    +0.121 A 
ATOM      4  C   UNL     1       0.013  -2.229   7.113  0.00  0.00    +0.014 A 
ATOM      5  S   UNL     1      -0.638  -1.637   5.560  0.00  0.00    -0.088 S 
ATOM      6  C   UNL     1      -0.718  -2.515   8.399  0.00  0.00    +0.053 C 
ENDROOT
BRANCH   1   9
ATOM      7  C   UNL     1       0.731  -0.503   1.223  0.00  0.00    +0.227 A 
ATOM      8  N   UNL     1       0.188  -0.775   2.374  0.00  0.00    -0.191 NA
ATOM      9  C   UNL     1       1.129  -1.198   3.240  0.00  0.00    +0.209 A 
ATOM     10  N   UNL     1       2.291  -1.194   2.629  0.00  0.00    -0.056 NA
ATOM     11  O   UNL     1       2.046  -0.747   1.304  0.00  0.00    -0.338 OA
BRANCH   7  13
ATOM     12  C   UNL     1      -0.019   1.526   0.010  0.00  0.00    +0.014 C 
ATOM     13  C   UNL     1       0.002  -0.004   0.002  0.00  0.00    +0.095 C 
ENDBRANCH   7  13
ENDBRANCH   1   9
BRANCH   3  14
ATOM     14  S   UNL     1       2.458  -2.912   8.077  0.00  0.00    +0.092 S 
ATOM     15  O   UNL     1       1.886  -4.084   8.641  0.00  0.00    -0.148 OA
ATOM     16  O   UNL     1       3.752  -2.902   7.489  0.00  0.00    -0.148 OA
BRANCH  14  17
ATOM     17  N   UNL     1       2.475  -1.769   9.276  0.00  0.00    -0.098 NA
BRANCH  17  18
ATOM     18  C   UNL     1       3.283  -1.949  10.401  0.00  0.00    +0.074 A 
ATOM     19  C   UNL     1       4.078  -3.083  10.513  0.00  0.00    +0.027 A 
ATOM     20  C   UNL     1       4.876  -3.257  11.626  0.00  0.00    +0.005 A 
ATOM     21  C   UNL     1       4.884  -2.305  12.629  0.00  0.00    -0.050 A 
ATOM     22  C   UNL     1       4.094  -1.175  12.521  0.00  0.00    +0.005 A 
ATOM     23  C   UNL     1       3.298  -0.992  11.407  0.00  0.00    +0.027 A 
ATOM     24  C   UNL     1       5.756  -2.499  13.843  0.00  0.00    +0.044 C 
ENDBRANCH  17  18
ENDBRANCH  14  17
ENDBRANCH   3  14
TORSDOF 5
