REMARK  Name = ZINC23220639
REMARK  12 active torsions:
REMARK  status: ('A' for Active; 'I' for Inactive)
REMARK    1  A    between atoms: C_1  and  C_2
REMARK    2  A    between atoms: C_2  and  C_4
REMARK    3  A    between atoms: C_2  and  S_17
REMARK    4  A    between atoms: C_4  and  C_6
REMARK    5  A    between atoms: C_9  and  N_12
REMARK    6  A    between atoms: N_12  and  S_13
REMARK    7  A    between atoms: S_13  and  C_16
REMARK    8  A    between atoms: S_17  and  C_18
REMARK    9  A    between atoms: N_28  and  C_29
REMARK   10  A    between atoms: C_29  and  C_30
REMARK   11  A    between atoms: C_30  and  C_31
REMARK   12  A    between atoms: C_30  and  C_32
REMARK                            x       y       z     vdW  Elec       q    Type
REMARK                         _______ _______ _______ _____ _____    ______ ____
ROOT
ATOM      1  S   UNL     1      -1.771  -0.700   0.734  0.00  0.00    -0.076 S 
ENDROOT
BRANCH   1   2
ATOM      2  C   UNL     1      -2.575  -0.216  -0.757  0.00  0.00    +0.173 A 
ATOM      3  N   UNL     1      -1.884   0.444  -1.654  0.00  0.00    -0.223 NA
ATOM      4  C   UNL     1      -2.440   0.846  -2.821  0.00  0.00    +0.079 A 
ATOM      5  C   UNL     1      -1.703   1.550  -3.778  0.00  0.00    +0.030 A 
ATOM      6  C   UNL     1      -2.300   1.938  -4.944  0.00  0.00    +0.022 A 
ATOM      7  C   UNL     1      -3.634   1.643  -5.197  0.00  0.00    +0.042 A 
ATOM      8  C   UNL     1      -4.387   0.951  -4.273  0.00  0.00    +0.035 A 
ATOM      9  C   UNL     1      -3.797   0.545  -3.076  0.00  0.00    +0.066 A 
ATOM     10  C   UNL     1      -4.548  -0.196  -2.054  0.00  0.00    +0.262 A 
ATOM     11  O   UNL     1      -5.720  -0.484  -2.216  0.00  0.00    -0.267 OA
ATOM     12  N   UNL     1      -3.888  -0.552  -0.927  0.00  0.00    -0.287 N 
ATOM     13 CL   UNL     1      -4.360   2.152  -6.690  0.00  0.00    -0.084 Cl
BRANCH  12  14
ATOM     14  C   UNL     1      -4.589  -1.297   0.121  0.00  0.00    +0.130 C 
BRANCH  14  15
ATOM     15  C   UNL     1      -5.231  -0.314   1.103  0.00  0.00    +0.003 C 
ATOM     16  C   UNL     1      -6.315   0.491   0.385  0.00  0.00    +0.009 C 
ATOM     17  C   UNL     1      -5.856  -1.089   2.265  0.00  0.00    +0.009 C 
ENDBRANCH  14  15
ENDBRANCH  12  14
ENDBRANCH   1   2
BRANCH   1  19
ATOM     18  C   UNL     1      -0.111   1.462   0.506  0.00  0.00    +0.028 C 
ATOM     19  C   UNL     1      -0.081  -0.067   0.547  0.00  0.00    +0.122 C 
BRANCH  19  20
ATOM     20  C   UNL     1       0.758  -0.522   1.713  0.00  0.00    +0.176 C 
ATOM     21  O   UNL     1       0.230  -0.793   2.771  0.00  0.00    -0.291 OA
BRANCH  20  22
ATOM     22  C   UNL     1       2.213  -0.638   1.569  0.00  0.00    +0.019 A 
ATOM     23  C   UNL     1       2.826  -0.320   0.349  0.00  0.00    +0.013 A 
ATOM     24  C   UNL     1       4.181  -0.428   0.219  0.00  0.00    +0.025 A 
ATOM     25  C   UNL     1       4.954  -0.854   1.297  0.00  0.00    +0.048 A 
ATOM     26  C   UNL     1       4.349  -1.171   2.511  0.00  0.00    +0.025 A 
ATOM     27  C   UNL     1       2.995  -1.061   2.651  0.00  0.00    +0.013 A 
BRANCH  25  28
ATOM     28  N   UNL     1       6.332  -0.964   1.160  0.00  0.00    -0.221 N 
ATOM     29  H   UNL     1       6.743  -1.838   1.073  0.00  0.00    +0.173 HD
BRANCH  28  30
ATOM     30  S   UNL     1       7.273   0.399   1.147  0.00  0.00    +0.040 S 
ATOM     31  O   UNL     1       8.602  -0.080   0.988  0.00  0.00    -0.155 OA
ATOM     32  O   UNL     1       6.683   1.238   0.164  0.00  0.00    -0.155 OA
ATOM     33  C   UNL     1       7.065   1.126   2.796  0.00  0.00    +0.218 C 
ENDBRANCH  28  30
ENDBRANCH  25  28
ENDBRANCH  20  22
ENDBRANCH  19  20
ENDBRANCH   1  19
TORSDOF 8
