REMARK  Name = ZINC23038624
REMARK  11 active torsions:
REMARK  status: ('A' for Active; 'I' for Inactive)
REMARK    1  A    between atoms: C_1  and  C_2
REMARK    2  A    between atoms: C_2  and  C_3
REMARK    3  A    between atoms: C_2  and  C_4
REMARK    4  A    between atoms: C_4  and  C_6
REMARK    5  A    between atoms: C_4  and  N_16
REMARK    6  A    between atoms: C_17  and  C_19
REMARK    7  A    between atoms: C_19  and  N_20
REMARK    8  A    between atoms: N_20  and  C_21
REMARK    9  A    between atoms: N_20  and  C_22
REMARK   10  A    between atoms: C_22  and  C_23
REMARK   11  A    between atoms: N_25  and  C_26
REMARK                            x       y       z     vdW  Elec       q    Type
REMARK                         _______ _______ _______ _____ _____    ______ ____
ROOT
ATOM      1  N   UNL     1      -4.615  -0.164   0.949  0.00  0.00    -0.310 N 
ATOM      2  C   UNL     1      -5.618  -0.875   1.502  0.00  0.00    +0.197 C 
ATOM      3  O   UNL     1      -5.727  -2.058   1.259  0.00  0.00    -0.278 OA
ATOM      4  H   UNL     1      -4.516   0.909   1.169  0.00  0.00    +0.149 HD
ENDROOT
BRANCH   1   5
ATOM      5  C   UNL     1      -3.658  -0.820   0.055  0.00  0.00    +0.106 C 
BRANCH   5   6
ATOM      6  C   UNL     1      -2.359  -0.057   0.062  0.00  0.00    -0.023 A 
ATOM      7  C   UNL     1      -2.371   1.326   0.075  0.00  0.00    +0.009 A 
ATOM      8  C   UNL     1      -1.182   2.030   0.077  0.00  0.00    +0.050 A 
ATOM      9  C   UNL     1       0.028   1.351   0.073  0.00  0.00    +0.162 A 
ATOM     10  C   UNL     1       0.040  -0.039   0.062  0.00  0.00    +0.162 A 
ATOM     11  C   UNL     1      -1.157  -0.739   0.056  0.00  0.00    +0.055 A 
ATOM     12  O   UNL     1       1.215  -0.725   0.058  0.00  0.00    -0.485 OA
ATOM     13  C   UNL     1       2.387   0.008  -0.314  0.00  0.00    +0.270 C 
ATOM     14  C   UNL     1       2.377   1.345   0.441  0.00  0.00    +0.270 C 
ATOM     15  O   UNL     1       1.191   2.058   0.074  0.00  0.00    -0.485 OA
ENDBRANCH   5   6
BRANCH   5  17
ATOM     16  C   UNL     1      -3.225  -1.535  -2.300  0.00  0.00    +0.009 C 
ATOM     17  C   UNL     1      -4.225  -0.850  -1.366  0.00  0.00    +0.008 C 
ATOM     18  C   UNL     1      -5.544  -1.625  -1.373  0.00  0.00    +0.009 C 
ENDBRANCH   5  17
ENDBRANCH   1   5
BRANCH   2  19
ATOM     19  C   UNL     1      -6.602  -0.200   2.422  0.00  0.00    +0.019 C 
BRANCH  19  20
ATOM     20  N   UNL     1      -7.589  -1.183   2.889  0.00  0.00    +0.389 N 
ATOM     21  C   UNL     1      -8.421  -1.662   1.777  0.00  0.00    -0.095 C 
ATOM     22  H   UNL     1      -7.041  -2.045   3.297  0.00  0.00    -0.081 HD
BRANCH  20  23
ATOM     23  C   UNL     1      -8.419  -0.625   3.965  0.00  0.00    +0.019 C 
BRANCH  23  24
ATOM     24  C   UNL     1      -9.245  -1.723   4.583  0.00  0.00    +0.201 C 
ATOM     25  O   UNL     1      -9.152  -2.859   4.168  0.00  0.00    -0.278 OA
ATOM     26  N   UNL     1     -10.087  -1.444   5.597  0.00  0.00    -0.286 N 
ATOM     27  H   UNL     1     -10.118  -0.430   6.023  0.00  0.00    +0.155 HD
BRANCH  26  28
ATOM     28  C   UNL     1     -10.923  -2.443   6.109  0.00  0.00    +0.047 A 
ATOM     29  C   UNL     1     -10.481  -3.759   6.164  0.00  0.00    +0.024 A 
ATOM     30  C   UNL     1     -11.307  -4.742   6.673  0.00  0.00    +0.002 A 
ATOM     31  C   UNL     1     -12.575  -4.420   7.119  0.00  0.00    +0.001 A 
ATOM     32  C   UNL     1     -13.020  -3.112   7.062  0.00  0.00    +0.017 A 
ATOM     33  C   UNL     1     -12.198  -2.122   6.558  0.00  0.00    +0.039 A 
ATOM     34 BR   UNL     1     -12.808  -0.334   6.478  0.00  0.00    -0.048 Br
ENDBRANCH  26  28
ENDBRANCH  23  24
ENDBRANCH  20  23
ENDBRANCH  19  20
ENDBRANCH   2  19
TORSDOF 8
