REMARK  Name = ZINC07988983
REMARK  11 active torsions:
REMARK  status: ('A' for Active; 'I' for Inactive)
REMARK    1  A    between atoms: C_1  and  C_2
REMARK    2  A    between atoms: C_2  and  C_3
REMARK    3  A    between atoms: C_3  and  C_4
REMARK    4  A    between atoms: C_4  and  N_5
REMARK    5  A    between atoms: C_6  and  N_30
REMARK    6  A    between atoms: C_7  and  N_14
REMARK    7  A    between atoms: N_14  and  C_15
REMARK    8  A    between atoms: C_16  and  C_18
REMARK    9  A    between atoms: C_22  and  N_23
REMARK   10  A    between atoms: C_24  and  C_29
REMARK   11  A    between atoms: C_27  and  C_28
REMARK                            x       y       z     vdW  Elec       q    Type
REMARK                         _______ _______ _______ _____ _____    ______ ____
ROOT
ATOM      1  N   UNL     1       1.338   0.408   0.055  0.00  0.00    -0.280 N 
ATOM      2  C   UNL     1       1.283   1.774   0.206  0.00  0.00    +0.127 A 
ATOM      3  C   UNL     1       1.987   2.576  -0.669  0.00  0.00    +0.140 A 
ATOM      4  C   UNL     1       2.741   1.970  -1.690  0.00  0.00    +0.277 A 
ATOM      5  O   UNL     1       3.372   2.655  -2.477  0.00  0.00    -0.266 OA
ATOM      6  N   UNL     1       2.761   0.627  -1.794  0.00  0.00    -0.273 N 
ATOM      7  H   UNL     1       3.296   0.195  -2.520  0.00  0.00    +0.173 HD
ATOM      8  C   UNL     1       2.068  -0.140  -0.933  0.00  0.00    +0.331 A 
ATOM      9  O   UNL     1       2.104  -1.350  -1.049  0.00  0.00    -0.246 OA
ENDROOT
BRANCH   3  10
ATOM     10  N   UNL     1       1.951   3.982  -0.541  0.00  0.00    -0.263 N 
ATOM     11  C   UNL     1       0.677   4.695  -0.660  0.00  0.00    +0.139 C 
ATOM     12  C   UNL     1       3.088   4.667  -0.310  0.00  0.00    +0.253 C 
ATOM     13  O   UNL     1       4.156   4.084  -0.290  0.00  0.00    -0.270 OA
BRANCH  12  14
ATOM     14  C   UNL     1       3.038   6.116  -0.082  0.00  0.00    +0.068 A 
ATOM     15  C   UNL     1       2.403   7.008  -1.021  0.00  0.00    +0.023 A 
ATOM     16  C   UNL     1       2.405   8.319  -0.720  0.00  0.00    +0.048 A 
ATOM     17  S   UNL     1       3.276   8.381   0.832  0.00  0.00    -0.078 S 
ATOM     18  C   UNL     1       3.605   6.695   1.046  0.00  0.00    +0.097 A 
BRANCH  18  19
ATOM     19  N   UNL     1       4.275   6.071   2.093  0.00  0.00    -0.311 N 
ATOM     20  C   UNL     1       3.803   5.019   2.827  0.00  0.00    +0.021 A 
ATOM     21  C   UNL     1       4.736   4.694   3.744  0.00  0.00    +0.023 A 
ATOM     22  C   UNL     1       5.820   5.581   3.580  0.00  0.00    +0.023 A 
ATOM     23  C   UNL     1       5.512   6.412   2.564  0.00  0.00    +0.021 A 
ATOM     24  C   UNL     1       6.382   7.525   2.038  0.00  0.00    +0.064 C 
ATOM     25  C   UNL     1       2.472   4.338   2.641  0.00  0.00    +0.064 C 
ENDBRANCH  18  19
ENDBRANCH  12  14
ENDBRANCH   3  10
BRANCH   2  26
ATOM     26  N   UNL     1       0.532   2.334   1.212  0.00  0.00    -0.343 N 
ATOM     27  H   UNL     1      -0.038   1.773   1.760  0.00  0.00    +0.144 HD
ATOM     28  H   UNL     1       0.572   3.289   1.373  0.00  0.00    +0.144 HD
ENDBRANCH   2  26
BRANCH   1  29
ATOM     29  C   UNL     1       0.596  -0.456   0.977  0.00  0.00    +0.128 C 
BRANCH  29  30
ATOM     30  C   UNL     1      -0.808  -0.707   0.422  0.00  0.00    +0.021 C 
BRANCH  30  32
ATOM     31  C   UNL     1      -2.987  -1.860   0.830  0.00  0.00    +0.004 C 
ATOM     32  C   UNL     1      -1.583  -1.609   1.385  0.00  0.00    -0.002 C 
ENDBRANCH  30  32
ENDBRANCH  29  30
ENDBRANCH   1  29
TORSDOF 7
