REMARK  Name = ZINC03535667
REMARK  7 active torsions:
REMARK  status: ('A' for Active; 'I' for Inactive)
REMARK    1  A    between atoms: C_1  and  C_2
REMARK    2  A    between atoms: C_5  and  N_9
REMARK    3  A    between atoms: C_7  and  C_8
REMARK    4  A    between atoms: C_18  and  S_19
REMARK    5  A    between atoms: S_19  and  C_20
REMARK    6  A    between atoms: C_20  and  C_22
REMARK    7  A    between atoms: C_20  and  C_23
REMARK                            x       y       z     vdW  Elec       q    Type
REMARK                         _______ _______ _______ _____ _____    ______ ____
ROOT
ATOM      1  N   UNL     1      -0.957   3.662   0.030  0.00  0.00    -0.255 N 
ATOM      2  C   UNL     1      -1.028   2.504  -0.652  0.00  0.00    +0.268 A 
ATOM      3  O   UNL     1      -2.044   2.203  -1.254  0.00  0.00    -0.267 OA
ATOM      4  C   UNL     1       0.105   1.630  -0.659  0.00  0.00    +0.076 A 
ATOM      5  C   UNL     1       0.246   0.334  -1.325  0.00  0.00    -0.023 A 
ATOM      6  C   UNL     1       1.427  -0.301  -1.184  0.00  0.00    -0.004 A 
ATOM      7  S   UNL     1       2.409   0.772  -0.172  0.00  0.00    -0.073 S 
ATOM      8  C   UNL     1       1.227   2.075   0.060  0.00  0.00    +0.117 A 
ATOM      9  N   UNL     1       1.236   3.233   0.710  0.00  0.00    -0.215 NA
ATOM     10  C   UNL     1       0.177   4.018   0.705  0.00  0.00    +0.178 A 
ATOM     11  C   UNL     1       1.819  -1.628  -1.761  0.00  0.00    +0.043 C 
ATOM     12  C   UNL     1       0.547  -2.344  -2.237  0.00  0.00    +0.005 C 
ATOM     13  C   UNL     1      -0.291  -1.361  -3.060  0.00  0.00    +0.005 C 
ATOM     14  C   UNL     1      -0.881  -0.288  -2.145  0.00  0.00    +0.037 C 
ENDROOT
BRANCH   1  19
ATOM     15  C   UNL     1      -5.442   7.138   0.090  0.00  0.00    +0.044 C 
ATOM     16  C   UNL     1      -4.251   6.215   0.074  0.00  0.00    -0.047 A 
ATOM     17  C   UNL     1      -4.117   5.243   1.050  0.00  0.00    +0.005 A 
ATOM     18  C   UNL     1      -3.030   4.393   1.035  0.00  0.00    +0.026 A 
ATOM     19  C   UNL     1      -2.064   4.520   0.045  0.00  0.00    +0.052 A 
ATOM     20  C   UNL     1      -2.201   5.496  -0.933  0.00  0.00    +0.030 A 
ATOM     21  C   UNL     1      -3.294   6.340  -0.916  0.00  0.00    -0.046 A 
ATOM     22  C   UNL     1      -3.444   7.399  -1.977  0.00  0.00    +0.044 C 
ENDBRANCH   1  19
BRANCH  10  23
ATOM     23  S   UNL     1       0.225   5.548   1.578  0.00  0.00    -0.075 S 
BRANCH  23  24
ATOM     24  C   UNL     1       1.906   5.477   2.245  0.00  0.00    +0.137 C 
ATOM     25  C   UNL     1       2.913   5.514   1.093  0.00  0.00    +0.029 C 
BRANCH  24  26
ATOM     26  C   UNL     1       2.137   6.658   3.152  0.00  0.00    +0.233 C 
ATOM     27  O   UNL     1       1.430   7.639   3.062  0.00  0.00    -0.274 OA
ATOM     28  N   UNL     1       3.130   6.624   4.063  0.00  0.00    -0.239 N 
ATOM     29  C   UNL     1       3.336   7.680   4.874  0.00  0.00    +0.303 C 
ATOM     30  O   UNL     1       2.627   8.664   4.784  0.00  0.00    -0.253 OA
ATOM     31  N   UNL     1       4.329   7.646   5.786  0.00  0.00    -0.313 N 
ATOM     32  H   UNL     1       3.771   5.734   4.145  0.00  0.00    +0.159 HD
ATOM     33  H   UNL     1       4.497   8.508   6.448  0.00  0.00    +0.146 HD
ATOM     34  H   UNL     1       4.970   6.756   5.867  0.00  0.00    +0.146 HD
ENDBRANCH  24  26
ENDBRANCH  23  24
ENDBRANCH  10  23
TORSDOF 4
