REMARK  Name = ZINC13206311
REMARK  9 active torsions:
REMARK  status: ('A' for Active; 'I' for Inactive)
REMARK    1  A    between atoms: C_1  and  C_2
REMARK    2  A    between atoms: C_6  and  C_8
REMARK    3  A    between atoms: C_11  and  S_17
REMARK    4  A    between atoms: N_12  and  C_13
REMARK    5  A    between atoms: C_13  and  C_14
REMARK    6  A    between atoms: S_17  and  C_18
REMARK    7  A    between atoms: C_18  and  C_19
REMARK    8  A    between atoms: N_21  and  C_22
REMARK    9  A    between atoms: N_21  and  C_30
REMARK                            x       y       z     vdW  Elec       q    Type
REMARK                         _______ _______ _______ _____ _____    ______ ____
ROOT
ATOM      1  S   UNL     1       0.373  -6.164   4.668  0.00  0.00    -0.077 S 
ENDROOT
BRANCH   1   5
ATOM      2  C   UNL     1       0.105  -2.868   2.587  0.00  0.00    +0.165 A 
ATOM      3  N   UNL     1      -0.079  -2.448   3.817  0.00  0.00    -0.128 NA
ATOM      4  N   UNL     1      -0.017  -3.439   4.633  0.00  0.00    -0.122 NA
ATOM      5  C   UNL     1       0.209  -4.553   3.973  0.00  0.00    +0.193 A 
ATOM      6  N   UNL     1       0.290  -4.230   2.649  0.00  0.00    -0.291 N 
BRANCH   2  12
ATOM      7  C   UNL     1      -1.133   1.358   0.241  0.00  0.00    +0.044 C 
ATOM      8  C   UNL     1      -0.488  -0.004   0.231  0.00  0.00    -0.050 A 
ATOM      9  C   UNL     1       0.107  -0.478  -0.925  0.00  0.00    +0.003 A 
ATOM     10  C   UNL     1       0.701  -1.727  -0.942  0.00  0.00    +0.001 A 
ATOM     11  C   UNL     1       0.704  -2.509   0.196  0.00  0.00    +0.011 A 
ATOM     12  C   UNL     1       0.106  -2.036   1.365  0.00  0.00    +0.020 A 
ATOM     13  C   UNL     1      -0.487  -0.772   1.377  0.00  0.00    +0.015 A 
ENDBRANCH   2  12
BRANCH   6  14
ATOM     14  C   UNL     1       0.526  -5.144   1.528  0.00  0.00    +0.250 C 
BRANCH  14  15
ATOM     15  C   UNL     1       2.009  -5.332   1.337  0.00  0.00    +0.375 C 
ATOM     16  O   UNL     1       2.796  -4.756   2.070  0.00  0.00    -0.244 OA
ATOM     17  O   UNL     1       2.422  -6.059   0.450  0.00  0.00    -0.244 OA
ENDBRANCH  14  15
ENDBRANCH   6  14
ENDBRANCH   1   5
BRANCH   1  18
ATOM     18  C   UNL     1       0.156  -5.898   6.449  0.00  0.00    +0.173 C 
BRANCH  18  19
ATOM     19  C   UNL     1       0.274  -7.215   7.172  0.00  0.00    +0.226 C 
ATOM     20  O   UNL     1       0.573  -8.218   6.560  0.00  0.00    -0.275 OA
ATOM     21  N   UNL     1       0.046  -7.278   8.499  0.00  0.00    -0.293 N 
BRANCH  21  22
ATOM     22  C   UNL     1       0.065  -8.573   9.184  0.00  0.00    +0.099 C 
ATOM     23  C   UNL     1       1.434  -9.245   8.988  0.00  0.00    +0.046 C 
ATOM     24  C   UNL     1       1.361 -10.728   9.425  0.00  0.00    +0.168 C 
ATOM     25  S   UNL     1      -0.404 -11.149   9.130  0.00  0.00    -0.029 S 
ATOM     26  O   UNL     1      -1.014 -11.480  10.370  0.00  0.00    -0.174 OA
ATOM     27  O   UNL     1      -0.486 -12.063   8.045  0.00  0.00    -0.174 OA
ATOM     28  C   UNL     1      -1.023  -9.504   8.577  0.00  0.00    +0.188 C 
ENDBRANCH  21  22
BRANCH  21  29
ATOM     29  C   UNL     1      -0.220  -6.052   9.256  0.00  0.00    +0.076 C 
ATOM     30  C   UNL     1       0.876  -5.840  10.320  0.00  0.00    +0.022 C 
ATOM     31  C   UNL     1       0.116  -5.256  11.537  0.00  0.00    +0.002 C 
ATOM     32  C   UNL     1      -1.219  -6.042  11.515  0.00  0.00    +0.002 C 
ATOM     33  C   UNL     1      -1.552  -6.180  10.015  0.00  0.00    +0.022 C 
ENDBRANCH  21  29
ENDBRANCH  18  19
ENDBRANCH   1  18
TORSDOF 8
