REMARK  Name = ZINC08672652
REMARK  6 active torsions:
REMARK  status: ('A' for Active; 'I' for Inactive)
REMARK    1  A    between atoms: C_1  and  C_2
REMARK    2  A    between atoms: C_5  and  C_8
REMARK    3  A    between atoms: C_15  and  N_66
REMARK    4  A    between atoms: C_27  and  N_29
REMARK    5  A    between atoms: N_29  and  S_30
REMARK    6  A    between atoms: S_30  and  C_33
REMARK                            x       y       z     vdW  Elec       q    Type
REMARK                         _______ _______ _______ _____ _____    ______ ____
ROOT
ATOM      1  C   UNL     1      -2.597   3.724  -0.334  0.00  0.00    -0.014 C 
ATOM      2  C   UNL     1      -3.869   2.994   0.022  0.00  0.00    -0.051 A 
ATOM      3  C   UNL     1      -4.296   1.706  -0.089  0.00  0.00    +0.003 A 
ATOM      4  C   UNL     1      -5.571   1.345   0.350  0.00  0.00    +0.001 A 
ATOM      5  C   UNL     1      -6.435   2.246   0.902  0.00  0.00    +0.008 A 
ATOM      6  C   UNL     1      -6.026   3.588   1.036  0.00  0.00    -0.017 A 
ATOM      7  C   UNL     1      -4.737   3.926   0.585  0.00  0.00    -0.012 A 
ATOM      8  C   UNL     1      -4.229   5.219   0.663  0.00  0.00    -0.022 A 
ATOM      9  C   UNL     1      -5.022   6.186   1.201  0.00  0.00    +0.006 A 
ATOM     10  C   UNL     1      -6.305   5.873   1.657  0.00  0.00    +0.001 A 
ATOM     11  C   UNL     1      -6.817   4.610   1.586  0.00  0.00    +0.008 A 
ATOM     12  C   UNL     1      -2.834   5.191   0.087  0.00  0.00    +0.098 C 
ENDROOT
BRANCH   1  20
ATOM     13  C   UNL     1       2.000   1.022   0.693  0.00  0.00    +0.246 C 
ATOM     14  O   UNL     1       3.073   1.562   0.510  0.00  0.00    -0.270 OA
ATOM     15  N   UNL     1       0.901   1.768   0.922  0.00  0.00    -0.301 N 
ATOM     16  C   UNL     1       0.951   3.235   0.826  0.00  0.00    +0.089 C 
ATOM     17  C   UNL     1      -0.188   3.706  -0.084  0.00  0.00    -0.059 C 
ATOM     18  C   UNL     1      -1.469   1.691   0.343  0.00  0.00    -0.059 C 
ATOM     19  C   UNL     1      -0.382   1.138   1.271  0.00  0.00    +0.089 C 
ATOM     20  N   UNL     1      -1.464   3.168   0.435  0.00  0.00    +0.388 N 
ATOM     21  H   UNL     1      -1.565   3.440   1.420  0.00  0.00    -0.081 HD
BRANCH  13  26
ATOM     22  C   UNL     1       1.607  -4.718   0.583  0.00  0.00    +0.044 C 
ATOM     23  C   UNL     1       1.710  -3.215   0.611  0.00  0.00    -0.050 A 
ATOM     24  C   UNL     1       2.855  -2.612   1.101  0.00  0.00    +0.004 A 
ATOM     25  C   UNL     1       2.956  -1.236   1.130  0.00  0.00    +0.013 A 
ATOM     26  C   UNL     1       1.899  -0.453   0.664  0.00  0.00    +0.037 A 
ATOM     27  C   UNL     1       0.745  -1.067   0.176  0.00  0.00    +0.013 A 
ATOM     28  C   UNL     1       0.659  -2.443   0.148  0.00  0.00    +0.004 A 
ENDBRANCH  13  26
ENDBRANCH   1  20
BRANCH  12  29
ATOM     29  N   UNL     1      -1.856   5.592   1.101  0.00  0.00    -0.184 NA
ATOM     30  H   UNL     1      -1.651   4.998   1.840  0.00  0.00    +0.149 HD
BRANCH  29  31
ATOM     31  S   UNL     1      -1.099   7.061   0.986  0.00  0.00    +0.059 S 
ATOM     32  O   UNL     1      -0.243   7.166   2.115  0.00  0.00    -0.153 OA
ATOM     33  O   UNL     1      -0.619   7.167  -0.347  0.00  0.00    -0.153 OA
BRANCH  31  34
ATOM     34  C   UNL     1      -2.337   8.301   1.175  0.00  0.00    +0.105 A 
ATOM     35  C   UNL     1      -2.999   8.791   0.066  0.00  0.00    +0.028 A 
ATOM     36  C   UNL     1      -3.974   9.761   0.215  0.00  0.00    +0.002 A 
ATOM     37  C   UNL     1      -4.279  10.246   1.473  0.00  0.00    +0.000 A 
ATOM     38  C   UNL     1      -3.613   9.759   2.582  0.00  0.00    +0.002 A 
ATOM     39  C   UNL     1      -2.642   8.786   2.433  0.00  0.00    +0.028 A 
ENDBRANCH  31  34
ENDBRANCH  29  31
ENDBRANCH  12  29
TORSDOF 5
