REMARK  Name = ZINC00714784
REMARK  11 active torsions:
REMARK  status: ('A' for Active; 'I' for Inactive)
REMARK    1  A    between atoms: C_1  and  O_2
REMARK    2  A    between atoms: O_2  and  C_3
REMARK    3  A    between atoms: C_5  and  C_13
REMARK    4  A    between atoms: C_7  and  O_11
REMARK    5  A    between atoms: C_8  and  O_9
REMARK    6  A    between atoms: O_9  and  C_10
REMARK    7  A    between atoms: O_11  and  C_12
REMARK    8  A    between atoms: C_15  and  C_37
REMARK    9  A    between atoms: C_16  and  N_36
REMARK   10  A    between atoms: N_17  and  C_25
REMARK   11  A    between atoms: C_26  and  C_34
REMARK                            x       y       z     vdW  Elec       q    Type
REMARK                         _______ _______ _______ _____ _____    ______ ____
ROOT
ATOM      1  C   UNL     1       2.529  -0.265   2.923  0.00  0.00    +0.098 C 
ATOM      2  C   UNL     1       2.279  -1.720   3.187  0.00  0.00    +0.077 C 
ATOM      3  C   UNL     1       1.251  -2.376   2.590  0.00  0.00    +0.107 C 
ATOM      4  N   UNL     1       0.420  -1.708   1.718  0.00  0.00    -0.253 N 
ATOM      5  C   UNL     1       0.822  -0.534   1.134  0.00  0.00    +0.025 C 
ATOM      6  C   UNL     1       1.828   0.190   1.668  0.00  0.00    +0.025 C 
ATOM      7  C   UNL     1       2.250   1.393   1.074  0.00  0.00    +0.162 C 
ATOM      8  O   UNL     1       3.172   2.011   1.569  0.00  0.00    -0.292 OA
ATOM      9  C   UNL     1       1.581   1.929  -0.162  0.00  0.00    +0.080 C 
ATOM     10  C   UNL     1       0.125   1.450  -0.187  0.00  0.00    +0.014 C 
ATOM     11  C   UNL     1       0.117  -0.079  -0.120  0.00  0.00    +0.052 C 
ENDROOT
BRANCH   4  12
ATOM     12  C   UNL     1      -0.836  -2.226   1.428  0.00  0.00    +0.095 A 
ATOM     13  C   UNL     1      -1.186  -3.132   0.438  0.00  0.00    +0.084 A 
ATOM     14  C   UNL     1      -2.582  -3.521   0.346  0.00  0.00    -0.018 A 
ATOM     15  C   UNL     1      -3.402  -2.936   1.248  0.00  0.00    -0.004 A 
ATOM     16  S   UNL     1      -2.345  -1.893   2.211  0.00  0.00    -0.076 S 
ATOM     17  C   UNL     1      -4.880  -3.138   1.388  0.00  0.00    +0.043 C 
ATOM     18  C   UNL     1      -5.397  -3.824   0.116  0.00  0.00    +0.005 C 
ATOM     19  C   UNL     1      -4.487  -5.012  -0.210  0.00  0.00    +0.005 C 
ATOM     20  C   UNL     1      -3.122  -4.508  -0.682  0.00  0.00    +0.037 C 
BRANCH  13  21
ATOM     21  C   UNL     1      -0.206  -3.668  -0.459  0.00  0.00    +0.102 C 
ATOM     22  N   UNL     1       0.571  -4.093  -1.170  0.00  0.00    -0.191 NA
ENDBRANCH  13  21
ENDBRANCH   4  12
BRANCH   1  25
ATOM     23  C   UNL     1       2.444   2.056   5.905  0.00  0.00    +0.165 A 
ATOM     24  C   UNL     1       2.904   1.311   4.830  0.00  0.00    +0.054 A 
ATOM     25  C   UNL     1       2.024   0.542   4.091  0.00  0.00    -0.028 A 
ATOM     26  C   UNL     1       0.681   0.517   4.418  0.00  0.00    +0.054 A 
ATOM     27  C   UNL     1       0.214   1.254   5.495  0.00  0.00    +0.165 A 
ATOM     28  C   UNL     1       1.095   2.029   6.240  0.00  0.00    +0.204 A 
BRANCH  23  30
ATOM     29  C   UNL     1       4.682   2.791   6.230  0.00  0.00    +0.277 C 
ATOM     30  O   UNL     1       3.311   2.812   6.631  0.00  0.00    -0.491 OA
ENDBRANCH  23  30
BRANCH  28  31
ATOM     31  O   UNL     1       0.639   2.759   7.294  0.00  0.00    -0.488 OA
ATOM     32  C   UNL     1       0.209   4.094   7.021  0.00  0.00    +0.277 C 
ENDBRANCH  28  31
BRANCH  27  33
ATOM     33  O   UNL     1      -1.107   1.224   5.819  0.00  0.00    -0.491 OA
ATOM     34  C   UNL     1      -1.955   0.407   5.010  0.00  0.00    +0.277 C 
ENDBRANCH  27  33
ENDBRANCH   1  25
BRANCH   3  35
ATOM     35  N   UNL     1       1.039  -3.708   2.855  0.00  0.00    -0.345 N 
ATOM     36  H   UNL     1       1.673  -4.201   3.399  0.00  0.00    +0.144 HD
ATOM     37  H   UNL     1       0.256  -4.155   2.498  0.00  0.00    +0.144 HD
ENDBRANCH   3  35
BRANCH   2  38
ATOM     38  C   UNL     1       3.140  -2.431   4.085  0.00  0.00    +0.099 C 
ATOM     39  N   UNL     1       3.822  -2.995   4.796  0.00  0.00    -0.191 NA
ENDBRANCH   2  38
TORSDOF 8
