REMARK  Name = ZINC63374848
REMARK  11 active torsions:
REMARK  status: ('A' for Active; 'I' for Inactive)
REMARK    1  A    between atoms: C_1  and  C_2
REMARK    2  A    between atoms: C_2  and  C_4
REMARK    3  A    between atoms: C_2  and  C_34
REMARK    4  A    between atoms: C_4  and  N_5
REMARK    5  A    between atoms: C_6  and  C_8
REMARK    6  A    between atoms: C_8  and  C_10
REMARK    7  A    between atoms: C_8  and  N_14
REMARK    8  A    between atoms: C_10  and  C_11
REMARK    9  A    between atoms: C_11  and  C_12
REMARK   10  A    between atoms: C_11  and  C_13
REMARK   11  A    between atoms: C_17  and  C_33
REMARK                            x       y       z     vdW  Elec       q    Type
REMARK                         _______ _______ _______ _____ _____    ______ ____
ROOT
ATOM      1  N   UNL     1       5.214  -0.351  -3.502  0.00  0.00    -0.212 N 
ATOM      2  C   UNL     1       6.207  -1.264  -3.502  0.00  0.00    +0.249 C 
ATOM      3  O   UNL     1       6.621  -1.896  -2.554  0.00  0.00    -0.273 OA
ATOM      4  C   UNL     1       6.695  -1.336  -4.932  0.00  0.00    +0.136 C 
ATOM      5  C   UNL     1       8.178  -0.980  -5.014  0.00  0.00    +0.139 C 
ATOM      6  C   UNL     1       8.284   0.361  -5.726  0.00  0.00    -0.034 C 
ATOM      7  C   UNL     1       8.957   1.165  -4.905  0.00  0.00    -0.001 A 
ATOM      8  C   UNL     1       9.423   2.552  -5.063  0.00  0.00    +0.010 A 
ATOM      9  C   UNL     1      10.085   3.085  -4.002  0.00  0.00    +0.001 A 
ATOM     10  C   UNL     1      10.326   2.385  -2.815  0.00  0.00    +0.002 A 
ATOM     11  C   UNL     1       9.938   1.105  -2.586  0.00  0.00    +0.026 A 
ATOM     12  C   UNL     1       9.236   0.436  -3.631  0.00  0.00    +0.043 A 
ATOM     13  N   UNL     1       8.769  -0.791  -3.687  0.00  0.00    -0.375 N 
ATOM     14  C   UNL     1       7.653   0.649  -7.065  0.00  0.00    +0.052 C 
ATOM     15  C   UNL     1       6.175   0.221  -6.968  0.00  0.00    +0.115 C 
ATOM     16  N   UNL     1       5.935  -0.263  -5.605  0.00  0.00    -0.269 N 
ATOM     17  C   UNL     1       5.037   0.187  -4.717  0.00  0.00    +0.313 C 
ATOM     18  O   UNL     1       4.167   0.993  -4.981  0.00  0.00    -0.252 OA
ATOM     19  C   UNL     1       6.400  -2.703  -5.553  0.00  0.00    +0.044 C 
ATOM     20  H   UNL     1       8.802  -1.456  -2.981  0.00  0.00    +0.160 HD
ENDROOT
BRANCH   1  21
ATOM     21  C   UNL     1       4.422   0.004  -2.322  0.00  0.00    +0.171 C 
BRANCH  21  23
ATOM     22  N   UNL     1       2.072  -0.188  -1.572  0.00  0.00    -0.313 N 
ATOM     23  C   UNL     1       2.990  -0.415  -2.533  0.00  0.00    +0.234 C 
ATOM     24  O   UNL     1       2.663  -0.958  -3.567  0.00  0.00    -0.274 OA
ATOM     25  H   UNL     1       2.334   0.245  -0.745  0.00  0.00    +0.149 HD
BRANCH  22  26
ATOM     26  C   UNL     1       0.680  -0.596  -1.777  0.00  0.00    +0.112 C 
BRANCH  26  28
ATOM     27  C   UNL     1      -0.189   1.297  -0.398  0.00  0.00    +0.014 C 
ATOM     28  C   UNL     1      -0.147  -0.225  -0.545  0.00  0.00    +0.033 C 
BRANCH  28  29
ATOM     29  C   UNL     1      -1.549  -0.753  -0.704  0.00  0.00    -0.043 A 
ATOM     30  C   UNL     1      -2.327  -0.341  -1.770  0.00  0.00    +0.004 A 
ATOM     31  C   UNL     1      -3.613  -0.825  -1.915  0.00  0.00    +0.000 A 
ATOM     32  C   UNL     1      -4.122  -1.722  -0.995  0.00  0.00    +0.000 A 
ATOM     33  C   UNL     1      -3.345  -2.136   0.070  0.00  0.00    +0.000 A 
ATOM     34  C   UNL     1      -2.057  -1.655   0.214  0.00  0.00    +0.004 A 
ENDBRANCH  28  29
ENDBRANCH  26  28
ENDBRANCH  22  26
ENDBRANCH  21  23
BRANCH  21  35
ATOM     35  C   UNL     1       4.483   1.517  -2.103  0.00  0.00    +0.035 C 
BRANCH  35  36
ATOM     36  C   UNL     1       5.927   1.933  -1.816  0.00  0.00    -0.015 C 
ATOM     37  C   UNL     1       6.013   3.459  -1.743  0.00  0.00    +0.007 C 
ATOM     38  C   UNL     1       6.375   1.333  -0.481  0.00  0.00    +0.007 C 
ENDBRANCH  35  36
ENDBRANCH  21  35
ENDBRANCH   1  21
TORSDOF 7
