REMARK  Name = ZINC54617700
REMARK  13 active torsions:
REMARK  status: ('A' for Active; 'I' for Inactive)
REMARK    1  A    between atoms: C_1  and  C_2
REMARK    2  A    between atoms: C_2  and  C_3
REMARK    3  A    between atoms: C_3  and  S_4
REMARK    4  A    between atoms: S_4  and  C_5
REMARK    5  A    between atoms: C_10  and  C_27
REMARK    6  A    between atoms: C_12  and  C_16
REMARK    7  A    between atoms: C_13  and  C_15
REMARK    8  A    between atoms: N_18  and  C_19
REMARK    9  A    between atoms: C_23  and  C_26
REMARK   10  A    between atoms: C_24  and  C_25
REMARK   11  A    between atoms: C_30  and  C_33
REMARK   12  A    between atoms: C_33  and  O_35
REMARK   13  A    between atoms: O_35  and  C_36
REMARK                            x       y       z     vdW  Elec       q    Type
REMARK                         _______ _______ _______ _____ _____    ______ ____
ROOT
ATOM      1  C   UNL     1       1.432  -2.750  -2.832  0.00  0.00    +0.210 A 
ATOM      2  N   UNL     1       1.964  -1.878  -3.701  0.00  0.00    -0.187 NA
ATOM      3  C   UNL     1       2.547  -2.529  -4.670  0.00  0.00    +0.219 A 
ATOM      4  N   UNL     1       2.402  -3.856  -4.434  0.00  0.00    -0.220 N 
ATOM      5  N   UNL     1       1.683  -3.974  -3.246  0.00  0.00    -0.141 NA
ATOM      6  C   UNL     1       2.939  -4.896  -5.308  0.00  0.00    +0.177 C 
ATOM      7  C   UNL     1       3.386  -4.278  -6.606  0.00  0.00    +0.060 C 
ATOM      8  C   UNL     1       3.508  -2.955  -6.783  0.00  0.00    +0.018 C 
ATOM      9  N   UNL     1       3.220  -2.053  -5.788  0.00  0.00    -0.287 N 
ATOM     10  C   UNL     1       3.976  -2.439  -8.120  0.00  0.00    +0.061 C 
ATOM     11  H   UNL     1       3.477  -1.121  -5.863  0.00  0.00    +0.155 HD
ENDROOT
BRANCH   6  12
ATOM     12  C   UNL     1       4.113  -5.559  -4.636  0.00  0.00    -0.018 A 
ATOM     13  C   UNL     1       5.220  -4.807  -4.282  0.00  0.00    +0.007 A 
ATOM     14  C   UNL     1       6.298  -5.409  -3.667  0.00  0.00    +0.015 A 
ATOM     15  C   UNL     1       6.272  -6.779  -3.402  0.00  0.00    +0.059 A 
ATOM     16  C   UNL     1       5.152  -7.532  -3.762  0.00  0.00    +0.015 A 
ATOM     17  C   UNL     1       4.078  -6.917  -4.371  0.00  0.00    +0.007 A 
BRANCH  15  18
ATOM     18  C   UNL     1       7.423  -7.430  -2.744  0.00  0.00    +0.339 C 
ATOM     19  O   UNL     1       8.396  -6.772  -2.432  0.00  0.00    -0.245 OA
BRANCH  18  20
ATOM     20  O   UNL     1       7.394  -8.752  -2.490  0.00  0.00    -0.464 OA
ATOM     21  C   UNL     1       8.542  -9.315  -1.851  0.00  0.00    +0.280 C 
ENDBRANCH  18  20
ENDBRANCH  15  18
ENDBRANCH   6  12
BRANCH   7  22
ATOM     22  C   UNL     1       3.693  -5.135  -7.690  0.00  0.00    +0.248 C 
ATOM     23  O   UNL     1       2.795  -5.666  -8.318  0.00  0.00    -0.270 OA
ATOM     24  N   UNL     1       4.978  -5.363  -8.026  0.00  0.00    -0.281 N 
ATOM     25  H   UNL     1       5.693  -4.990  -7.487  0.00  0.00    +0.155 HD
BRANCH  24  26
ATOM     26  C   UNL     1       5.279  -6.137  -9.151  0.00  0.00    +0.037 A 
ATOM     27  C   UNL     1       4.465  -7.207  -9.499  0.00  0.00    +0.023 A 
ATOM     28  C   UNL     1       4.765  -7.969 -10.610  0.00  0.00    +0.002 A 
ATOM     29  C   UNL     1       5.877  -7.668 -11.377  0.00  0.00    +0.004 A 
ATOM     30  C   UNL     1       6.690  -6.604 -11.033  0.00  0.00    -0.046 A 
ATOM     31  C   UNL     1       6.391  -5.834  -9.926  0.00  0.00    -0.026 A 
ATOM     32  C   UNL     1       7.274  -4.670  -9.556  0.00  0.00    +0.046 C 
ATOM     33  C   UNL     1       7.899  -6.280 -11.871  0.00  0.00    +0.044 C 
ENDBRANCH  24  26
ENDBRANCH   7  22
BRANCH   1  34
ATOM     34  S   UNL     1       0.546  -2.326  -1.370  0.00  0.00    -0.084 S 
BRANCH  34  35
ATOM     35  C   UNL     1       0.544  -0.512  -1.369  0.00  0.00    +0.077 C 
BRANCH  35  37
ATOM     36  C   UNL     1      -0.206   1.527  -0.133  0.00  0.00    +0.004 C 
ATOM     37  C   UNL     1      -0.204  -0.003  -0.134  0.00  0.00    +0.008 C 
ENDBRANCH  35  37
ENDBRANCH  34  35
ENDBRANCH   1  34
TORSDOF 8
