REMARK  Name = ZINC58853586
REMARK  10 active torsions:
REMARK  status: ('A' for Active; 'I' for Inactive)
REMARK    1  A    between atoms: C_1  and  C_2
REMARK    2  A    between atoms: C_4  and  C_15
REMARK    3  A    between atoms: C_5  and  C_14
REMARK    4  A    between atoms: N_6  and  C_7
REMARK    5  A    between atoms: N_16  and  N_17
REMARK    6  A    between atoms: C_18  and  C_20
REMARK    7  A    between atoms: C_20  and  N_21
REMARK    8  A    between atoms: N_21  and  C_22
REMARK    9  A    between atoms: N_21  and  S_32
REMARK   10  A    between atoms: S_32  and  C_35
REMARK                            x       y       z     vdW  Elec       q    Type
REMARK                         _______ _______ _______ _____ _____    ______ ____
ROOT
ATOM      1  N   UNL     1      -0.152  -5.788  -1.993  0.00  0.00    -0.206 N 
ATOM      2  C   UNL     1      -0.088  -6.954  -1.319  0.00  0.00    +0.251 C 
ATOM      3  O   UNL     1      -0.186  -6.962  -0.110  0.00  0.00    -0.272 OA
ATOM      4  H   UNL     1      -0.073  -5.782  -2.960  0.00  0.00    +0.177 HD
ENDROOT
BRANCH   1   6
ATOM      5  C   UNL     1      -0.394  -3.463  -1.946  0.00  0.00    +0.140 C 
ATOM      6  N   UNL     1      -0.333  -4.586  -1.297  0.00  0.00    -0.188 NA
BRANCH   5  10
ATOM      7  C   UNL     1      -0.992   1.491  -0.872  0.00  0.00    +0.064 C 
ATOM      8  C   UNL     1      -0.848  -0.005  -0.760  0.00  0.00    +0.022 A 
ATOM      9  C   UNL     1      -0.676  -0.854  -1.790  0.00  0.00    +0.032 A 
ATOM     10  C   UNL     1      -0.585  -2.198  -1.214  0.00  0.00    +0.016 A 
ATOM     11  C   UNL     1      -0.712  -2.045   0.138  0.00  0.00    +0.030 A 
ATOM     12  N   UNL     1      -0.865  -0.720   0.403  0.00  0.00    -0.317 N 
ATOM     13  C   UNL     1      -0.682  -3.153   1.159  0.00  0.00    +0.064 C 
BRANCH  12  14
ATOM     14  C   UNL     1      -1.020  -0.169   1.683  0.00  0.00    +0.047 A 
ATOM     15  C   UNL     1       0.017  -0.244   2.603  0.00  0.00    +0.029 A 
ATOM     16  C   UNL     1      -0.137   0.300   3.863  0.00  0.00    +0.040 A 
ATOM     17  C   UNL     1      -1.326   0.919   4.210  0.00  0.00    +0.124 A 
ATOM     18  C   UNL     1      -2.362   0.995   3.294  0.00  0.00    +0.040 A 
ATOM     19  C   UNL     1      -2.209   0.458   2.031  0.00  0.00    +0.029 A 
ATOM     20  F   UNL     1      -1.476   1.450   5.443  0.00  0.00    -0.205 F 
ENDBRANCH  12  14
ENDBRANCH   5  10
ENDBRANCH   1   6
BRANCH   2  21
ATOM     21  C   UNL     1       0.107  -8.247  -2.068  0.00  0.00    +0.228 C 
BRANCH  21  22
ATOM     22  N   UNL     1       0.247  -9.348  -1.112  0.00  0.00    -0.198 N 
BRANCH  22  23
ATOM     23  C   UNL     1      -0.887  -9.986  -0.613  0.00  0.00    +0.059 A 
ATOM     24  C   UNL     1      -1.544  -9.475   0.486  0.00  0.00    +0.025 A 
ATOM     25  C   UNL     1      -2.678 -10.103   0.993  0.00  0.00    +0.002 A 
ATOM     26  C   UNL     1      -3.169 -11.237   0.420  0.00  0.00    +0.008 A 
ATOM     27  C   UNL     1      -2.528 -11.790  -0.702  0.00  0.00    -0.016 A 
ATOM     28  C   UNL     1      -1.377 -11.156  -1.231  0.00  0.00    +0.005 A 
ATOM     29  C   UNL     1      -0.741 -11.707  -2.354  0.00  0.00    +0.010 A 
ATOM     30  C   UNL     1      -1.241 -12.838  -2.924  0.00  0.00    +0.001 A 
ATOM     31  C   UNL     1      -2.377 -13.459  -2.409  0.00  0.00    +0.001 A 
ATOM     32  C   UNL     1      -3.012 -12.959  -1.314  0.00  0.00    +0.008 A 
ENDBRANCH  22  23
BRANCH  22  33
ATOM     33  S   UNL     1       1.753  -9.836  -0.626  0.00  0.00    +0.043 S 
ATOM     34  O   UNL     1       1.612 -11.222  -0.344  0.00  0.00    -0.155 OA
ATOM     35  O   UNL     1       2.628  -9.391  -1.653  0.00  0.00    -0.155 OA
ATOM     36  C   UNL     1       2.068  -8.917   0.906  0.00  0.00    +0.218 C 
ENDBRANCH  22  33
ENDBRANCH  21  22
ENDBRANCH   2  21
TORSDOF 7
