REMARK  Name = ZINC35987602
REMARK  8 active torsions:
REMARK  status: ('A' for Active; 'I' for Inactive)
REMARK    1  A    between atoms: C_1  and  C_2
REMARK    2  A    between atoms: C_7  and  C_8
REMARK    3  A    between atoms: C_11  and  C_29
REMARK    4  A    between atoms: C_21  and  C_23
REMARK    5  A    between atoms: C_23  and  C_24
REMARK    6  A    between atoms: N_31  and  C_32
REMARK    7  A    between atoms: C_32  and  C_34
REMARK    8  A    between atoms: C_32  and  C_35
REMARK                            x       y       z     vdW  Elec       q    Type
REMARK                         _______ _______ _______ _____ _____    ______ ____
ROOT
ATOM      1  C   UNL     1       1.022  -0.204   1.943  0.00  0.00    +0.250 C 
ATOM      2  O   UNL     1       1.137   0.956   1.597  0.00  0.00    -0.270 OA
ATOM      3  N   UNL     1       0.790  -0.501   3.237  0.00  0.00    -0.255 N 
ATOM      4  C   UNL     1       0.611  -1.849   3.823  0.00  0.00    +0.190 C 
ATOM      5  C   UNL     1      -0.143  -1.551   5.143  0.00  0.00    +0.194 C 
ATOM      6  O   UNL     1       0.448  -0.299   5.562  0.00  0.00    -0.353 OA
ATOM      7  C   UNL     1       0.670   0.447   4.355  0.00  0.00    +0.142 C 
ATOM      8  C   UNL     1      -0.515   1.383   4.111  0.00  0.00    +0.074 C 
ATOM      9  C   UNL     1      -0.292   2.154   2.806  0.00  0.00    +0.112 C 
ATOM     10  N   UNL     1       1.012   2.828   2.872  0.00  0.00    -0.301 N 
ATOM     11  C   UNL     1       2.205   2.029   3.180  0.00  0.00    +0.112 C 
ATOM     12  C   UNL     1       1.960   1.259   4.482  0.00  0.00    +0.074 C 
ATOM     13  C   UNL     1       1.111   4.154   2.654  0.00  0.00    +0.220 C 
ATOM     14  O   UNL     1       0.118   4.803   2.400  0.00  0.00    -0.275 OA
ENDROOT
BRANCH   1  21
ATOM     15  C   UNL     1      -0.458  -0.025  -0.536  0.00  0.00    +0.044 C 
ATOM     16  C   UNL     1       0.426  -1.213  -0.255  0.00  0.00    -0.038 A 
ATOM     17  C   UNL     1       0.540  -2.225  -1.185  0.00  0.00    +0.004 A 
ATOM     18  C   UNL     1       1.351  -3.316  -0.929  0.00  0.00    +0.000 A 
ATOM     19  C   UNL     1       2.053  -3.400   0.261  0.00  0.00    +0.001 A 
ATOM     20  C   UNL     1       1.947  -2.394   1.200  0.00  0.00    +0.013 A 
ATOM     21  C   UNL     1       1.135  -1.288   0.945  0.00  0.00    +0.040 A 
ENDBRANCH   1  21
BRANCH   4  22
ATOM     22  C   UNL     1      -0.217  -2.720   2.914  0.00  0.00    +0.236 C 
ATOM     23  O   UNL     1      -1.053  -2.220   2.191  0.00  0.00    -0.274 OA
ATOM     24  N   UNL     1      -0.030  -4.055   2.905  0.00  0.00    -0.307 N 
ATOM     25  H   UNL     1       0.638  -4.454   3.483  0.00  0.00    +0.149 HD
BRANCH  24  26
ATOM     26  C   UNL     1      -0.836  -4.902   2.022  0.00  0.00    +0.100 C 
ATOM     27  C   UNL     1      -2.160  -5.240   2.708  0.00  0.00    +0.033 C 
BRANCH  26  28
ATOM     28  C   UNL     1      -0.085  -6.174   1.724  0.00  0.00    -0.027 A 
ATOM     29  C   UNL     1       0.629  -6.806   2.725  0.00  0.00    +0.005 A 
ATOM     30  C   UNL     1       1.317  -7.973   2.452  0.00  0.00    +0.000 A 
ATOM     31  C   UNL     1       1.292  -8.508   1.178  0.00  0.00    +0.000 A 
ATOM     32  C   UNL     1       0.577  -7.877   0.177  0.00  0.00    +0.000 A 
ATOM     33  C   UNL     1      -0.115  -6.712   0.451  0.00  0.00    +0.005 A 
ENDBRANCH  26  28
ENDBRANCH  24  26
ENDBRANCH   4  22
BRANCH  13  34
ATOM     34  C   UNL     1       2.455   4.831   2.725  0.00  0.00    +0.138 C 
BRANCH  34  35
ATOM     35  C   UNL     1       2.292   6.303   2.444  0.00  0.00    -0.001 A 
ATOM     36  C   UNL     1       2.061   7.317   3.313  0.00  0.00    +0.011 A 
ATOM     37  C   UNL     1       1.946   8.605   2.825  0.00  0.00    +0.008 A 
ATOM     38  C   UNL     1       2.069   8.816   1.492  0.00  0.00    +0.045 A 
ATOM     39  S   UNL     1       2.362   7.164   0.882  0.00  0.00    -0.101 S 
ENDBRANCH  34  35
ENDBRANCH  13  34
TORSDOF 6
