REMARK  Name = ZINC49563486
REMARK  6 active torsions:
REMARK  status: ('A' for Active; 'I' for Inactive)
REMARK    1  A    between atoms: C_1  and  N_2
REMARK    2  A    between atoms: N_2  and  C_3
REMARK    3  A    between atoms: N_2  and  C_11
REMARK    4  A    between atoms: C_3  and  C_4
REMARK    5  A    between atoms: C_11  and  C_12
REMARK    6  A    between atoms: C_17  and  C_22
REMARK                            x       y       z     vdW  Elec       q    Type
REMARK                         _______ _______ _______ _____ _____    ______ ____
ROOT
ATOM      1  C   UNL     1      -0.668  -0.137  -2.198  0.00  0.00    +0.037 A 
ATOM      2  C   UNL     1      -0.910  -1.178  -3.068  0.00  0.00    +0.093 A 
ATOM      3  C   UNL     1      -1.833  -1.015  -4.102  0.00  0.00    +0.259 A 
ATOM      4  O   UNL     1      -2.052  -1.934  -4.875  0.00  0.00    -0.267 OA
ATOM      5  N   UNL     1      -2.492   0.173  -4.247  0.00  0.00    -0.256 N 
ATOM      6  C   UNL     1      -3.427   0.484  -5.214  0.00  0.00    +0.066 A 
ATOM      7  C   UNL     1      -4.004   1.701  -5.242  0.00  0.00    +0.075 A 
ATOM      8  S   UNL     1      -3.227   2.507  -3.851  0.00  0.00    -0.059 S 
ATOM      9  C   UNL     1      -2.191   1.153  -3.340  0.00  0.00    +0.159 A 
ATOM     10  N   UNL     1      -1.330   1.006  -2.364  0.00  0.00    -0.337 N 
ATOM     11  H   UNL     1      -1.169   1.743  -1.754  0.00  0.00    +0.168 HD
ENDROOT
BRANCH   6  12
ATOM     12  C   UNL     1      -3.799  -0.528  -6.226  0.00  0.00    -0.001 A 
ATOM     13  C   UNL     1      -4.343  -1.750  -5.829  0.00  0.00    +0.010 A 
ATOM     14  C   UNL     1      -4.688  -2.689  -6.779  0.00  0.00    +0.001 A 
ATOM     15  C   UNL     1      -4.495  -2.422  -8.123  0.00  0.00    +0.000 A 
ATOM     16  C   UNL     1      -3.956  -1.213  -8.523  0.00  0.00    +0.001 A 
ATOM     17  C   UNL     1      -3.613  -0.262  -7.584  0.00  0.00    +0.010 A 
ENDBRANCH   6  12
BRANCH   1  18
ATOM     18  C   UNL     1       0.324  -0.291  -1.074  0.00  0.00    +0.137 C 
BRANCH  18  20
ATOM     19  C   UNL     1       2.254   0.770  -0.068  0.00  0.00    +0.105 C 
ATOM     20  N   UNL     1       1.457   0.619  -1.292  0.00  0.00    -0.296 NA
BRANCH  20  21
ATOM     21  C   UNL     1       2.291   0.163  -2.411  0.00  0.00    +0.119 C 
BRANCH  21  22
ATOM     22  C   UNL     1       3.290   1.235  -2.763  0.00  0.00    -0.031 A 
ATOM     23  C   UNL     1       2.965   2.203  -3.696  0.00  0.00    +0.005 A 
ATOM     24  C   UNL     1       3.880   3.187  -4.020  0.00  0.00    +0.003 A 
ATOM     25  C   UNL     1       5.121   3.204  -3.412  0.00  0.00    +0.038 A 
ATOM     26  C   UNL     1       5.447   2.236  -2.478  0.00  0.00    +0.124 A 
ATOM     27  C   UNL     1       4.528   1.254  -2.150  0.00  0.00    +0.043 A 
ATOM     28  F   UNL     1       6.661   2.252  -1.884  0.00  0.00    -0.205 F 
ENDBRANCH  21  22
ENDBRANCH  20  21
ENDBRANCH  18  20
ENDBRANCH   1  18
TORSDOF 5
