REMARK  Name = ZINC54360495
REMARK  5 active torsions:
REMARK  status: ('A' for Active; 'I' for Inactive)
REMARK    1  A    between atoms: C_3  and  N_25
REMARK    2  A    between atoms: C_6  and  C_7
REMARK    3  A    between atoms: C_8  and  C_9
REMARK    4  A    between atoms: N_13  and  C_17
REMARK    5  A    between atoms: C_20  and  O_23
REMARK                            x       y       z     vdW  Elec       q    Type
REMARK                         _______ _______ _______ _____ _____    ______ ____
ROOT
ATOM      1  C   UNL     1      -2.261  -3.047   0.658  0.00  0.00    +0.040 C 
ATOM      2  C   UNL     1      -2.290  -4.353   0.113  0.00  0.00    +0.078 C 
ATOM      3  C   UNL     1      -3.428  -5.310   0.041  0.00  0.00    +0.263 C 
ATOM      4  O   UNL     1      -4.528  -5.034   0.478  0.00  0.00    -0.269 OA
ATOM      5  N   UNL     1      -3.174  -6.479  -0.529  0.00  0.00    -0.224 N 
ATOM      6  C   UNL     1      -1.931  -6.718  -0.993  0.00  0.00    +0.125 C 
ATOM      7  S   UNL     1      -1.343  -8.129  -1.763  0.00  0.00    -0.027 S 
ATOM      8  S   UNL     1      -1.047  -5.216  -0.624  0.00  0.00    -0.061 S 
ENDROOT
BRANCH   5   9
ATOM      9  C   UNL     1      -4.178  -7.449  -0.645  0.00  0.00    +0.043 A 
ATOM     10  C   UNL     1      -4.985  -7.480  -1.775  0.00  0.00    +0.027 A 
ATOM     11  C   UNL     1      -5.974  -8.437  -1.890  0.00  0.00    +0.047 A 
ATOM     12  C   UNL     1      -6.161  -9.367  -0.877  0.00  0.00    +0.117 A 
ATOM     13  C   UNL     1      -5.355  -9.335   0.252  0.00  0.00    +0.047 A 
ATOM     14  C   UNL     1      -4.362  -8.383   0.366  0.00  0.00    +0.027 A 
BRANCH  12  15
ATOM     15  O   UNL     1      -7.135 -10.308  -0.991  0.00  0.00    -0.507 OA
ATOM     16  H   UNL     1      -6.844 -11.125  -1.418  0.00  0.00    +0.292 HD
ENDBRANCH  12  15
ENDBRANCH   5   9
BRANCH   1  18
ATOM     17  C   UNL     1      -1.068  -1.009   1.165  0.00  0.00    +0.028 C 
ATOM     18  C   UNL     1      -1.096  -2.311   0.622  0.00  0.00    +0.043 C 
ATOM     19 CL   UNL     1       0.336  -2.985  -0.091  0.00  0.00    -0.083 Cl
BRANCH  17  25
ATOM     20  C   UNL     1       0.854  -0.309  -0.174  0.00  0.00    +0.010 A 
ATOM     21  C   UNL     1       1.957   0.481  -0.325  0.00  0.00    +0.033 A 
ATOM     22  C   UNL     1       2.311   1.387   0.666  0.00  0.00    +0.126 A 
ATOM     23  C   UNL     1       1.550   1.503   1.821  0.00  0.00    +0.033 A 
ATOM     24  C   UNL     1       0.442   0.725   1.997  0.00  0.00    +0.010 A 
ATOM     25  C   UNL     1       0.071  -0.201   0.997  0.00  0.00    -0.024 A 
BRANCH  22  26
ATOM     26  N   UNL     1       3.511   2.238   0.488  0.00  0.00    +0.056 N 
ATOM     27  O   UNL     1       4.238   2.133  -0.605  0.00  0.00    -0.126 OA
ATOM     28  O   UNL     1       3.852   3.100   1.425  0.00  0.00    -0.126 OA
ENDBRANCH  22  26
ENDBRANCH  17  25
ENDBRANCH   1  18
TORSDOF 5
