REMARK  Name = ZINC09396708
REMARK  13 active torsions:
REMARK  status: ('A' for Active; 'I' for Inactive)
REMARK    1  A    between atoms: C_1  and  C_2
REMARK    2  A    between atoms: C_3  and  C_35
REMARK    3  A    between atoms: C_11  and  C_13
REMARK    4  A    between atoms: C_13  and  S_14
REMARK    5  A    between atoms: S_14  and  C_15
REMARK    6  A    between atoms: C_15  and  C_17
REMARK    7  A    between atoms: C_15  and  C_18
REMARK    8  A    between atoms: C_18  and  O_20
REMARK    9  A    between atoms: O_20  and  C_21
REMARK   10  A    between atoms: C_21  and  C_22
REMARK   11  A    between atoms: N_24  and  C_25
REMARK   12  A    between atoms: C_28  and  O_31
REMARK   13  A    between atoms: O_31  and  C_32
REMARK                            x       y       z     vdW  Elec       q    Type
REMARK                         _______ _______ _______ _____ _____    ______ ____
ROOT
ATOM      1  C   UNL     1      -5.402   0.941   0.147  0.00  0.00    +0.320 C 
ATOM      2  O   UNL     1      -5.324  -0.229  -0.146  0.00  0.00    -0.250 OA
ENDROOT
BRANCH   1   3
ATOM      3  C   UNL     1      -4.192   1.831   0.026  0.00  0.00    +0.152 C 
ATOM      4  C   UNL     1      -4.281   2.638  -1.271  0.00  0.00    +0.031 C 
BRANCH   3   5
ATOM      5  S   UNL     1      -2.692   0.811   0.002  0.00  0.00    -0.139 S 
BRANCH   5   6
ATOM      6  C   UNL     1      -1.339   2.021   0.008  0.00  0.00    +0.144 C 
BRANCH   6  17
ATOM      7  C   UNL     1       4.939  -0.329  -0.091  0.00  0.00    +0.045 C 
ATOM      8  C   UNL     1       3.546  -0.902  -0.081  0.00  0.00    -0.026 A 
ATOM      9  C   UNL     1       3.358  -2.232  -0.095  0.00  0.00    -0.008 A 
ATOM     10  S   UNL     1       1.584  -2.399  -0.076  0.00  0.00    -0.073 S 
ATOM     11  C   UNL     1       1.146  -0.680  -0.049  0.00  0.00    +0.116 A 
ATOM     12  C   UNL     1       2.390  -0.025  -0.056  0.00  0.00    +0.075 A 
ATOM     13  C   UNL     1       2.337   1.407  -0.037  0.00  0.00    +0.260 A 
ATOM     14  O   UNL     1       3.362   2.065  -0.041  0.00  0.00    -0.267 OA
ATOM     15  N   UNL     1       1.135   2.014  -0.016  0.00  0.00    -0.310 N 
ATOM     16  H   UNL     1       1.092   2.983  -0.003  0.00  0.00    +0.170 HD
ATOM     17  C   UNL     1      -0.018   1.297  -0.011  0.00  0.00    +0.121 A 
ATOM     18  N   UNL     1      -0.002  -0.009  -0.027  0.00  0.00    -0.226 NA
ATOM     19  C   UNL     1       4.399  -3.321  -0.121  0.00  0.00    +0.052 C 
ENDBRANCH   6  17
ENDBRANCH   5   6
ENDBRANCH   3   5
ENDBRANCH   1   3
BRANCH   1  20
ATOM     20  O   UNL     1      -6.567   1.447   0.581  0.00  0.00    -0.454 OA
BRANCH  20  21
ATOM     21  C   UNL     1      -7.690   0.532   0.673  0.00  0.00    +0.328 C 
BRANCH  21  22
ATOM     22  C   UNL     1      -8.902   1.273   1.175  0.00  0.00    +0.255 C 
ATOM     23  O   UNL     1      -8.827   2.457   1.430  0.00  0.00    -0.272 OA
ATOM     24  N   UNL     1     -10.070   0.621   1.341  0.00  0.00    -0.283 N 
ATOM     25  H   UNL     1     -10.149  -0.308   1.074  0.00  0.00    +0.155 HD
BRANCH  24  26
ATOM     26  C   UNL     1     -11.171   1.286   1.898  0.00  0.00    +0.034 A 
ATOM     27  C   UNL     1     -12.058   0.597   2.714  0.00  0.00    +0.027 A 
ATOM     28  C   UNL     1     -13.139   1.254   3.267  0.00  0.00    +0.047 A 
ATOM     29  C   UNL     1     -13.346   2.599   2.998  0.00  0.00    +0.127 A 
ATOM     30  C   UNL     1     -12.463   3.286   2.179  0.00  0.00    +0.047 A 
ATOM     31  C   UNL     1     -11.378   2.632   1.629  0.00  0.00    +0.027 A 
BRANCH  29  32
ATOM     32  O   UNL     1     -14.414   3.244   3.539  0.00  0.00    -0.434 OA
BRANCH  32  33
ATOM     33  C   UNL     1     -15.282   2.474   4.373  0.00  0.00    +0.541 C 
ATOM     34  F   UNL     1     -15.818   1.412   3.636  0.00  0.00    -0.166 F 
ATOM     35  F   UNL     1     -14.559   1.970   5.459  0.00  0.00    -0.166 F 
ENDBRANCH  32  33
ENDBRANCH  29  32
ENDBRANCH  24  26
ENDBRANCH  21  22
ENDBRANCH  20  21
ENDBRANCH   1  20
TORSDOF 10
