REMARK  Name = ZINC11342460
REMARK  8 active torsions:
REMARK  status: ('A' for Active; 'I' for Inactive)
REMARK    1  A    between atoms: C_1  and  C_2
REMARK    2  A    between atoms: C_6  and  C_8
REMARK    3  A    between atoms: C_8  and  O_10
REMARK    4  A    between atoms: O_10  and  C_11
REMARK    5  A    between atoms: C_11  and  C_12
REMARK    6  A    between atoms: N_17  and  C_18
REMARK    7  A    between atoms: C_23  and  C_28
REMARK    8  A    between atoms: C_25  and  C_27
REMARK                            x       y       z     vdW  Elec       q    Type
REMARK                         _______ _______ _______ _____ _____    ______ ____
ROOT
ATOM      1  C   UNL     1      -2.590   7.987   0.066  0.00  0.00    +0.258 C 
ATOM      2  O   UNL     1      -3.541   7.236   0.072  0.00  0.00    -0.272 OA
ATOM      3  N   UNL     1      -2.784   9.321   0.075  0.00  0.00    -0.237 N 
ATOM      4  C   UNL     1      -4.037   9.819   0.089  0.00  0.00    +0.306 C 
ATOM      5  O   UNL     1      -4.990   9.066   0.094  0.00  0.00    -0.252 OA
ATOM      6  N   UNL     1      -4.231  11.153   0.098  0.00  0.00    -0.296 N 
ATOM      7  H   UNL     1      -2.023   9.922   0.071  0.00  0.00    +0.159 HD
ATOM      8  H   UNL     1      -3.470  11.754   0.094  0.00  0.00    +0.151 HD
ENDROOT
BRANCH   6   9
ATOM      9  C   UNL     1      -5.592  11.694   0.113  0.00  0.00    +0.078 C 
ATOM     10  C   UNL     1      -6.099  11.759   1.555  0.00  0.00    +0.022 C 
ATOM     11  C   UNL     1      -7.521  12.324   1.571  0.00  0.00    +0.002 C 
ATOM     12  C   UNL     1      -7.517  13.731   0.969  0.00  0.00    +0.003 C 
ATOM     13  C   UNL     1      -7.010  13.666  -0.473  0.00  0.00    -0.009 C 
ATOM     14  C   UNL     1      -5.589  13.101  -0.489  0.00  0.00    +0.009 C 
ATOM     15  C   UNL     1      -5.082  13.036  -1.932  0.00  0.00    +0.009 C 
ATOM     16  C   UNL     1      -7.929  12.761  -1.297  0.00  0.00    +0.008 C 
ENDBRANCH   6   9
BRANCH   1  17
ATOM     17  C   UNL     1      -1.189   7.431   0.051  0.00  0.00    +0.328 C 
BRANCH  17  18
ATOM     18  O   UNL     1      -1.246   5.980   0.044  0.00  0.00    -0.452 OA
BRANCH  18  19
ATOM     19  C   UNL     1      -0.070   5.322   0.029  0.00  0.00    +0.340 C 
ATOM     20  O   UNL     1       0.973   5.944   0.023  0.00  0.00    -0.245 OA
BRANCH  19  26
ATOM     21  C   UNL     1       2.490   1.040  -0.016  0.00  0.00    +0.044 C 
ATOM     22  C   UNL     1       1.178   1.781   0.000  0.00  0.00    -0.050 A 
ATOM     23  C   UNL     1      -0.013   1.076   0.008  0.00  0.00    +0.003 A 
ATOM     24  C   UNL     1      -1.222   1.748   0.017  0.00  0.00    +0.001 A 
ATOM     25  C   UNL     1      -1.248   3.127   0.030  0.00  0.00    +0.015 A 
ATOM     26  C   UNL     1      -0.050   3.845   0.022  0.00  0.00    +0.059 A 
ATOM     27  C   UNL     1       1.167   3.160   0.007  0.00  0.00    +0.018 A 
ENDBRANCH  19  26
ENDBRANCH  18  19
ENDBRANCH  17  18
ENDBRANCH   1  17
TORSDOF 5
