REMARK  Name = ZINC21284208
REMARK  6 active torsions:
REMARK  status: ('A' for Active; 'I' for Inactive)
REMARK    1  A    between atoms: C_5  and  C_7
REMARK    2  A    between atoms: C_7  and  C_8
REMARK    3  A    between atoms: N_10  and  N_11
REMARK    4  A    between atoms: N_11  and  C_12
REMARK    5  A    between atoms: C_15  and  C_21
REMARK    6  A    between atoms: C_17  and  N_18
REMARK                            x       y       z     vdW  Elec       q    Type
REMARK                         _______ _______ _______ _____ _____    ______ ____
ROOT
ATOM      1  N   UNL     1      -1.223   2.087  -0.085  0.00  0.00    -0.262 N 
ATOM      2  H   UNL     1      -1.233   3.184   0.004  0.00  0.00    +0.170 HD
ENDROOT
BRANCH   1   3
ATOM      3  C   UNL     1      -0.011   1.395  -0.042  0.00  0.00    +0.075 A 
ATOM      4  C   UNL     1       0.015   0.023  -0.265  0.00  0.00    +0.027 A 
ATOM      5  C   UNL     1       1.216  -0.658  -0.228  0.00  0.00    +0.014 A 
ATOM      6  C   UNL     1       2.392   0.024   0.031  0.00  0.00    +0.057 A 
ATOM      7  C   UNL     1       2.369   1.388   0.253  0.00  0.00    +0.047 A 
ATOM      8  C   UNL     1       1.171   2.076   0.217  0.00  0.00    +0.149 A 
BRANCH   6   9
ATOM      9  C   UNL     1       3.700  -0.723   0.071  0.00  0.00    +0.417 C 
ATOM     10  F   UNL     1       3.470  -2.080  -0.181  0.00  0.00    -0.166 F 
ATOM     11  F   UNL     1       4.561  -0.207  -0.903  0.00  0.00    -0.166 F 
ATOM     12  F   UNL     1       4.283  -0.576   1.334  0.00  0.00    -0.166 F 
ENDBRANCH   6   9
BRANCH   8  13
ATOM     13  N   UNL     1       1.148   3.537   0.455  0.00  0.00    +0.058 N 
ATOM     14  O   UNL     1       2.048   4.237   0.026  0.00  0.00    -0.126 OA
ATOM     15  O   UNL     1       0.230   4.038   1.078  0.00  0.00    -0.126 OA
ENDBRANCH   8  13
ENDBRANCH   1   3
BRANCH   1  18
ATOM     16  C   UNL     1      -3.595   2.055  -0.281  0.00  0.00    +0.233 C 
ATOM     17  O   UNL     1      -3.606   3.264  -0.183  0.00  0.00    -0.274 OA
ATOM     18  N   UNL     1      -2.426   1.386  -0.240  0.00  0.00    -0.236 N 
ATOM     19  H   UNL     1      -2.416   0.290  -0.328  0.00  0.00    +0.173 HD
BRANCH  16  20
ATOM     20  C   UNL     1      -4.889   1.300  -0.448  0.00  0.00    +0.133 C 
BRANCH  20  25
ATOM     21  C   UNL     1      -7.787   3.436   0.690  0.00  0.00    +0.000 A 
ATOM     22  C   UNL     1      -8.152   4.059  -0.490  0.00  0.00    +0.001 A 
ATOM     23  C   UNL     1      -7.461   3.789  -1.656  0.00  0.00    +0.020 A 
ATOM     24  C   UNL     1      -6.404   2.896  -1.643  0.00  0.00    +0.045 A 
ATOM     25  C   UNL     1      -6.040   2.273  -0.463  0.00  0.00    -0.020 A 
ATOM     26  C   UNL     1      -6.735   2.540   0.702  0.00  0.00    +0.005 A 
ATOM     27 CL   UNL     1      -5.536   2.557  -3.108  0.00  0.00    -0.083 Cl
ENDBRANCH  20  25
ENDBRANCH  16  20
ENDBRANCH   1  18
TORSDOF 6
