REMARK  Name = ZINC27345082
REMARK  5 active torsions:
REMARK  status: ('A' for Active; 'I' for Inactive)
REMARK    1  A    between atoms: C_1  and  C_2
REMARK    2  A    between atoms: C_2  and  C_3
REMARK    3  A    between atoms: C_3  and  C_32
REMARK    4  A    between atoms: C_7  and  N_24
REMARK    5  A    between atoms: C_14  and  N_19
REMARK                            x       y       z     vdW  Elec       q    Type
REMARK                         _______ _______ _______ _____ _____    ______ ____
ROOT
ATOM      1  C   UNL     1       1.367   2.051  -0.181  0.00  0.00    +0.071 C 
ATOM      2  C   UNL     1      -0.059   1.498  -0.110  0.00  0.00    +0.071 C 
ATOM      3  C   UNL     1      -0.018  -0.005  -0.057  0.00  0.00    -0.025 A 
ATOM      4  C   UNL     1       1.092  -0.709  -0.406  0.00  0.00    +0.020 A 
ATOM      5  C   UNL     1       1.080  -2.107  -0.347  0.00  0.00    +0.105 A 
ATOM      6  N   UNL     1      -0.004  -2.752   0.052  0.00  0.00    -0.337 N 
ATOM      7  C   UNL     1      -1.093  -2.103   0.402  0.00  0.00    +0.089 A 
ATOM      8  C   UNL     1      -1.178  -0.696   0.372  0.00  0.00    +0.031 A 
ATOM      9  C   UNL     1      -2.464  -0.131   0.795  0.00  0.00    +0.055 A 
ATOM     10  C   UNL     1      -3.433  -1.018   1.162  0.00  0.00    +0.050 A 
ATOM     11  S   UNL     1      -2.697  -2.611   0.977  0.00  0.00    -0.070 S 
ATOM     12  C   UNL     1      -4.810  -0.630   1.607  0.00  0.00    +0.191 C 
ATOM     13  N   UNL     1      -4.708   0.770   2.071  0.00  0.00    -0.359 N 
ATOM     14  C   UNL     1      -3.838   1.626   1.441  0.00  0.00    +0.157 C 
ATOM     15  N   UNL     1      -2.754   1.229   0.847  0.00  0.00    -0.306 N 
ATOM     16  C   UNL     1       2.354  -0.016  -0.854  0.00  0.00    +0.199 C 
ATOM     17  O   UNL     1       2.076   1.340  -1.202  0.00  0.00    -0.369 OA
ATOM     18  C   UNL     1       2.064   1.852   1.166  0.00  0.00    +0.042 C 
ATOM     19  H   UNL     1      -5.320   1.129   2.911  0.00  0.00    +0.162 HD
ATOM     20  H   UNL     1      -0.005  -3.851   0.096  0.00  0.00    +0.168 HD
ATOM     21  H   UNL     1      -2.068   1.956   0.389  0.00  0.00    +0.153 HD
ENDROOT
BRANCH   5  22
ATOM     22  N   UNL     1       2.215  -2.823  -0.711  0.00  0.00    -0.312 N 
ATOM     23  C   UNL     1       1.940  -3.699  -1.859  0.00  0.00    +0.134 C 
ATOM     24  C   UNL     1       3.228  -4.421  -2.262  0.00  0.00    +0.178 C 
ATOM     25  O   UNL     1       3.734  -5.146  -1.138  0.00  0.00    -0.377 OA
ATOM     26  C   UNL     1       4.013  -4.323  -0.002  0.00  0.00    +0.178 C 
ATOM     27  C   UNL     1       2.733  -3.600   0.425  0.00  0.00    +0.134 C 
ENDBRANCH   5  22
BRANCH  12  28
ATOM     28  N   UNL     1      -5.750  -0.724   0.483  0.00  0.00    -0.279 NA
ATOM     29  C   UNL     1      -5.762  -2.095  -0.089  0.00  0.00    +0.087 C 
ATOM     30  C   UNL     1      -7.113  -2.152  -0.846  0.00  0.00    +0.017 C 
ATOM     31  C   UNL     1      -8.060  -1.352   0.077  0.00  0.00    +0.017 C 
ATOM     32  C   UNL     1      -7.136  -0.460   0.927  0.00  0.00    +0.087 C 
ENDBRANCH  12  28
BRANCH   1  34
ATOM     33  C   UNL     1       2.752   4.089  -0.595  0.00  0.00    +0.007 C 
ATOM     34  C   UNL     1       1.325   3.541  -0.525  0.00  0.00    +0.032 C 
ENDBRANCH   1  34
TORSDOF 3
