REMARK  Name = ZINC60303322
REMARK  4 active torsions:
REMARK  status: ('A' for Active; 'I' for Inactive)
REMARK    1  A    between atoms: C_1  and  N_2
REMARK    2  A    between atoms: N_2  and  C_3
REMARK    3  A    between atoms: C_11  and  C_13
REMARK    4  A    between atoms: C_15  and  N_20
REMARK                            x       y       z     vdW  Elec       q    Type
REMARK                         _______ _______ _______ _____ _____    ______ ____
ROOT
ATOM      1  C   UNL     1       0.886   1.287  -0.106  0.00  0.00    +0.132 C 
ATOM      2  N   UNL     1       0.433  -0.105  -0.064  0.00  0.00    -0.297 N 
ATOM      3  C   UNL     1      -0.102  -0.673  -1.163  0.00  0.00    +0.249 C 
ATOM      4  O   UNL     1      -0.565  -1.795  -1.103  0.00  0.00    -0.270 OA
ENDROOT
BRANCH   2   5
ATOM      5  C   UNL     1       0.560  -0.880   1.173  0.00  0.00    +0.076 C 
ATOM      6  C   UNL     1      -0.237  -0.198   2.286  0.00  0.00    +0.022 C 
ATOM      7  C   UNL     1      -0.440  -1.179   3.443  0.00  0.00    +0.002 C 
ATOM      8  C   UNL     1      -0.837  -2.548   2.887  0.00  0.00    +0.000 C 
ATOM      9  C   UNL     1       0.285  -3.553   3.157  0.00  0.00    +0.000 C 
ATOM     10  C   UNL     1       1.433  -3.309   2.177  0.00  0.00    +0.000 C 
ATOM     11  C   UNL     1       2.220  -2.071   2.610  0.00  0.00    +0.002 C 
ATOM     12  C   UNL     1       2.034  -0.959   1.576  0.00  0.00    +0.022 C 
ENDBRANCH   2   5
BRANCH   3  13
ATOM     13  C   UNL     1      -0.124   0.068  -2.441  0.00  0.00    +0.074 A 
ATOM     14  C   UNL     1       0.997   0.793  -2.851  0.00  0.00    +0.048 A 
ATOM     15  C   UNL     1       0.970   1.482  -4.045  0.00  0.00    +0.127 A 
ATOM     16  C   UNL     1      -0.165   1.458  -4.838  0.00  0.00    +0.035 A 
ATOM     17  C   UNL     1      -1.280   0.744  -4.440  0.00  0.00    +0.041 A 
ATOM     18  C   UNL     1      -1.266   0.043  -3.248  0.00  0.00    +0.136 A 
ATOM     19  F   UNL     1      -2.353  -0.660  -2.862  0.00  0.00    -0.205 F 
BRANCH  15  20
ATOM     20  N   UNL     1       2.158   2.251  -4.480  0.00  0.00    +0.056 N 
ATOM     21  O   UNL     1       3.149   2.273  -3.789  0.00  0.00    -0.126 OA
ATOM     22  O   UNL     1       2.136   2.856  -5.527  0.00  0.00    -0.126 OA
ENDBRANCH  15  20
ENDBRANCH   3  13
TORSDOF 3
