REMARK  Name = ZINC32169331
REMARK  5 active torsions:
REMARK  status: ('A' for Active; 'I' for Inactive)
REMARK    1  A    between atoms: C_1  and  C_2
REMARK    2  A    between atoms: C_2  and  C_20
REMARK    3  A    between atoms: N_5  and  C_9
REMARK    4  A    between atoms: C_9  and  C_10
REMARK    5  A    between atoms: C_12  and  C_15
REMARK                            x       y       z     vdW  Elec       q    Type
REMARK                         _______ _______ _______ _____ _____    ______ ____
ROOT
ATOM      1  C   UNL     1      -3.549   2.170   2.905  0.00  0.00    +0.047 C 
ATOM      2  C   UNL     1      -2.084   1.743   3.020  0.00  0.00    +0.135 C 
ATOM      3  C   UNL     1      -1.684   0.883   1.837  0.00  0.00    +0.251 C 
ATOM      4  O   UNL     1      -2.153  -0.188   1.519  0.00  0.00    -0.272 OA
ATOM      5  N   UNL     1      -0.698   1.558   1.213  0.00  0.00    -0.215 N 
ATOM      6  C   UNL     1      -0.420   2.710   1.834  0.00  0.00    +0.310 C 
ATOM      7  O   UNL     1       0.435   3.489   1.460  0.00  0.00    -0.252 OA
ATOM      8  N   UNL     1      -1.194   2.912   2.915  0.00  0.00    -0.281 N 
ATOM      9  H   UNL     1      -1.262   3.723   3.655  0.00  0.00    +0.152 HD
ENDROOT
BRANCH   2  10
ATOM     10  C   UNL     1      -1.848   1.007   4.314  0.00  0.00    -0.014 A 
ATOM     11  C   UNL     1      -1.538   1.711   5.463  0.00  0.00    +0.008 A 
ATOM     12  C   UNL     1      -1.322   1.038   6.650  0.00  0.00    +0.022 A 
ATOM     13  C   UNL     1      -1.415  -0.342   6.689  0.00  0.00    +0.059 A 
ATOM     14  C   UNL     1      -1.726  -1.047   5.539  0.00  0.00    +0.060 A 
ATOM     15  C   UNL     1      -1.948  -0.371   4.353  0.00  0.00    +0.027 A 
ATOM     16 CL   UNL     1      -1.843  -2.779   5.587  0.00  0.00    -0.082 Cl
ATOM     17 CL   UNL     1      -1.143  -1.189   8.180  0.00  0.00    -0.082 Cl
ENDBRANCH   2  10
BRANCH   5  18
ATOM     18  C   UNL     1      -0.013   1.086   0.008  0.00  0.00    +0.216 C 
BRANCH  18  19
ATOM     19  C   UNL     1      -0.742   1.585  -1.213  0.00  0.00    +0.246 A 
ATOM     20  N   UNL     1      -0.524   2.714  -1.841  0.00  0.00    -0.190 NA
ATOM     21  C   UNL     1      -1.405   2.733  -2.868  0.00  0.00    +0.203 A 
ATOM     22  N   UNL     1      -2.104   1.629  -2.798  0.00  0.00    -0.056 NA
ATOM     23  O   UNL     1      -1.735   0.962  -1.855  0.00  0.00    -0.336 OA
BRANCH  21  24
ATOM     24  C   UNL     1      -1.554   3.807  -3.879  0.00  0.00    +0.029 A 
ATOM     25  C   UNL     1      -2.506   3.706  -4.892  0.00  0.00    +0.019 A 
ATOM     26  C   UNL     1      -2.590   4.724  -5.778  0.00  0.00    +0.046 A 
ATOM     27  S   UNL     1      -1.319   5.835  -5.203  0.00  0.00    -0.104 S 
ATOM     28  C   UNL     1      -0.758   4.915  -3.845  0.00  0.00    +0.057 A 
ENDBRANCH  21  24
ENDBRANCH  18  19
ENDBRANCH   5  18
TORSDOF 4
