REMARK  Name = ZINC06082910
REMARK  12 active torsions:
REMARK  status: ('A' for Active; 'I' for Inactive)
REMARK    1  A    between atoms: C_1  and  C_2
REMARK    2  A    between atoms: C_2  and  C_4
REMARK    3  A    between atoms: C_2  and  O_11
REMARK    4  A    between atoms: O_11  and  C_12
REMARK    5  A    between atoms: C_12  and  C_13
REMARK    6  A    between atoms: C_13  and  C_15
REMARK    7  A    between atoms: C_13  and  O_30
REMARK    8  A    between atoms: C_15  and  N_61
REMARK    9  A    between atoms: C_16  and  C_17
REMARK   10  A    between atoms: C_16  and  N_61
REMARK   11  A    between atoms: C_22  and  O_23
REMARK   12  A    between atoms: C_24  and  N_61
REMARK                            x       y       z     vdW  Elec       q    Type
REMARK                         _______ _______ _______ _____ _____    ______ ____
ROOT
ATOM      1  N   UNL     1       0.135   1.098  -2.256  0.00  0.00    +0.386 N 
ATOM      2  H   UNL     1       1.137   1.293  -2.140  0.00  0.00    -0.081 HD
ENDROOT
BRANCH   1   3
ATOM      3  C   UNL     1      -0.577   1.501  -1.025  0.00  0.00    -0.068 C 
ATOM      4  C   UNL     1       0.158   0.918   0.183  0.00  0.00    -0.015 C 
ATOM      5  C   UNL     1      -0.555   1.343   1.468  0.00  0.00    -0.002 C 
ATOM      6  C   UNL     1      -1.995   0.825   1.448  0.00  0.00    -0.000 C 
ATOM      7  C   UNL     1      -2.730   1.409   0.239  0.00  0.00    -0.002 C 
ATOM      8  C   UNL     1      -2.017   0.983  -1.046  0.00  0.00    -0.015 C 
ENDBRANCH   1   3
BRANCH   1   9
ATOM      9  C   UNL     1      -0.374   1.869  -3.410  0.00  0.00    -0.044 C 
BRANCH   9  10
ATOM     10  C   UNL     1       0.028   3.335  -3.240  0.00  0.00    +0.124 C 
BRANCH  10  11
ATOM     11  O   UNL     1       1.452   3.447  -3.277  0.00  0.00    -0.391 OA
ATOM     12  H   UNL     1       1.849   3.137  -4.102  0.00  0.00    +0.210 HD
ENDBRANCH  10  11
BRANCH  10  13
ATOM     13  C   UNL     1      -0.579   4.165  -4.373  0.00  0.00    +0.190 C 
BRANCH  13  14
ATOM     14  O   UNL     1      -0.302   5.549  -4.151  0.00  0.00    -0.370 OA
BRANCH  14  16
ATOM     15  C   UNL     1       0.211   6.600  -6.266  0.00  0.00    +0.043 C 
ATOM     16  C   UNL     1      -0.828   6.416  -5.158  0.00  0.00    +0.145 C 
BRANCH  16  17
ATOM     17  C   UNL     1      -1.155   7.755  -4.548  0.00  0.00    -0.019 A 
ATOM     18  C   UNL     1      -0.308   8.310  -3.607  0.00  0.00    +0.007 A 
ATOM     19  C   UNL     1      -0.605   9.541  -3.051  0.00  0.00    +0.020 A 
ATOM     20  C   UNL     1      -1.754  10.211  -3.429  0.00  0.00    +0.041 A 
ATOM     21  C   UNL     1      -2.604   9.652  -4.367  0.00  0.00    +0.020 A 
ATOM     22  C   UNL     1      -2.304   8.424  -4.926  0.00  0.00    +0.007 A 
ATOM     23 CL   UNL     1      -2.131  11.753  -2.726  0.00  0.00    -0.084 Cl
ENDBRANCH  16  17
ENDBRANCH  14  16
ENDBRANCH  13  14
ENDBRANCH  10  13
ENDBRANCH   9  10
ENDBRANCH   1   9
BRANCH   1  24
ATOM     24  C   UNL     1      -0.048  -0.349  -2.495  0.00  0.00    -0.039 C 
BRANCH  24  25
ATOM     25  C   UNL     1       0.959  -0.802  -3.521  0.00  0.00    -0.022 A 
ATOM     26  C   UNL     1       0.552  -1.087  -4.810  0.00  0.00    +0.005 A 
ATOM     27  C   UNL     1       1.475  -1.503  -5.751  0.00  0.00    +0.000 A 
ATOM     28  C   UNL     1       2.808  -1.633  -5.406  0.00  0.00    +0.004 A 
ATOM     29  C   UNL     1       3.220  -1.347  -4.119  0.00  0.00    +0.045 A 
ATOM     30  C   UNL     1       2.296  -0.926  -3.173  0.00  0.00    +0.118 A 
BRANCH  30  31
ATOM     31  O   UNL     1       2.700  -0.640  -1.907  0.00  0.00    -0.507 OA
ATOM     32  H   UNL     1       2.678  -1.397  -1.307  0.00  0.00    +0.292 HD
ENDBRANCH  30  31
ENDBRANCH  24  25
ENDBRANCH   1  24
TORSDOF 11
