REMARK  Name = ZINC20561429
REMARK  15 active torsions:
REMARK  status: ('A' for Active; 'I' for Inactive)
REMARK    1  A    between atoms: C_1  and  C_2
REMARK    2  A    between atoms: C_7  and  C_20
REMARK    3  A    between atoms: C_9  and  C_13
REMARK    4  A    between atoms: C_10  and  C_12
REMARK    5  A    between atoms: C_13  and  O_15
REMARK    6  A    between atoms: O_15  and  C_16
REMARK    7  A    between atoms: C_16  and  C_17
REMARK    8  A    between atoms: C_17  and  O_18
REMARK    9  A    between atoms: O_18  and  C_19
REMARK   10  A    between atoms: C_22  and  O_28
REMARK   11  A    between atoms: C_23  and  O_27
REMARK   12  A    between atoms: O_28  and  C_29
REMARK   13  A    between atoms: C_32  and  C_34
REMARK   14  A    between atoms: C_34  and  O_36
REMARK   15  A    between atoms: O_36  and  C_37
REMARK                            x       y       z     vdW  Elec       q    Type
REMARK                         _______ _______ _______ _____ _____    ______ ____
ROOT
ATOM      1  C   UNL     1       4.811  -1.354  -2.808  0.00  0.00    +0.009 C 
ATOM      2  C   UNL     1       3.419  -1.373  -3.441  0.00  0.00    +0.013 C 
ATOM      3  C   UNL     1       2.415  -1.979  -2.458  0.00  0.00    +0.055 C 
ATOM      4  C   UNL     1       2.351  -1.132  -1.211  0.00  0.00    +0.016 C 
ATOM      5  C   UNL     1       2.567   0.200  -1.264  0.00  0.00    +0.025 C 
ATOM      6  C   UNL     1       2.489   1.043  -0.016  0.00  0.00    +0.092 C 
ATOM      7  C   UNL     1       2.590   0.191   1.215  0.00  0.00    +0.065 C 
ATOM      8  C   UNL     1       2.379  -1.135   1.166  0.00  0.00    +0.016 C 
ATOM      9  N   UNL     1       2.071  -1.744  -0.019  0.00  0.00    -0.321 N 
ATOM     10  C   UNL     1       2.483  -1.957   2.425  0.00  0.00    +0.061 C 
ATOM     11  C   UNL     1       2.872   0.838  -2.479  0.00  0.00    +0.176 C 
ATOM     12  O   UNL     1       3.050   2.040  -2.494  0.00  0.00    -0.291 OA
ATOM     13  C   UNL     1       2.980   0.060  -3.762  0.00  0.00    +0.171 C 
ATOM     14  H   UNL     1       1.595  -2.735  -0.008  0.00  0.00    +0.152 HD
ENDROOT
BRANCH   6  15
ATOM     15  C   UNL     1       1.176   1.782   0.000  0.00  0.00    -0.030 A 
ATOM     16  C   UNL     1       1.162   3.164   0.007  0.00  0.00    +0.054 A 
ATOM     17  C   UNL     1      -0.044   3.846   0.022  0.00  0.00    +0.163 A 
ATOM     18  C   UNL     1      -1.241   3.136   0.030  0.00  0.00    +0.177 A 
ATOM     19  C   UNL     1      -1.221   1.750   0.017  0.00  0.00    +0.086 A 
ATOM     20  C   UNL     1      -0.013   1.076   0.008  0.00  0.00    +0.028 A 
ATOM     21 CL   UNL     1      -2.712   0.860   0.020  0.00  0.00    -0.080 Cl
BRANCH  18  22
ATOM     22  O   UNL     1      -2.428   3.801   0.045  0.00  0.00    -0.502 OA
ATOM     23  H   UNL     1      -3.373   3.238   0.051  0.00  0.00    +0.292 HD
ENDBRANCH  18  22
BRANCH  17  24
ATOM     24  O   UNL     1      -0.058   5.206   0.030  0.00  0.00    -0.491 OA
ATOM     25  C   UNL     1       1.208   5.868   0.022  0.00  0.00    +0.277 C 
ENDBRANCH  17  24
ENDBRANCH   6  15
BRANCH   7  26
ATOM     26  C   UNL     1       2.914   0.795   2.452  0.00  0.00    +0.338 C 
ATOM     27  O   UNL     1       2.999   0.115   3.458  0.00  0.00    -0.245 OA
BRANCH  26  28
ATOM     28  O   UNL     1       3.129   2.126   2.518  0.00  0.00    -0.459 OA
BRANCH  28  29
ATOM     29  C   UNL     1       3.452   2.668   3.799  0.00  0.00    +0.260 C 
BRANCH  29  30
ATOM     30  C   UNL     1       3.658   4.179   3.676  0.00  0.00    +0.200 C 
BRANCH  30  31
ATOM     31  O   UNL     1       2.426   4.800   3.302  0.00  0.00    -0.380 OA
ATOM     32  C   UNL     1       2.510   6.219   3.160  0.00  0.00    +0.194 C 
ENDBRANCH  30  31
ENDBRANCH  29  30
ENDBRANCH  28  29
ENDBRANCH  26  28
ENDBRANCH   7  26
BRANCH  13  33
ATOM     33  C   UNL     1       3.999   0.710  -4.662  0.00  0.00    +0.318 C 
ATOM     34  O   UNL     1       4.977   0.092  -5.012  0.00  0.00    -0.250 OA
BRANCH  33  35
ATOM     35  O   UNL     1       3.821   1.974  -5.075  0.00  0.00    -0.467 OA
ATOM     36  C   UNL     1       4.843   2.536  -5.940  0.00  0.00    +0.280 C 
ENDBRANCH  33  35
ENDBRANCH  13  33
TORSDOF 10
