REMARK  Name = ZINC49063475
REMARK  9 active torsions:
REMARK  status: ('A' for Active; 'I' for Inactive)
REMARK    1  A    between atoms: C_1  and  C_2
REMARK    2  A    between atoms: C_6  and  N_19
REMARK    3  A    between atoms: C_7  and  N_8
REMARK    4  A    between atoms: N_8  and  S_9
REMARK    5  A    between atoms: S_9  and  C_12
REMARK    6  A    between atoms: C_12  and  C_14
REMARK    7  A    between atoms: C_12  and  C_15
REMARK    8  A    between atoms: C_15  and  O_17
REMARK    9  A    between atoms: O_17  and  C_18
REMARK                            x       y       z     vdW  Elec       q    Type
REMARK                         _______ _______ _______ _____ _____    ______ ____
ROOT
ATOM      1  C   UNL     1       2.719  -0.229   1.326  0.00  0.00    +0.046 C 
ATOM      2  C   UNL     1       1.451  -0.715   0.673  0.00  0.00    -0.025 A 
ATOM      3  C   UNL     1       1.411  -0.913  -0.696  0.00  0.00    +0.020 A 
ATOM      4  C   UNL     1       0.249  -1.359  -1.300  0.00  0.00    +0.020 A 
ATOM      5  C   UNL     1      -0.879  -1.608  -0.538  0.00  0.00    +0.040 A 
ATOM      6  C   UNL     1      -0.846  -1.412   0.834  0.00  0.00    +0.049 A 
ATOM      7  C   UNL     1       0.327  -0.968   1.443  0.00  0.00    +0.071 A 
ATOM      8 BR   UNL     1       0.202  -1.626  -3.171  0.00  0.00    -0.050 Br
ENDROOT
BRANCH   6   9
ATOM      9  N   UNL     1      -1.987  -1.664   1.606  0.00  0.00    -0.356 N 
ATOM     10  H   UNL     1      -2.704  -2.210   1.248  0.00  0.00    +0.142 HD
ATOM     11  H   UNL     1      -2.059  -1.292   2.499  0.00  0.00    +0.142 HD
ENDBRANCH   6   9
BRANCH   7  12
ATOM     12  N   UNL     1       0.368  -0.773   2.830  0.00  0.00    -0.218 N 
ATOM     13  H   UNL     1       0.507   0.116   3.191  0.00  0.00    +0.173 HD
BRANCH  12  14
ATOM     14  S   UNL     1       0.179  -2.062   3.853  0.00  0.00    +0.056 S 
ATOM     15  O   UNL     1       0.216  -1.498   5.157  0.00  0.00    -0.154 OA
ATOM     16  O   UNL     1      -0.986  -2.728   3.385  0.00  0.00    -0.154 OA
BRANCH  14  17
ATOM     17  C   UNL     1       1.644  -3.095   3.577  0.00  0.00    +0.256 C 
ATOM     18  C   UNL     1       1.616  -3.648   2.151  0.00  0.00    +0.046 C 
BRANCH  17  19
ATOM     19  C   UNL     1       1.644  -4.238   4.559  0.00  0.00    +0.333 C 
ATOM     20  O   UNL     1       0.604  -4.625   5.037  0.00  0.00    -0.249 OA
BRANCH  19  21
ATOM     21  O   UNL     1       2.800  -4.827   4.903  0.00  0.00    -0.467 OA
ATOM     22  C   UNL     1       2.726  -5.905   5.839  0.00  0.00    +0.280 C 
ENDBRANCH  19  21
ENDBRANCH  17  19
ENDBRANCH  14  17
ENDBRANCH  12  14
ENDBRANCH   7  12
TORSDOF 6
