REMARK  Name = ZINC67388239
REMARK  3 active torsions:
REMARK  status: ('A' for Active; 'I' for Inactive)
REMARK    1  A    between atoms: C_5  and  C_7
REMARK    2  A    between atoms: N_16  and  C_17
REMARK    3  A    between atoms: C_23  and  C_25
REMARK                            x       y       z     vdW  Elec       q    Type
REMARK                         _______ _______ _______ _____ _____    ______ ____
ROOT
ATOM      1  C   UNL     1      -1.248  -3.966  -1.252  0.00  0.00    +0.168 C 
ATOM      2  C   UNL     1       0.004  -4.709  -0.768  0.00  0.00    +0.145 C 
ATOM      3  N   UNL     1       1.173  -4.150  -1.464  0.00  0.00    -0.281 N 
ATOM      4  C   UNL     1       1.347  -2.689  -1.462  0.00  0.00    +0.137 C 
ATOM      5  C   UNL     1       0.030  -2.045  -1.911  0.00  0.00    +0.179 C 
ATOM      6  O   UNL     1      -1.042  -2.558  -1.117  0.00  0.00    -0.369 OA
ATOM      7  C   UNL     1       2.059  -4.953  -2.086  0.00  0.00    +0.303 C 
ATOM      8  O   UNL     1       2.966  -4.469  -2.736  0.00  0.00    -0.253 OA
ATOM      9  N   UNL     1       1.941  -6.292  -1.988  0.00  0.00    -0.296 N 
ATOM     10  H   UNL     1       1.178  -6.678  -1.530  0.00  0.00    +0.151 HD
ENDROOT
BRANCH   1  15
ATOM     11  C   UNL     1      -3.896  -4.012   1.438  0.00  0.00    +0.001 A 
ATOM     12  C   UNL     1      -4.609  -5.149   1.107  0.00  0.00    +0.003 A 
ATOM     13  C   UNL     1      -4.235  -5.905   0.012  0.00  0.00    +0.039 A 
ATOM     14  C   UNL     1      -3.146  -5.523  -0.753  0.00  0.00    +0.129 A 
ATOM     15  C   UNL     1      -2.433  -4.383  -0.420  0.00  0.00    +0.018 A 
ATOM     16  C   UNL     1      -2.809  -3.629   0.675  0.00  0.00    +0.009 A 
ATOM     17  F   UNL     1      -2.779  -6.261  -1.823  0.00  0.00    -0.205 F 
ENDBRANCH   1  15
BRANCH   9  18
ATOM     18  C   UNL     1       2.964  -7.163  -2.571  0.00  0.00    +0.086 C 
ATOM     19  C   UNL     1       2.655  -7.391  -4.052  0.00  0.00    +0.023 C 
ATOM     20  C   UNL     1       1.282  -8.053  -4.191  0.00  0.00    +0.002 C 
ATOM     21  C   UNL     1       1.287  -9.396  -3.457  0.00  0.00    +0.001 C 
ATOM     22  C   UNL     1       1.596  -9.167  -1.976  0.00  0.00    +0.014 C 
ATOM     23  C   UNL     1       2.969  -8.505  -1.838  0.00  0.00    +0.113 C 
BRANCH  23  24
ATOM     24  C   UNL     1       3.278  -8.277  -0.357  0.00  0.00    +0.395 C 
ATOM     25  F   UNL     1       2.301  -7.445   0.200  0.00  0.00    -0.170 F 
ATOM     26  F   UNL     1       3.283  -9.505   0.313  0.00  0.00    -0.170 F 
ATOM     27  F   UNL     1       4.533  -7.672  -0.231  0.00  0.00    -0.170 F 
ENDBRANCH  23  24
ENDBRANCH   9  18
TORSDOF 3
