REMARK  Name = ZINC62767153
REMARK  6 active torsions:
REMARK  status: ('A' for Active; 'I' for Inactive)
REMARK    1  A    between atoms: C_1  and  C_2
REMARK    2  A    between atoms: C_2  and  C_3
REMARK    3  A    between atoms: C_3  and  N_4
REMARK    4  A    between atoms: C_10  and  S_11
REMARK    5  A    between atoms: S_11  and  C_12
REMARK    6  A    between atoms: C_19  and  C_21
REMARK                            x       y       z     vdW  Elec       q    Type
REMARK                         _______ _______ _______ _____ _____    ______ ____
ROOT
ATOM      1  S   UNL     1      -1.383  -2.260   2.790  0.00  0.00    -0.082 S 
ENDROOT
BRANCH   1   8
ATOM      2  N   UNL     1      -1.413  -1.998   0.005  0.00  0.00    -0.271 N 
ATOM      3  C   UNL     1      -1.407  -2.781  -1.092  0.00  0.00    +0.345 A 
ATOM      4  O   UNL     1      -1.417  -2.400  -2.249  0.00  0.00    -0.245 OA
ATOM      5  N   UNL     1      -1.388  -4.065  -0.677  0.00  0.00    -0.226 N 
ATOM      6  H   UNL     1      -1.379  -4.852  -1.244  0.00  0.00    +0.194 HD
ATOM      7  N   UNL     1      -1.383  -4.052   0.725  0.00  0.00    -0.145 NA
ATOM      8  C   UNL     1      -1.392  -2.810   1.116  0.00  0.00    +0.192 A 
BRANCH   2   9
ATOM      9  C   UNL     1      -1.433  -0.534   0.013  0.00  0.00    +0.129 C 
BRANCH   9  11
ATOM     10  C   UNL     1      -0.019   1.526   0.010  0.00  0.00    +0.005 C 
ATOM     11  C   UNL     1       0.002  -0.004   0.002  0.00  0.00    +0.018 C 
ENDBRANCH   9  11
ENDBRANCH   2   9
ENDBRANCH   1   8
BRANCH   1  12
ATOM     12  C   UNL     1      -1.353  -3.796   3.756  0.00  0.00    +0.068 C 
ATOM     13  C   UNL     1      -0.071  -4.528   3.467  0.00  0.00    +0.015 C 
ATOM     14  C   UNL     1      -0.356  -6.044   3.495  0.00  0.00    +0.001 C 
ATOM     15  C   UNL     1      -0.406  -6.574   4.850  0.00  0.00    +0.000 C 
ATOM     16  C   UNL     1      -1.538  -5.942   5.686  0.00  0.00    +0.001 C 
ATOM     17  C   UNL     1      -1.075  -4.598   6.179  0.00  0.00    +0.016 C 
ATOM     18  C   UNL     1      -1.507  -3.448   5.249  0.00  0.00    +0.115 C 
BRANCH  18  19
ATOM     19  C   UNL     1      -0.669  -2.234   5.554  0.00  0.00    +0.360 C 
ATOM     20  O   UNL     1      -1.095  -1.371   6.303  0.00  0.00    -0.246 OA
ATOM     21  O   UNL     1       0.436  -2.114   5.053  0.00  0.00    -0.246 OA
ENDBRANCH  18  19
ENDBRANCH   1  12
TORSDOF 5
