REMARK  Name = ZINC05792490
REMARK  8 active torsions:
REMARK  status: ('A' for Active; 'I' for Inactive)
REMARK    1  A    between atoms: C_1  and  C_2
REMARK    2  A    between atoms: C_3  and  C_23
REMARK    3  A    between atoms: C_8  and  C_10
REMARK    4  A    between atoms: C_17  and  C_19
REMARK    5  A    between atoms: C_26  and  C_29
REMARK    6  A    between atoms: C_29  and  C_30
REMARK    7  A    between atoms: C_30  and  C_31
REMARK    8  A    between atoms: C_30  and  C_32
REMARK                            x       y       z     vdW  Elec       q    Type
REMARK                         _______ _______ _______ _____ _____    ______ ____
ROOT
ATOM      1  C   UNL     1       4.190   4.623   0.220  0.00  0.00    +0.054 C 
ATOM      2  C   UNL     1       3.199   3.491   0.134  0.00  0.00    +0.016 A 
ATOM      3  C   UNL     1       3.418   2.146   0.017  0.00  0.00    +0.083 A 
ATOM      4  N   UNL     1       2.382   1.322  -0.038  0.00  0.00    -0.224 NA
ATOM      5  C   UNL     1       1.143   1.774   0.007  0.00  0.00    +0.165 A 
ATOM      6  S   UNL     1       1.412   3.535   0.154  0.00  0.00    -0.057 S 
ATOM      7  N   UNL     1      -0.053   1.068  -0.042  0.00  0.00    -0.264 N 
ATOM      8  C   UNL     1      -1.227   1.726   0.019  0.00  0.00    +0.223 C 
ATOM      9  O   UNL     1      -1.240   2.935   0.122  0.00  0.00    -0.275 OA
ATOM     10  H   UNL     1      -0.042   0.102  -0.124  0.00  0.00    +0.157 HD
ENDROOT
BRANCH   8  11
ATOM     11  C   UNL     1      -2.524   0.961  -0.040  0.00  0.00    +0.097 C 
ATOM     12  C   UNL     1      -3.739   1.942  -0.068  0.00  0.00    +0.025 C 
ATOM     13  C   UNL     1      -4.862   1.020   0.533  0.00  0.00    +0.016 C 
ATOM     14  C   UNL     1      -4.055   0.744   1.855  0.00  0.00    +0.027 C 
ATOM     15  C   UNL     1      -2.735   0.147   1.260  0.00  0.00    +0.121 C 
ATOM     16  C   UNL     1      -3.678   2.181   2.235  0.00  0.00    -0.027 C 
ATOM     17  C   UNL     1      -3.496   2.871   1.127  0.00  0.00    -0.027 C 
BRANCH  15  18
ATOM     18  C   UNL     1      -1.583   0.355   2.208  0.00  0.00    +0.360 C 
ATOM     19  O   UNL     1      -1.575   1.310   2.949  0.00  0.00    -0.246 OA
ATOM     20  O   UNL     1      -0.566  -0.520   2.231  0.00  0.00    -0.246 OA
ENDBRANCH  15  18
ENDBRANCH   8  11
BRANCH   3  21
ATOM     21  C   UNL     1       4.801   1.615  -0.041  0.00  0.00    +0.001 A 
ATOM     22  C   UNL     1       5.127   0.609  -0.949  0.00  0.00    +0.010 A 
ATOM     23  C   UNL     1       6.417   0.122  -1.002  0.00  0.00    +0.004 A 
ATOM     24  C   UNL     1       7.384   0.624  -0.150  0.00  0.00    -0.047 A 
ATOM     25  C   UNL     1       7.066   1.619   0.756  0.00  0.00    +0.004 A 
ATOM     26  C   UNL     1       5.780   2.117   0.815  0.00  0.00    +0.010 A 
BRANCH  24  27
ATOM     27  C   UNL     1       8.790   0.085  -0.209  0.00  0.00    +0.038 C 
BRANCH  27  28
ATOM     28  C   UNL     1       8.923  -1.100   0.750  0.00  0.00    -0.013 C 
ATOM     29  C   UNL     1       8.029  -2.246   0.271  0.00  0.00    +0.007 C 
ATOM     30  C   UNL     1      10.379  -1.569   0.783  0.00  0.00    +0.007 C 
ENDBRANCH  27  28
ENDBRANCH  24  27
ENDBRANCH   3  21
TORSDOF 5
