REMARK  Name = ZINC43261408
REMARK  8 active torsions:
REMARK  status: ('A' for Active; 'I' for Inactive)
REMARK    1  A    between atoms: C_1  and  C_2
REMARK    2  A    between atoms: C_2  and  C_4
REMARK    3  A    between atoms: C_2  and  N_22
REMARK    4  A    between atoms: C_4  and  C_6
REMARK    5  A    between atoms: C_4  and  N_12
REMARK    6  A    between atoms: N_12  and  C_13
REMARK    7  A    between atoms: N_12  and  C_14
REMARK    8  A    between atoms: C_14  and  C_15
REMARK                            x       y       z     vdW  Elec       q    Type
REMARK                         _______ _______ _______ _____ _____    ______ ____
ROOT
ATOM      1  C   UNL     1       0.636  -0.355  -1.284  0.00  0.00    +0.079 C 
ENDROOT
BRANCH   1   2
ATOM      2  C   UNL     1       0.411  -1.841  -1.182  0.00  0.00    +0.006 A 
ATOM      3  C   UNL     1      -0.490  -2.615  -1.835  0.00  0.00    +0.014 A 
ATOM      4  C   UNL     1      -0.516  -3.973  -1.581  0.00  0.00    +0.023 A 
ATOM      5  C   UNL     1       0.360  -4.492  -0.685  0.00  0.00    +0.055 A 
ATOM      6  S   UNL     1       1.268  -3.042  -0.175  0.00  0.00    -0.085 S 
ATOM      7 BR   UNL     1       0.571  -6.286  -0.127  0.00  0.00    -0.043 Br
ENDBRANCH   1   2
BRANCH   1   9
ATOM      8  C   UNL     1       0.602   1.798  -0.016  0.00  0.00    -0.012 C 
ATOM      9  C   UNL     1       0.239   0.313   0.035  0.00  0.00    -0.056 C 
BRANCH   9  10
ATOM     10  N   UNL     1      -1.209   0.169   0.239  0.00  0.00    +0.381 N 
ATOM     11  H   UNL     1      -1.702   0.610  -0.523  0.00  0.00    -0.090 HD
ATOM     12  H   UNL     1      -1.449  -0.810   0.272  0.00  0.00    -0.090 HD
ATOM     13  H   UNL     1      -1.471   0.609   1.108  0.00  0.00    -0.090 HD
ENDBRANCH   9  10
ENDBRANCH   1   9
BRANCH   1  14
ATOM     14  N   UNL     1       2.055  -0.092  -1.557  0.00  0.00    -0.295 NA
ATOM     15  C   UNL     1       2.440  -0.602  -2.880  0.00  0.00    +0.105 C 
BRANCH  14  16
ATOM     16  C   UNL     1       2.908  -0.661  -0.505  0.00  0.00    +0.119 C 
BRANCH  16  17
ATOM     17  C   UNL     1       4.281  -0.044  -0.583  0.00  0.00    -0.033 A 
ATOM     18  C   UNL     1       5.256  -0.626  -1.373  0.00  0.00    +0.006 A 
ATOM     19  C   UNL     1       6.515  -0.061  -1.445  0.00  0.00    +0.020 A 
ATOM     20  C   UNL     1       6.801   1.086  -0.727  0.00  0.00    +0.041 A 
ATOM     21  C   UNL     1       5.825   1.668   0.064  0.00  0.00    +0.020 A 
ATOM     22  C   UNL     1       4.564   1.105   0.131  0.00  0.00    +0.006 A 
ATOM     23 CL   UNL     1       8.382   1.796  -0.817  0.00  0.00    -0.084 Cl
ENDBRANCH  16  17
ENDBRANCH  14  16
ENDBRANCH   1  14
TORSDOF 6
