REMARK  Name = ZINC18172495
REMARK  3 active torsions:
REMARK  status: ('A' for Active; 'I' for Inactive)
REMARK    1  A    between atoms: C_3  and  N_18
REMARK    2  A    between atoms: C_6  and  N_7
REMARK    3  A    between atoms: N_10  and  C_11
REMARK                            x       y       z     vdW  Elec       q    Type
REMARK                         _______ _______ _______ _____ _____    ______ ____
ROOT
ATOM      1  N   UNL     1       1.137   3.488   0.037  0.00  0.00    -0.269 N 
ATOM      2  C   UNL     1       0.152   4.097   0.728  0.00  0.00    +0.308 C 
ATOM      3  O   UNL     1      -0.626   3.436   1.388  0.00  0.00    -0.252 OA
ATOM      4  N   UNL     1       0.029   5.438   0.685  0.00  0.00    -0.269 N 
ATOM      5  H   UNL     1       1.804   4.019  -0.426  0.00  0.00    +0.156 HD
ATOM      6  H   UNL     1       0.689   5.971   0.214  0.00  0.00    +0.156 HD
ENDROOT
BRANCH   4   7
ATOM      7  C   UNL     1      -1.049   6.063   1.323  0.00  0.00    +0.035 A 
ATOM      8  C   UNL     1      -1.620   7.202   0.769  0.00  0.00    +0.025 A 
ATOM      9  C   UNL     1      -2.687   7.813   1.396  0.00  0.00    +0.022 A 
ATOM     10  C   UNL     1      -3.181   7.298   2.582  0.00  0.00    +0.041 A 
ATOM     11  C   UNL     1      -2.611   6.167   3.139  0.00  0.00    +0.022 A 
ATOM     12  C   UNL     1      -1.547   5.549   2.513  0.00  0.00    +0.025 A 
ATOM     13 CL   UNL     1      -4.519   8.073   3.372  0.00  0.00    -0.084 Cl
ENDBRANCH   4   7
BRANCH   1  19
ATOM     14  C   UNL     1       0.025   1.344  -0.032  0.00  0.00    +0.025 A 
ATOM     15  C   UNL     1       0.084  -0.035  -0.081  0.00  0.00    +0.025 A 
ATOM     16  C   UNL     1       1.315  -0.677  -0.107  0.00  0.00    +0.030 A 
ATOM     17  C   UNL     1       2.487   0.068  -0.086  0.00  0.00    +0.025 A 
ATOM     18  C   UNL     1       2.428   1.447  -0.038  0.00  0.00    +0.025 A 
ATOM     19  C   UNL     1       1.197   2.088  -0.011  0.00  0.00    +0.035 A 
BRANCH  16  20
ATOM     20  N   UNL     1       1.375  -2.074  -0.156  0.00  0.00    -0.330 N 
ATOM     21  C   UNL     1       0.763  -2.675   1.056  0.00  0.00    +0.105 C 
ATOM     22  C   UNL     1       0.441  -4.123   0.610  0.00  0.00    +0.020 C 
ATOM     23  C   UNL     1      -0.009  -3.941  -0.858  0.00  0.00    +0.020 C 
ATOM     24  C   UNL     1       0.601  -2.598  -1.301  0.00  0.00    +0.105 C 
ENDBRANCH  16  20
ENDBRANCH   1  19
TORSDOF 3
