REMARK  Name = ZINC04691436
REMARK  2 active torsions:
REMARK  status: ('A' for Active; 'I' for Inactive)
REMARK    1  A    between atoms: C_4  and  C_8
REMARK    2  A    between atoms: C_11  and  C_19
REMARK                            x       y       z     vdW  Elec       q    Type
REMARK                         _______ _______ _______ _____ _____    ______ ____
ROOT
ATOM      1  C   UNL     1       3.713  -0.707  -0.038  0.00  0.00    +0.145 C 
ATOM      2  C   UNL     1       3.819  -1.600   1.204  0.00  0.00    +0.059 C 
ATOM      3  C   UNL     1       5.014  -2.550   1.058  0.00  0.00    +0.106 C 
ATOM      4  N   UNL     1       4.781  -3.425  -0.106  0.00  0.00    -0.307 N 
ATOM      5  C   UNL     1       4.285  -2.809  -1.248  0.00  0.00    +0.215 A 
ATOM      6  N   UNL     1       3.790  -1.546  -1.234  0.00  0.00    -0.226 N 
ATOM      7  N   UNL     1       3.394  -1.258  -2.541  0.00  0.00    -0.156 NA
ATOM      8  C   UNL     1       3.659  -2.321  -3.259  0.00  0.00    +0.247 A 
ATOM      9  N   UNL     1       4.197  -3.264  -2.469  0.00  0.00    -0.202 NA
ATOM     10  H   UNL     1       4.964  -4.377  -0.076  0.00  0.00    +0.149 HD
ENDROOT
BRANCH   1  14
ATOM     11  C   UNL     1      -0.017   1.378   0.010  0.00  0.00    +0.003 A 
ATOM     12  C   UNL     1       1.171   2.086   0.002  0.00  0.00    +0.020 A 
ATOM     13  C   UNL     1       2.378   1.411  -0.013  0.00  0.00    +0.048 A 
ATOM     14  C   UNL     1       2.398   0.028  -0.021  0.00  0.00    +0.014 A 
ATOM     15  C   UNL     1       1.209  -0.680  -0.013  0.00  0.00    +0.048 A 
ATOM     16  C   UNL     1       0.002  -0.004   0.002  0.00  0.00    +0.020 A 
ATOM     17 CL   UNL     1       1.233  -2.416  -0.023  0.00  0.00    -0.083 Cl
ATOM     18 CL   UNL     1       3.869   2.300  -0.024  0.00  0.00    -0.083 Cl
ENDBRANCH   1  14
BRANCH   3  19
ATOM     19  C   UNL     1       6.274  -1.749   0.850  0.00  0.00    -0.027 A 
ATOM     20  C   UNL     1       6.568  -1.237  -0.400  0.00  0.00    +0.007 A 
ATOM     21  C   UNL     1       7.723  -0.502  -0.591  0.00  0.00    +0.020 A 
ATOM     22  C   UNL     1       8.585  -0.280   0.468  0.00  0.00    +0.041 A 
ATOM     23  C   UNL     1       8.290  -0.793   1.719  0.00  0.00    +0.020 A 
ATOM     24  C   UNL     1       7.131  -1.522   1.910  0.00  0.00    +0.007 A 
ATOM     25 CL   UNL     1      10.036   0.642   0.228  0.00  0.00    -0.084 Cl
ENDBRANCH   3  19
TORSDOF 2
