REMARK  Name = ZINC29209798
REMARK  8 active torsions:
REMARK  status: ('A' for Active; 'I' for Inactive)
REMARK    1  A    between atoms: C_6  and  C_11
REMARK    2  A    between atoms: C_11  and  O_12
REMARK    3  A    between atoms: O_12  and  C_13
REMARK    4  A    between atoms: C_19  and  C_21
REMARK    5  A    between atoms: C_24  and  O_27
REMARK    6  A    between atoms: O_27  and  C_28
REMARK    7  A    between atoms: C_28  and  C_29
REMARK    8  A    between atoms: C_31  and  C_34
REMARK                            x       y       z     vdW  Elec       q    Type
REMARK                         _______ _______ _______ _____ _____    ______ ____
ROOT
ATOM      1  C   UNL     1       5.302   3.160  -1.496  0.00  0.00    +0.109 C 
ATOM      2  C   UNL     1       6.468   2.171  -1.559  0.00  0.00    -0.050 C 
ATOM      3  N   UNL     1       7.729   2.909  -1.706  0.00  0.00    +0.381 N 
ATOM      4  C   UNL     1       7.750   3.683  -2.953  0.00  0.00    -0.082 C 
ATOM      5  C   UNL     1       6.622   4.717  -2.933  0.00  0.00    -0.009 C 
ATOM      6  C   UNL     1       5.279   3.997  -2.779  0.00  0.00    +0.044 C 
ATOM      7  H   UNL     1       7.849   3.603  -0.860  0.00  0.00    -0.086 HD
ATOM      8  H   UNL     1       8.570   2.199  -1.719  0.00  0.00    -0.086 HD
ENDROOT
BRANCH   6   9
ATOM      9  C   UNL     1       4.169   5.013  -2.697  0.00  0.00    -0.042 A 
ATOM     10  C   UNL     1       4.165   5.950  -1.681  0.00  0.00    +0.007 A 
ATOM     11  C   UNL     1       3.152   6.886  -1.607  0.00  0.00    +0.046 A 
ATOM     12  C   UNL     1       2.132   6.878  -2.548  0.00  0.00    +0.121 A 
ATOM     13  C   UNL     1       2.135   5.933  -3.563  0.00  0.00    +0.046 A 
ATOM     14  C   UNL     1       3.154   5.003  -3.636  0.00  0.00    +0.007 A 
BRANCH  12  15
ATOM     15  O   UNL     1       1.131   7.795  -2.475  0.00  0.00    -0.483 OA
BRANCH  15  16
ATOM     16  C   UNL     1       1.192   8.738  -1.403  0.00  0.00    +0.327 C 
BRANCH  16  17
ATOM     17  C   UNL     1       0.009   9.667  -1.483  0.00  0.00    +0.265 A 
ATOM     18  N   UNL     1      -1.159   9.491  -0.916  0.00  0.00    -0.188 NA
ATOM     19  C   UNL     1      -1.897  10.570  -1.261  0.00  0.00    +0.204 A 
ATOM     20  N   UNL     1      -1.141  11.331  -2.010  0.00  0.00    -0.056 NA
ATOM     21  O   UNL     1      -0.045  10.829  -2.142  0.00  0.00    -0.334 OA
BRANCH  19  22
ATOM     22  C   UNL     1      -3.301  10.841  -0.863  0.00  0.00    +0.041 A 
ATOM     23  C   UNL     1      -3.947  12.006  -1.288  0.00  0.00    +0.014 A 
ATOM     24  C   UNL     1      -5.258  12.210  -0.894  0.00  0.00    +0.020 A 
ATOM     25  C   UNL     1      -5.878  11.268  -0.092  0.00  0.00    +0.111 A 
ATOM     26  N   UNL     1      -5.240  10.181   0.297  0.00  0.00    -0.263 NA
ATOM     27  C   UNL     1      -3.994   9.942  -0.057  0.00  0.00    +0.122 A 
ENDBRANCH  19  22
ENDBRANCH  16  17
ENDBRANCH  15  16
ENDBRANCH  12  15
ENDBRANCH   6   9
BRANCH   1  28
ATOM     28  O   UNL     1       4.073   2.441  -1.374  0.00  0.00    -0.373 OA
BRANCH  28  29
ATOM     29  C   UNL     1       3.675   2.194  -0.024  0.00  0.00    +0.195 C 
BRANCH  29  35
ATOM     30  C   UNL     1      -2.389  -0.025   0.027  0.00  0.00    +0.001 A 
ATOM     31  C   UNL     1      -2.408   1.369   0.035  0.00  0.00    +0.001 A 
ATOM     32  C   UNL     1      -1.251   2.085   0.031  0.00  0.00    +0.008 A 
ATOM     33  C   UNL     1      -0.017   1.413   0.010  0.00  0.00    -0.018 A 
ATOM     34  C   UNL     1       1.198   2.119   0.002  0.00  0.00    +0.014 A 
ATOM     35  C   UNL     1       2.374   1.434  -0.014  0.00  0.00    -0.021 A 
ATOM     36  C   UNL     1       2.393   0.040  -0.021  0.00  0.00    +0.006 A 
ATOM     37  C   UNL     1       1.236  -0.676  -0.014  0.00  0.00    +0.009 A 
ATOM     38  C   UNL     1       0.002  -0.004   0.002  0.00  0.00    -0.018 A 
ATOM     39  C   UNL     1      -1.213  -0.710   0.011  0.00  0.00    +0.008 A 
ENDBRANCH  29  35
ENDBRANCH  28  29
ENDBRANCH   1  28
TORSDOF 8
