REMARK  Name = ZINC12079740
REMARK  6 active torsions:
REMARK  status: ('A' for Active; 'I' for Inactive)
REMARK    1  A    between atoms: C_1  and  C_2
REMARK    2  A    between atoms: C_2  and  C_4
REMARK    3  A    between atoms: C_2  and  N_47
REMARK    4  A    between atoms: C_14  and  C_15
REMARK    5  A    between atoms: C_14  and  N_47
REMARK    6  A    between atoms: C_24  and  C_25
REMARK                            x       y       z     vdW  Elec       q    Type
REMARK                         _______ _______ _______ _____ _____    ______ ____
ROOT
ATOM      1  C   UNL     1      -0.176  -2.686  -1.402  0.00  0.00    -0.044 C 
ENDROOT
BRANCH   1   2
ATOM      2  C   UNL     1      -1.479  -2.301  -0.750  0.00  0.00    -0.038 A 
ATOM      3  C   UNL     1      -1.698  -2.590   0.564  0.00  0.00    +0.013 A 
ATOM      4  C   UNL     1      -2.932  -2.218   1.134  0.00  0.00    +0.001 A 
ATOM      5  C   UNL     1      -3.223  -2.491   2.479  0.00  0.00    +0.011 A 
ATOM      6  C   UNL     1      -4.426  -2.119   2.998  0.00  0.00    +0.021 A 
ATOM      7  C   UNL     1      -5.373  -1.468   2.209  0.00  0.00    +0.043 A 
ATOM      8  C   UNL     1      -5.123  -1.186   0.900  0.00  0.00    +0.048 A 
ATOM      9  C   UNL     1      -3.893  -1.556   0.330  0.00  0.00    +0.073 A 
ATOM     10  N   UNL     1      -3.623  -1.293  -0.952  0.00  0.00    -0.246 NA
ATOM     11  C   UNL     1      -2.469  -1.639  -1.494  0.00  0.00    +0.074 A 
ATOM     12 CL   UNL     1      -6.895  -1.008   2.907  0.00  0.00    -0.083 Cl
BRANCH  11  13
ATOM     13  C   UNL     1      -2.216  -1.326  -2.919  0.00  0.00    +0.008 A 
ATOM     14  C   UNL     1      -3.193  -1.559  -3.886  0.00  0.00    +0.017 A 
ATOM     15  C   UNL     1      -2.894  -1.251  -5.168  0.00  0.00    +0.046 A 
ATOM     16  S   UNL     1      -1.230  -0.627  -5.031  0.00  0.00    -0.104 S 
ATOM     17  C   UNL     1      -1.020  -0.803  -3.319  0.00  0.00    +0.055 A 
ENDBRANCH  11  13
ENDBRANCH   1   2
BRANCH   1  18
ATOM     18  N   UNL     1       0.614  -3.500  -0.458  0.00  0.00    +0.388 N 
ATOM     19  H   UNL     1       0.876  -2.923   0.349  0.00  0.00    -0.084 HD
ATOM     20  H   UNL     1       0.049  -4.296  -0.141  0.00  0.00    -0.084 HD
BRANCH  18  22
ATOM     21  C   UNL     1       2.936  -2.942  -1.025  0.00  0.00    -0.006 C 
ATOM     22  C   UNL     1       1.836  -4.002  -1.114  0.00  0.00    -0.007 C 
BRANCH  22  23
ATOM     23  C   UNL     1       2.291  -5.258  -0.417  0.00  0.00    +0.094 A 
ATOM     24  N   UNL     1       3.041  -6.239  -0.989  0.00  0.00    -0.343 N 
ATOM     25  H   UNL     1       3.381  -6.253  -1.930  0.00  0.00    +0.167 HD
ATOM     26  C   UNL     1       3.247  -7.210  -0.030  0.00  0.00    +0.066 A 
ATOM     27  C   UNL     1       3.921  -8.424  -0.012  0.00  0.00    +0.028 A 
ATOM     28  C   UNL     1       3.933  -9.182   1.139  0.00  0.00    +0.002 A 
ATOM     29  C   UNL     1       3.274  -8.741   2.278  0.00  0.00    +0.002 A 
ATOM     30  C   UNL     1       2.605  -7.549   2.279  0.00  0.00    +0.030 A 
ATOM     31  C   UNL     1       2.581  -6.764   1.123  0.00  0.00    +0.089 A 
ATOM     32  N   UNL     1       2.019  -5.566   0.817  0.00  0.00    -0.234 NA
ENDBRANCH  22  23
ENDBRANCH  18  22
ENDBRANCH   1  18
TORSDOF 5
