REMARK  Name = ZINC00887279
REMARK  12 active torsions:
REMARK  status: ('A' for Active; 'I' for Inactive)
REMARK    1  A    between atoms: C_1  and  C_2
REMARK    2  A    between atoms: C_5  and  C_8
REMARK    3  A    between atoms: N_11  and  C_13
REMARK    4  A    between atoms: C_13  and  C_14
REMARK    5  A    between atoms: N_16  and  C_17
REMARK    6  A    between atoms: N_16  and  C_25
REMARK    7  A    between atoms: C_17  and  C_18
REMARK    8  A    between atoms: C_18  and  C_19
REMARK    9  A    between atoms: C_25  and  C_27
REMARK   10  A    between atoms: C_25  and  C_33
REMARK   11  A    between atoms: C_30  and  C_32
REMARK   12  A    between atoms: N_35  and  C_36
REMARK                            x       y       z     vdW  Elec       q    Type
REMARK                         _______ _______ _______ _____ _____    ______ ____
ROOT
ATOM      1  C   UNL     1      -1.268  -3.236   2.486  0.00  0.00    +0.240 C 
ATOM      2  O   UNL     1      -1.903  -3.344   3.514  0.00  0.00    -0.273 OA
ATOM      3  N   UNL     1      -1.893  -2.899   1.341  0.00  0.00    -0.282 N 
ENDROOT
BRANCH   1   4
ATOM      4  C   UNL     1       0.219  -3.480   2.490  0.00  0.00    +0.264 C 
BRANCH   4   8
ATOM      5  C   UNL     1       1.351  -3.674   5.827  0.00  0.00    +0.205 A 
ATOM      6  N   UNL     1       1.133  -4.965   5.541  0.00  0.00    -0.108 NA
ATOM      7  N   UNL     1       0.709  -5.022   4.325  0.00  0.00    -0.045 NA
ATOM      8  N   UNL     1       0.654  -3.829   3.845  0.00  0.00    -0.154 N 
ATOM      9  N   UNL     1       1.045  -2.991   4.742  0.00  0.00    -0.130 NA
BRANCH   5  14
ATOM     10  C   UNL     1       3.272  -1.529  10.815  0.00  0.00    +0.044 C 
ATOM     11  C   UNL     1       2.769  -2.091   9.510  0.00  0.00    -0.050 A 
ATOM     12  C   UNL     1       2.594  -3.455   9.369  0.00  0.00    +0.004 A 
ATOM     13  C   UNL     1       2.134  -3.974   8.176  0.00  0.00    +0.012 A 
ATOM     14  C   UNL     1       1.846  -3.121   7.113  0.00  0.00    +0.023 A 
ATOM     15  C   UNL     1       2.029  -1.748   7.259  0.00  0.00    +0.012 A 
ATOM     16  C   UNL     1       2.486  -1.239   8.458  0.00  0.00    +0.004 A 
ENDBRANCH   5  14
ENDBRANCH   4   8
ENDBRANCH   1   4
BRANCH   3  17
ATOM     17  C   UNL     1      -3.338  -2.662   1.337  0.00  0.00    +0.113 C 
BRANCH  17  18
ATOM     18  C   UNL     1      -4.072  -3.991   1.148  0.00  0.00    +0.054 C 
BRANCH  18  19
ATOM     19  C   UNL     1      -5.560  -3.757   1.209  0.00  0.00    -0.046 A 
ATOM     20  C   UNL     1      -6.223  -3.835   2.420  0.00  0.00    +0.004 A 
ATOM     21  C   UNL     1      -7.586  -3.614   2.476  0.00  0.00    +0.000 A 
ATOM     22  C   UNL     1      -8.289  -3.327   1.321  0.00  0.00    +0.000 A 
ATOM     23  C   UNL     1      -7.627  -3.255   0.110  0.00  0.00    +0.000 A 
ATOM     24  C   UNL     1      -6.262  -3.469   0.054  0.00  0.00    +0.004 A 
ENDBRANCH  18  19
ENDBRANCH  17  18
ENDBRANCH   3  17
BRANCH   3  25
ATOM     25  C   UNL     1      -1.126  -2.769   0.099  0.00  0.00    +0.228 C 
BRANCH  25  26
ATOM     26  C   UNL     1      -1.751  -3.628  -0.969  0.00  0.00    +0.135 A 
ATOM     27  C   UNL     1      -1.108  -4.539  -1.722  0.00  0.00    +0.047 A 
ATOM     28  C   UNL     1      -2.070  -5.107  -2.588  0.00  0.00    +0.045 A 
ATOM     29  C   UNL     1      -3.243  -4.510  -2.313  0.00  0.00    +0.102 A 
ATOM     30  O   UNL     1      -3.045  -3.619  -1.328  0.00  0.00    -0.462 OA
ATOM     31  C   UNL     1      -4.558  -4.797  -2.990  0.00  0.00    +0.086 C 
ENDBRANCH  25  26
BRANCH  25  32
ATOM     32  C   UNL     1      -1.132  -1.329  -0.346  0.00  0.00    +0.241 C 
ATOM     33  O   UNL     1      -1.983  -0.570   0.067  0.00  0.00    -0.273 OA
ATOM     34  N   UNL     1      -0.193  -0.885  -1.205  0.00  0.00    -0.311 N 
ATOM     35  H   UNL     1       0.487  -1.493  -1.536  0.00  0.00    +0.149 HD
BRANCH  34  36
ATOM     36  C   UNL     1      -0.199   0.514  -1.639  0.00  0.00    +0.073 C 
ATOM     37  C   UNL     1      -1.101   0.679  -2.880  0.00  0.00    +0.022 C 
ATOM     38  C   UNL     1      -0.363   1.727  -3.749  0.00  0.00    +0.002 C 
ATOM     39  C   UNL     1       1.126   1.349  -3.549  0.00  0.00    +0.002 C 
ATOM     40  C   UNL     1       1.216   0.940  -2.064  0.00  0.00    +0.022 C 
ENDBRANCH  34  36
ENDBRANCH  25  32
ENDBRANCH   3  25
TORSDOF 10
