REMARK  Name = ZINC38687788
REMARK  9 active torsions:
REMARK  status: ('A' for Active; 'I' for Inactive)
REMARK    1  A    between atoms: C_1  and  C_2
REMARK    2  A    between atoms: C_2  and  C_3
REMARK    3  A    between atoms: C_9  and  C_36
REMARK    4  A    between atoms: C_10  and  C_12
REMARK    5  A    between atoms: C_12  and  O_14
REMARK    6  A    between atoms: O_14  and  C_15
REMARK    7  A    between atoms: C_22  and  N_35
REMARK    8  A    between atoms: C_23  and  C_33
REMARK    9  A    between atoms: C_24  and  C_26
REMARK                            x       y       z     vdW  Elec       q    Type
REMARK                         _______ _______ _______ _____ _____    ______ ____
ROOT
ATOM      1  C   UNL     1       2.599  -3.186   8.730  0.00  0.00    +0.136 A 
ATOM      2  C   UNL     1       1.361  -3.262   9.353  0.00  0.00    +0.047 A 
ATOM      3  C   UNL     1       1.273  -3.693  10.662  0.00  0.00    +0.012 A 
ATOM      4  C   UNL     1       2.415  -4.050  11.357  0.00  0.00    +0.008 A 
ATOM      5  C   UNL     1       3.653  -3.976  10.739  0.00  0.00    +0.138 A 
ATOM      6  C   UNL     1       3.743  -3.548   9.421  0.00  0.00    +0.093 A 
ATOM      7  O   UNL     1       4.784  -4.321  11.404  0.00  0.00    -0.441 OA
ATOM      8  C   UNL     1       4.706  -5.088  12.505  0.00  0.00    +0.199 C 
ATOM      9  C   UNL     1       3.555  -5.224  13.204  0.00  0.00    +0.098 C 
ATOM     10  C   UNL     1       2.297  -4.517  12.784  0.00  0.00    +0.098 C 
ENDROOT
BRANCH  10  11
ATOM     11  C   UNL     1       2.069  -3.328  13.681  0.00  0.00    -0.035 A 
ATOM     12  C   UNL     1       3.004  -2.311  13.731  0.00  0.00    +0.006 A 
ATOM     13  C   UNL     1       2.795  -1.220  14.554  0.00  0.00    +0.020 A 
ATOM     14  C   UNL     1       1.650  -1.146  15.327  0.00  0.00    +0.041 A 
ATOM     15  C   UNL     1       0.715  -2.164  15.276  0.00  0.00    +0.020 A 
ATOM     16  C   UNL     1       0.922  -3.252  14.449  0.00  0.00    +0.006 A 
ATOM     17 CL   UNL     1       1.388   0.223  16.361  0.00  0.00    -0.084 Cl
ENDBRANCH  10  11
BRANCH   8  18
ATOM     18  N   UNL     1       5.828  -5.755  12.932  0.00  0.00    -0.328 N 
ATOM     19  H   UNL     1       6.660  -5.667  12.441  0.00  0.00    +0.145 HD
ATOM     20  H   UNL     1       5.788  -6.312  13.724  0.00  0.00    +0.145 HD
ENDBRANCH   8  18
BRANCH   9  21
ATOM     21  C   UNL     1       3.536  -6.058  14.368  0.00  0.00    +0.101 C 
ATOM     22  N   UNL     1       3.520  -6.719  15.292  0.00  0.00    -0.191 NA
ENDBRANCH   9  21
BRANCH   1  23
ATOM     23  O   UNL     1       2.688  -2.762   7.441  0.00  0.00    -0.420 OA
BRANCH  23  24
ATOM     24  C   UNL     1       2.872  -3.691   6.481  0.00  0.00    +0.380 C 
ATOM     25  O   UNL     1       3.044  -4.855   6.786  0.00  0.00    -0.241 OA
BRANCH  24  33
ATOM     26  C   UNL     1       2.929  -2.553   0.549  0.00  0.00    -0.047 A 
ATOM     27  C   UNL     1       2.705  -1.256   0.991  0.00  0.00    +0.007 A 
ATOM     28  C   UNL     1       2.608  -0.976   2.337  0.00  0.00    +0.047 A 
ATOM     29  C   UNL     1       2.733  -2.002   3.267  0.00  0.00    +0.136 A 
ATOM     30  C   UNL     1       2.958  -3.315   2.814  0.00  0.00    +0.024 A 
ATOM     31  C   UNL     1       3.050  -3.578   1.445  0.00  0.00    +0.015 A 
ATOM     32  C   UNL     1       3.041  -4.141   4.018  0.00  0.00    +0.010 A 
ATOM     33  C   UNL     1       2.866  -3.296   5.067  0.00  0.00    +0.216 A 
ATOM     34  O   UNL     1       2.685  -2.038   4.613  0.00  0.00    -0.448 OA
ATOM     35  C   UNL     1       3.274  -5.629   4.082  0.00  0.00    +0.048 C 
BRANCH  26  37
ATOM     36  C   UNL     1       1.642  -3.147  -1.485  0.00  0.00    +0.009 C 
ATOM     37  C   UNL     1       3.032  -2.833  -0.927  0.00  0.00    +0.032 C 
ENDBRANCH  26  37
ENDBRANCH  24  33
ENDBRANCH  23  24
ENDBRANCH   1  23
TORSDOF 7
