REMARK  Name = ZINC03009221
REMARK  6 active torsions:
REMARK  status: ('A' for Active; 'I' for Inactive)
REMARK    1  A    between atoms: C_1  and  C_2
REMARK    2  A    between atoms: C_2  and  C_3
REMARK    3  A    between atoms: C_2  and  C_4
REMARK    4  A    between atoms: C_2  and  C_5
REMARK    5  A    between atoms: N_7  and  C_8
REMARK    6  A    between atoms: N_12  and  C_13
REMARK                            x       y       z     vdW  Elec       q    Type
REMARK                         _______ _______ _______ _____ _____    ______ ____
ROOT
ATOM      1  C   UNL     1       3.501   1.424  -0.764  0.00  0.00    +0.134 A 
ATOM      2  C   UNL     1       4.356   0.346  -0.735  0.00  0.00    +0.038 A 
ATOM      3  C   UNL     1       3.878  -0.549   0.206  0.00  0.00    +0.091 A 
ATOM      4  N   UNL     1       2.776  -0.042   0.740  0.00  0.00    -0.168 NA
ATOM      5  N   UNL     1       2.519   1.192   0.141  0.00  0.00    -0.218 N 
ATOM      6  C   UNL     1       4.682  -1.833   0.405  0.00  0.00    +0.223 C 
ATOM      7  S   UNL     1       5.750  -1.844  -1.093  0.00  0.00    -0.021 S 
ATOM      8  O   UNL     1       5.108  -2.583  -2.123  0.00  0.00    -0.174 OA
ATOM      9  O   UNL     1       7.083  -2.164  -0.721  0.00  0.00    -0.174 OA
ATOM     10  C   UNL     1       5.636  -0.047  -1.470  0.00  0.00    +0.206 C 
ENDROOT
BRANCH   5  11
ATOM     11  C   UNL     1       1.442   2.043   0.429  0.00  0.00    +0.068 A 
ATOM     12  C   UNL     1       0.169   1.516   0.608  0.00  0.00    +0.030 A 
ATOM     13  C   UNL     1      -0.891   2.356   0.885  0.00  0.00    +0.040 A 
ATOM     14  C   UNL     1      -0.685   3.721   0.995  0.00  0.00    +0.124 A 
ATOM     15  C   UNL     1       0.584   4.248   0.817  0.00  0.00    +0.040 A 
ATOM     16  C   UNL     1       1.646   3.412   0.534  0.00  0.00    +0.030 A 
ATOM     17  F   UNL     1      -1.723   4.541   1.271  0.00  0.00    -0.205 F 
ENDBRANCH   5  11
BRANCH   1  20
ATOM     18  C   UNL     1       4.840   2.957  -1.988  0.00  0.00    +0.224 C 
ATOM     19  O   UNL     1       5.826   2.313  -1.694  0.00  0.00    -0.275 OA
ATOM     20  N   UNL     1       3.623   2.550  -1.577  0.00  0.00    -0.270 N 
ATOM     21  H   UNL     1       2.831   3.041  -1.847  0.00  0.00    +0.156 HD
BRANCH  18  23
ATOM     22  C   UNL     1       6.453   4.444  -3.144  0.00  0.00    +0.020 C 
ATOM     23  C   UNL     1       4.978   4.211  -2.813  0.00  0.00    +0.039 C 
ATOM     24  C   UNL     1       4.182   4.057  -4.110  0.00  0.00    +0.020 C 
ATOM     25  C   UNL     1       4.437   5.403  -2.021  0.00  0.00    +0.020 C 
ENDBRANCH  18  23
ENDBRANCH   1  20
TORSDOF 3
