REMARK  Name = ZINC39948491
REMARK  7 active torsions:
REMARK  status: ('A' for Active; 'I' for Inactive)
REMARK    1  A    between atoms: C_1  and  C_2
REMARK    2  A    between atoms: C_2  and  C_3
REMARK    3  A    between atoms: C_3  and  C_5
REMARK    4  A    between atoms: C_3  and  S_21
REMARK    5  A    between atoms: N_7  and  C_8
REMARK    6  A    between atoms: C_10  and  C_19
REMARK    7  A    between atoms: S_21  and  C_22
REMARK                            x       y       z     vdW  Elec       q    Type
REMARK                         _______ _______ _______ _____ _____    ______ ____
ROOT
ATOM      1  C   UNL     1       0.631  -0.600  -1.285  0.00  0.00    +0.140 C 
ENDROOT
BRANCH   1   2
ATOM      2  C   UNL     1       0.512  -2.096  -1.422  0.00  0.00    +0.227 C 
ATOM      3  O   UNL     1       1.438  -2.810  -1.099  0.00  0.00    -0.275 OA
ATOM      4  N   UNL     1      -0.623  -2.640  -1.904  0.00  0.00    -0.301 N 
ATOM      5  H   UNL     1      -1.363  -2.069  -2.163  0.00  0.00    +0.150 HD
BRANCH   4   6
ATOM      6  C   UNL     1      -0.738  -4.095  -2.037  0.00  0.00    +0.156 C 
ATOM      7  C   UNL     1      -2.142  -4.594  -1.617  0.00  0.00    +0.149 C 
ATOM      8  C   UNL     1      -3.078  -4.677  -2.797  0.00  0.00    -0.041 C 
ATOM      9  C   UNL     1      -2.538  -4.707  -4.009  0.00  0.00    -0.012 C 
ATOM     10  S   UNL     1      -0.773  -4.611  -3.805  0.00  0.00    -0.106 S 
ATOM     11  C   UNL     1      -3.266  -4.802  -5.321  0.00  0.00    +0.042 C 
ATOM     12  C   UNL     1      -4.715  -5.227  -5.052  0.00  0.00    +0.005 C 
ATOM     13  C   UNL     1      -5.275  -4.356  -3.923  0.00  0.00    +0.005 C 
ATOM     14  C   UNL     1      -4.593  -4.728  -2.607  0.00  0.00    +0.033 C 
BRANCH   7  15
ATOM     15  C   UNL     1      -2.015  -5.929  -1.011  0.00  0.00    +0.073 C 
ATOM     16  N   UNL     1      -1.918  -6.960  -0.543  0.00  0.00    -0.196 NA
ENDBRANCH   7  15
ENDBRANCH   4   6
ENDBRANCH   1   2
BRANCH   1  18
ATOM     17  C   UNL     1       0.020   1.368   0.128  0.00  0.00    +0.005 C 
ATOM     18  C   UNL     1       0.027  -0.160   0.050  0.00  0.00    +0.020 C 
ENDBRANCH   1  18
BRANCH   1  19
ATOM     19  S   UNL     1       2.381  -0.124  -1.343  0.00  0.00    -0.072 S 
BRANCH  19  20
ATOM     20  C   UNL     1       2.863  -0.474  -3.001  0.00  0.00    +0.208 C 
ATOM     21  N   UNL     1       1.968  -0.988  -3.810  0.00  0.00    -0.227 NA
ATOM     22  C   UNL     1       2.397  -1.348  -5.159  0.00  0.00    +0.252 C 
ATOM     23  C   UNL     1       3.547  -0.413  -5.506  0.00  0.00    +0.117 C 
ATOM     24  C   UNL     1       3.253   0.086  -6.739  0.00  0.00    +0.025 A 
ATOM     25  C   UNL     1       3.982   0.914  -7.629  0.00  0.00    +0.012 A 
ATOM     26  C   UNL     1       3.382   1.250  -8.802  0.00  0.00    +0.001 A 
ATOM     27  C   UNL     1       2.102   0.833  -9.180  0.00  0.00    +0.002 A 
ATOM     28  C   UNL     1       1.317   0.033  -8.409  0.00  0.00    +0.026 A 
ATOM     29  C   UNL     1       1.887  -0.389  -7.119  0.00  0.00    +0.046 A 
ATOM     30  N   UNL     1       1.392  -1.154  -6.195  0.00  0.00    -0.358 N 
ATOM     31  N   UNL     1       4.499  -0.125  -4.613  0.00  0.00    -0.147 NA
ATOM     32  N   UNL     1       4.136  -0.190  -3.370  0.00  0.00    -0.122 NA
ATOM     33  H   UNL     1       0.499  -1.534  -6.194  0.00  0.00    +0.162 HD
ENDBRANCH  19  20
ENDBRANCH   1  19
TORSDOF 6
