REMARK  Name = ZINC24718752
REMARK  5 active torsions:
REMARK  status: ('A' for Active; 'I' for Inactive)
REMARK    1  A    between atoms: C_5  and  N_7
REMARK    2  A    between atoms: C_11  and  S_12
REMARK    3  A    between atoms: S_12  and  C_13
REMARK    4  A    between atoms: C_13  and  C_14
REMARK    5  A    between atoms: N_18  and  C_19
REMARK                            x       y       z     vdW  Elec       q    Type
REMARK                         _______ _______ _______ _____ _____    ______ ____
ROOT
ATOM      1  N   UNL     1      -2.198  -1.730   0.014  0.00  0.00    -0.257 N 
ATOM      2  C   UNL     1      -3.564  -1.650   0.028  0.00  0.00    +0.225 A 
ATOM      3  N   UNL     1      -3.896  -0.383   0.038  0.00  0.00    -0.112 NA
ATOM      4  N   UNL     1      -2.717   0.375   0.036  0.00  0.00    -0.120 NA
ATOM      5  C   UNL     1      -1.702  -0.454   0.016  0.00  0.00    +0.198 A 
ATOM      6  N   UNL     1      -4.444  -2.725   0.031  0.00  0.00    -0.299 N 
ATOM      7  C   UNL     1      -4.275  -3.548   1.256  0.00  0.00    +0.108 C 
ATOM      8  C   UNL     1      -5.613  -4.323   1.349  0.00  0.00    +0.020 C 
ATOM      9  C   UNL     1      -6.651  -3.279   0.877  0.00  0.00    +0.020 C 
ATOM     10  C   UNL     1      -5.848  -2.260   0.048  0.00  0.00    +0.108 C 
ENDROOT
BRANCH   1  15
ATOM     11  C   UNL     1      -0.305  -4.664   1.175  0.00  0.00    +0.002 A 
ATOM     12  C   UNL     1       0.057  -5.238  -0.030  0.00  0.00    +0.002 A 
ATOM     13  C   UNL     1      -0.328  -4.652  -1.221  0.00  0.00    +0.022 A 
ATOM     14  C   UNL     1      -1.080  -3.491  -1.210  0.00  0.00    +0.065 A 
ATOM     15  C   UNL     1      -1.439  -2.910  -0.001  0.00  0.00    +0.070 A 
ATOM     16  C   UNL     1      -1.051  -3.502   1.193  0.00  0.00    +0.028 A 
ATOM     17 CL   UNL     1      -1.569  -2.759  -2.706  0.00  0.00    -0.081 Cl
ENDBRANCH   1  15
BRANCH   5  18
ATOM     18  S   UNL     1       0.002  -0.004   0.002  0.00  0.00    -0.078 S 
BRANCH  18  19
ATOM     19  C   UNL     1      -0.022   1.810   0.012  0.00  0.00    +0.151 C 
BRANCH  19  20
ATOM     20  C   UNL     1       1.391   2.331   0.001  0.00  0.00    +0.124 A 
ATOM     21  N   UNL     1       2.113   2.594   1.056  0.00  0.00    -0.240 NA
ATOM     22  C   UNL     1       3.318   3.038   0.669  0.00  0.00    +0.130 A 
ATOM     23  C   UNL     1       3.341   3.058  -0.678  0.00  0.00    +0.112 A 
ATOM     24  N   UNL     1       2.119   2.610  -1.102  0.00  0.00    -0.277 N 
BRANCH  24  25
ATOM     25  C   UNL     1       1.682   2.461  -2.492  0.00  0.00    +0.449 C 
ATOM     26  F   UNL     1       1.352   1.123  -2.736  0.00  0.00    -0.185 F 
ATOM     27  F   UNL     1       0.561   3.266  -2.717  0.00  0.00    -0.185 F 
ENDBRANCH  24  25
ENDBRANCH  19  20
ENDBRANCH  18  19
ENDBRANCH   5  18
TORSDOF 5
