REMARK  Name = ZINC08659241
REMARK  5 active torsions:
REMARK  status: ('A' for Active; 'I' for Inactive)
REMARK    1  A    between atoms: C_6  and  C_7
REMARK    2  A    between atoms: C_10  and  S_13
REMARK    3  A    between atoms: N_11  and  N_12
REMARK    4  A    between atoms: S_13  and  C_14
REMARK    5  A    between atoms: C_14  and  C_15
REMARK                            x       y       z     vdW  Elec       q    Type
REMARK                         _______ _______ _______ _____ _____    ______ ____
ROOT
ATOM      1  S   UNL     1      -3.555  -3.905  -0.385  0.00  0.00    -0.075 S 
ENDROOT
BRANCH   1   5
ATOM      2  C   UNL     1      -1.266  -0.763   0.011  0.00  0.00    +0.182 A 
ATOM      3  N   UNL     1      -2.458  -0.290   0.293  0.00  0.00    -0.127 NA
ATOM      4  N   UNL     1      -3.334  -1.225   0.203  0.00  0.00    -0.121 NA
ATOM      5  C   UNL     1      -2.756  -2.354  -0.141  0.00  0.00    +0.209 A 
ATOM      6  N   UNL     1      -1.422  -2.099  -0.281  0.00  0.00    -0.224 N 
BRANCH   2  12
ATOM      7  C   UNL     1      -0.017   1.392   0.010  0.00  0.00    +0.013 A 
ATOM      8  C   UNL     1       1.170   2.095   0.002  0.00  0.00    +0.021 A 
ATOM      9  C   UNL     1       2.378   1.419  -0.013  0.00  0.00    +0.041 A 
ATOM     10  C   UNL     1       2.403   0.034  -0.021  0.00  0.00    +0.021 A 
ATOM     11  C   UNL     1       1.223  -0.680  -0.014  0.00  0.00    +0.013 A 
ATOM     12  C   UNL     1       0.002  -0.004   0.002  0.00  0.00    +0.021 A 
ATOM     13 CL   UNL     1       3.868   2.311  -0.024  0.00  0.00    -0.084 Cl
ENDBRANCH   2  12
BRANCH   6  14
ATOM     14  N   UNL     1      -0.445  -2.986  -0.635  0.00  0.00    -0.295 N 
ATOM     15  H   UNL     1      -0.052  -3.434   0.179  0.00  0.00    +0.163 HD
ATOM     16  H   UNL     1      -0.795  -3.668  -1.290  0.00  0.00    +0.163 HD
ENDBRANCH   6  14
ENDBRANCH   1   5
BRANCH   1  17
ATOM     17  C   UNL     1      -5.304  -3.556  -0.051  0.00  0.00    +0.173 C 
BRANCH  17  18
ATOM     18  C   UNL     1      -6.110  -4.817  -0.226  0.00  0.00    +0.229 C 
ATOM     19  O   UNL     1      -5.560  -5.849  -0.544  0.00  0.00    -0.275 OA
ATOM     20  N   UNL     1      -7.443  -4.796  -0.029  0.00  0.00    -0.264 N 
ATOM     21  C   UNL     1      -8.185  -5.956  -0.190  0.00  0.00    +0.165 A 
ATOM     22  N   UNL     1      -7.773  -7.157  -0.521  0.00  0.00    -0.225 NA
ATOM     23  C   UNL     1      -8.616  -8.206  -0.642  0.00  0.00    +0.080 A 
ATOM     24  C   UNL     1      -8.304  -9.541  -0.990  0.00  0.00    +0.030 A 
ATOM     25  C   UNL     1      -9.288 -10.491  -1.071  0.00  0.00    +0.017 A 
ATOM     26  C   UNL     1     -10.617 -10.183  -0.816  0.00  0.00    +0.019 A 
ATOM     27  C   UNL     1     -10.958  -8.887  -0.472  0.00  0.00    +0.032 A 
ATOM     28  C   UNL     1      -9.979  -7.928  -0.389  0.00  0.00    +0.042 A 
ATOM     29  S   UNL     1      -9.945  -6.197   0.009  0.00  0.00    -0.052 S 
ATOM     30 BR   UNL     1     -11.948 -11.521  -0.938  0.00  0.00    -0.050 Br
ATOM     31  H   UNL     1      -7.884  -3.970   0.225  0.00  0.00    +0.157 HD
ENDBRANCH  17  18
ENDBRANCH   1  17
TORSDOF 5
