REMARK  Name = ZINC14479018
REMARK  7 active torsions:
REMARK  status: ('A' for Active; 'I' for Inactive)
REMARK    1  A    between atoms: C_1  and  C_2
REMARK    2  A    between atoms: C_7  and  C_8
REMARK    3  A    between atoms: C_19  and  N_24
REMARK    4  A    between atoms: C_25  and  C_27
REMARK    5  A    between atoms: C_27  and  C_28
REMARK    6  A    between atoms: C_28  and  C_29
REMARK    7  A    between atoms: C_28  and  C_30
REMARK                            x       y       z     vdW  Elec       q    Type
REMARK                         _______ _______ _______ _____ _____    ______ ____
ROOT
ATOM      1  C   UNL     1       3.342   1.167   0.687  0.00  0.00    +0.105 C 
ATOM      2  C   UNL     1       3.958   2.356  -0.056  0.00  0.00    +0.029 C 
ATOM      3  C   UNL     1       5.223   2.795   0.739  0.00  0.00    +0.033 C 
ATOM      4  C   UNL     1       4.660   3.673   1.840  0.00  0.00    -0.030 C 
ATOM      5  C   UNL     1       3.477   4.127   1.506  0.00  0.00    -0.023 C 
ATOM      6  C   UNL     1       3.085   3.611   0.141  0.00  0.00    +0.049 C 
ATOM      7  C   UNL     1       1.620   3.321   0.067  0.00  0.00    -0.018 A 
ATOM      8  C   UNL     1       0.735   4.387  -0.016  0.00  0.00    +0.029 A 
ATOM      9  C   UNL     1      -0.631   4.164  -0.087  0.00  0.00    +0.034 A 
ATOM     10  C   UNL     1      -1.126   2.867  -0.085  0.00  0.00    +0.025 A 
ATOM     11  C   UNL     1      -0.252   1.802   0.003  0.00  0.00    +0.025 A 
ATOM     12  C   UNL     1       1.117   2.029   0.078  0.00  0.00    +0.031 A 
ATOM     13  N   UNL     1       1.989   0.936   0.170  0.00  0.00    -0.336 N 
ATOM     14  H   UNL     1       1.705   0.049  -0.102  0.00  0.00    +0.147 HD
ENDROOT
BRANCH   1  21
ATOM     15  C   UNL     1       5.373   0.145   2.469  0.00  0.00    +0.044 C 
ATOM     16  C   UNL     1       4.245   0.984   3.014  0.00  0.00    -0.045 A 
ATOM     17  C   UNL     1       4.183   1.265   4.366  0.00  0.00    +0.004 A 
ATOM     18  C   UNL     1       3.149   2.034   4.865  0.00  0.00    +0.000 A 
ATOM     19  C   UNL     1       2.177   2.523   4.012  0.00  0.00    +0.000 A 
ATOM     20  C   UNL     1       2.242   2.247   2.659  0.00  0.00    +0.006 A 
ATOM     21  C   UNL     1       3.274   1.473   2.161  0.00  0.00    -0.024 A 
ENDBRANCH   1  21
BRANCH   9  22
ATOM     22  N   UNL     1      -1.513   5.250  -0.169  0.00  0.00    -0.285 N 
ATOM     23  C   UNL     1      -2.773   5.130   0.294  0.00  0.00    +0.217 C 
ATOM     24  O   UNL     1      -3.119   4.112   0.856  0.00  0.00    -0.275 OA
ATOM     25  H   UNL     1      -1.218   6.087  -0.559  0.00  0.00    +0.155 HD
BRANCH  23  26
ATOM     26  C   UNL     1      -3.753   6.261   0.115  0.00  0.00    +0.099 C 
BRANCH  26  27
ATOM     27  C   UNL     1      -5.100   5.871   0.726  0.00  0.00    -0.008 C 
ATOM     28  C   UNL     1      -6.056   7.064   0.655  0.00  0.00    +0.008 C 
ATOM     29  C   UNL     1      -5.692   4.696  -0.054  0.00  0.00    +0.008 C 
ENDBRANCH  26  27
ENDBRANCH  23  26
ENDBRANCH   9  22
TORSDOF 4
