REMARK  Name = ZINC35911396
REMARK  10 active torsions:
REMARK  status: ('A' for Active; 'I' for Inactive)
REMARK    1  A    between atoms: C_1  and  C_2
REMARK    2  A    between atoms: C_5  and  N_9
REMARK    3  A    between atoms: C_6  and  C_8
REMARK    4  A    between atoms: C_10  and  C_37
REMARK    5  A    between atoms: C_12  and  C_14
REMARK    6  A    between atoms: C_15  and  C_36
REMARK    7  A    between atoms: C_18  and  O_25
REMARK    8  A    between atoms: O_25  and  C_26
REMARK    9  A    between atoms: C_26  and  C_27
REMARK   10  A    between atoms: C_30  and  N_33
REMARK                            x       y       z     vdW  Elec       q    Type
REMARK                         _______ _______ _______ _____ _____    ______ ____
ROOT
ATOM      1  C   UNL     1       0.635  -7.221   1.941  0.00  0.00    +0.088 A 
ATOM      2  C   UNL     1       0.658  -7.026   3.321  0.00  0.00    +0.055 A 
ATOM      3  N   UNL     1       0.661  -8.067   4.133  0.00  0.00    -0.230 NA
ATOM      4  C   UNL     1       0.642  -9.315   3.668  0.00  0.00    +0.183 A 
ATOM      5  C   UNL     1       0.646 -10.394   4.578  0.00  0.00    +0.164 A 
ATOM      6  C   UNL     1       0.626 -11.675   4.101  0.00  0.00    +0.051 A 
ATOM      7  C   UNL     1       0.603 -11.896   2.717  0.00  0.00    +0.022 A 
ATOM      8  C   UNL     1       0.600 -10.849   1.861  0.00  0.00    +0.096 A 
ATOM      9  N   UNL     1       0.618  -9.567   2.325  0.00  0.00    -0.265 N 
ATOM     10  C   UNL     1       0.609  -8.542   1.446  0.00  0.00    +0.268 A 
ATOM     11  O   UNL     1       0.583  -8.754   0.244  0.00  0.00    -0.267 OA
ATOM     12  C   UNL     1       0.681  -5.628   3.885  0.00  0.00    +0.066 C 
ENDROOT
BRANCH   1  16
ATOM     13  N   UNL     1       0.641  -4.024   0.191  0.00  0.00    -0.236 N 
ATOM     14  C   UNL     1       0.610  -4.871  -0.872  0.00  0.00    +0.042 A 
ATOM     15  C   UNL     1       0.603  -6.134  -0.395  0.00  0.00    +0.053 A 
ATOM     16  C   UNL     1       0.631  -6.066   1.013  0.00  0.00    +0.100 A 
ATOM     17  N   UNL     1       0.660  -4.795   1.360  0.00  0.00    -0.166 NA
ATOM     18  C   UNL     1       0.586  -4.471  -2.325  0.00  0.00    +0.066 C 
BRANCH  13  23
ATOM     19  C   UNL     1       0.707   1.644  -0.067  0.00  0.00    +0.044 C 
ATOM     20  C   UNL     1       0.690   0.139   0.002  0.00  0.00    -0.050 A 
ATOM     21  C   UNL     1       1.555  -0.598  -0.787  0.00  0.00    +0.005 A 
ATOM     22  C   UNL     1       1.542  -1.977  -0.726  0.00  0.00    +0.028 A 
ATOM     23  C   UNL     1       0.658  -2.625   0.127  0.00  0.00    +0.069 A 
ATOM     24  C   UNL     1      -0.209  -1.882   0.918  0.00  0.00    -0.025 A 
ATOM     25  C   UNL     1      -0.187  -0.503   0.857  0.00  0.00    +0.008 A 
ATOM     26  C   UNL     1      -1.170  -2.581   1.845  0.00  0.00    +0.046 C 
ENDBRANCH  13  23
ENDBRANCH   1  16
BRANCH   5  27
ATOM     27  O   UNL     1       0.669 -10.162   5.917  0.00  0.00    -0.484 OA
BRANCH  27  28
ATOM     28  C   UNL     1       0.672 -11.305   6.774  0.00  0.00    +0.264 C 
BRANCH  28  29
ATOM     29  C   UNL     1       0.699 -10.855   8.212  0.00  0.00    -0.010 A 
ATOM     30  C   UNL     1       1.908 -10.655   8.851  0.00  0.00    +0.009 A 
ATOM     31  C   UNL     1       1.933 -10.242  10.170  0.00  0.00    +0.033 A 
ATOM     32  C   UNL     1       0.749 -10.029  10.850  0.00  0.00    +0.126 A 
ATOM     33  C   UNL     1      -0.461 -10.228  10.211  0.00  0.00    +0.033 A 
ATOM     34  C   UNL     1      -0.485 -10.637   8.890  0.00  0.00    +0.009 A 
BRANCH  32  35
ATOM     35  N   UNL     1       0.775  -9.588  12.263  0.00  0.00    +0.056 N 
ATOM     36  O   UNL     1       1.833  -9.414  12.822  0.00  0.00    -0.126 OA
ATOM     37  O   UNL     1      -0.261  -9.401  12.857  0.00  0.00    -0.126 OA
ENDBRANCH  32  35
ENDBRANCH  28  29
ENDBRANCH  27  28
ENDBRANCH   5  27
TORSDOF 6
