REMARK  Name = ZINC39526885
REMARK  6 active torsions:
REMARK  status: ('A' for Active; 'I' for Inactive)
REMARK    1  A    between atoms: C_1  and  C_2
REMARK    2  A    between atoms: C_2  and  C_3
REMARK    3  A    between atoms: C_2  and  S_4
REMARK    4  A    between atoms: S_4  and  C_7
REMARK    5  A    between atoms: N_19  and  S_20
REMARK    6  A    between atoms: S_20  and  C_23
REMARK                            x       y       z     vdW  Elec       q    Type
REMARK                         _______ _______ _______ _____ _____    ______ ____
ROOT
ATOM      1  C   UNL     1       1.891   0.095  -1.836  0.00  0.00    +0.133 C 
ATOM      2  C   UNL     1       1.441   1.548  -1.668  0.00  0.00    +0.026 C 
ATOM      3  C   UNL     1       2.659   2.429  -1.383  0.00  0.00    +0.004 C 
ATOM      4  C   UNL     1       3.643   2.332  -2.550  0.00  0.00    +0.024 C 
ATOM      5  C   UNL     1       4.090   0.880  -2.722  0.00  0.00    +0.046 C 
ATOM      6  C   UNL     1       2.874  -0.002  -3.005  0.00  0.00    +0.050 C 
ATOM      7  C   UNL     1       4.786   0.402  -1.445  0.00  0.00    +0.024 C 
ATOM      8  C   UNL     1       5.352  -1.002  -1.673  0.00  0.00    +0.004 C 
ATOM      9  C   UNL     1       6.385  -0.959  -2.803  0.00  0.00    +0.031 C 
ATOM     10  C   UNL     1       5.705  -0.496  -4.095  0.00  0.00    +0.143 C 
ATOM     11  N   UNL     1       5.034   0.786  -3.843  0.00  0.00    -0.158 NA
ATOM     12  I   UNL     1       7.190  -0.249  -5.647  0.00  0.00    -0.063 I 
ENDROOT
BRANCH   1  13
ATOM     13  S   UNL     1       0.446  -0.950  -2.173  0.00  0.00    -0.026 S 
ATOM     14  O   UNL     1      -0.079  -0.595  -3.445  0.00  0.00    -0.174 OA
ATOM     15  O   UNL     1      -0.409  -0.914  -1.038  0.00  0.00    -0.174 OA
BRANCH  13  17
ATOM     16  C   UNL     1       1.834  -2.973  -0.963  0.00  0.00    +0.031 C 
ATOM     17  C   UNL     1       1.171  -2.608  -2.293  0.00  0.00    +0.125 C 
ATOM     18  C   UNL     1       0.070  -3.624  -2.609  0.00  0.00    +0.031 C 
ENDBRANCH  13  17
ENDBRANCH   1  13
BRANCH  11  19
ATOM     19  S   UNL     1       5.336   2.100  -4.805  0.00  0.00    +0.062 S 
ATOM     20  O   UNL     1       5.610   1.598  -6.105  0.00  0.00    -0.153 OA
ATOM     21  O   UNL     1       4.296   3.035  -4.553  0.00  0.00    -0.153 OA
BRANCH  19  22
ATOM     22  C   UNL     1       6.827   2.838  -4.225  0.00  0.00    +0.106 A 
ATOM     23  C   UNL     1       6.798   3.699  -3.144  0.00  0.00    +0.028 A 
ATOM     24  C   UNL     1       7.968   4.277  -2.689  0.00  0.00    +0.002 A 
ATOM     25  C   UNL     1       9.168   3.995  -3.315  0.00  0.00    +0.000 A 
ATOM     26  C   UNL     1       9.197   3.134  -4.396  0.00  0.00    +0.002 A 
ATOM     27  C   UNL     1       8.027   2.552  -4.848  0.00  0.00    +0.028 A 
ENDBRANCH  19  22
ENDBRANCH  11  19
TORSDOF 4
