REMARK  Name = ZINC09298511
REMARK  6 active torsions:
REMARK  status: ('A' for Active; 'I' for Inactive)
REMARK    1  A    between atoms: C_1  and  C_2
REMARK    2  A    between atoms: C_2  and  O_3
REMARK    3  A    between atoms: O_3  and  C_4
REMARK    4  A    between atoms: C_7  and  C_9
REMARK    5  A    between atoms: C_13  and  N_14
REMARK    6  A    between atoms: C_15  and  C_17
REMARK                            x       y       z     vdW  Elec       q    Type
REMARK                         _______ _______ _______ _____ _____    ______ ____
ROOT
ATOM      1  C   UNL     1      -1.824   3.018  -2.741  0.00  0.00    +0.069 A 
ATOM      2  C   UNL     1      -1.153   2.841  -1.460  0.00  0.00    -0.023 A 
ATOM      3  C   UNL     1      -0.739   1.583  -1.203  0.00  0.00    -0.004 A 
ATOM      4  S   UNL     1      -1.241   0.640  -2.617  0.00  0.00    -0.077 S 
ATOM      5  C   UNL     1      -1.980   1.900  -3.547  0.00  0.00    +0.085 A 
ATOM      6  C   UNL     1      -0.013   1.086   0.008  0.00  0.00    +0.043 C 
ATOM      7  C   UNL     1      -0.733   1.582   1.269  0.00  0.00    +0.005 C 
ATOM      8  C   UNL     1      -0.153   2.938   1.656  0.00  0.00    +0.001 C 
ATOM      9  C   UNL     1       0.262   3.709   0.404  0.00  0.00    +0.005 C 
ATOM     10  C   UNL     1      -0.950   3.988  -0.478  0.00  0.00    +0.037 C 
ENDROOT
BRANCH   1  14
ATOM     11  C   UNL     1      -4.026   5.920  -3.237  0.00  0.00    +0.407 C 
ATOM     12  O   UNL     1      -3.305   6.666  -3.870  0.00  0.00    -0.226 OA
ATOM     13  N   UNL     1      -3.572   4.712  -2.849  0.00  0.00    -0.217 N 
ATOM     14  C   UNL     1      -2.318   4.331  -3.163  0.00  0.00    +0.255 C 
ATOM     15  O   UNL     1      -1.595   5.078  -3.796  0.00  0.00    -0.270 OA
ATOM     16  H   UNL     1      -4.148   4.117  -2.344  0.00  0.00    +0.161 HD
BRANCH  11  17
ATOM     17  O   UNL     1      -5.279   6.301  -2.924  0.00  0.00    -0.450 OA
BRANCH  17  19
ATOM     18  C   UNL     1      -7.142   7.869  -2.928  0.00  0.00    +0.048 C 
ATOM     19  C   UNL     1      -5.701   7.615  -3.375  0.00  0.00    +0.230 C 
ENDBRANCH  17  19
ENDBRANCH  11  17
ENDBRANCH   1  14
BRANCH   5  20
ATOM     20  N   UNL     1      -2.581   1.813  -4.793  0.00  0.00    -0.276 N 
ATOM     21  C   UNL     1      -2.639   0.628  -5.431  0.00  0.00    +0.262 C 
ATOM     22  O   UNL     1      -2.165  -0.362  -4.916  0.00  0.00    -0.271 OA
ATOM     23  H   UNL     1      -2.960   2.605  -5.205  0.00  0.00    +0.155 HD
BRANCH  21  24
ATOM     24  C   UNL     1      -3.293   0.533  -6.786  0.00  0.00    +0.296 C 
ATOM     25  C   UNL     1      -4.793   0.832  -6.659  0.00  0.00    +0.283 C 
ATOM     26  O   UNL     1      -5.383   0.719  -7.958  0.00  0.00    -0.484 OA
ATOM     27  C   UNL     1      -5.042  -0.374  -8.694  0.00  0.00    +0.162 A 
ATOM     28  C   UNL     1      -5.823  -0.734  -9.781  0.00  0.00    +0.049 A 
ATOM     29  C   UNL     1      -5.486  -1.838 -10.541  0.00  0.00    +0.004 A 
ATOM     30  C   UNL     1      -4.368  -2.586 -10.220  0.00  0.00    +0.004 A 
ATOM     31  C   UNL     1      -3.586  -2.233  -9.136  0.00  0.00    +0.049 A 
ATOM     32  C   UNL     1      -3.920  -1.127  -8.369  0.00  0.00    +0.163 A 
ATOM     33  O   UNL     1      -3.141  -0.793  -7.304  0.00  0.00    -0.473 OA
ENDBRANCH  21  24
ENDBRANCH   5  20
TORSDOF 5
