REMARK  Name = ZINC65882725
REMARK  8 active torsions:
REMARK  status: ('A' for Active; 'I' for Inactive)
REMARK    1  A    between atoms: C_1  and  C_2
REMARK    2  A    between atoms: C_7  and  C_8
REMARK    3  A    between atoms: N_10  and  C_11
REMARK    4  A    between atoms: C_14  and  C_17
REMARK    5  A    between atoms: C_19  and  C_22
REMARK    6  A    between atoms: C_22  and  C_23
REMARK    7  A    between atoms: C_22  and  C_24
REMARK    8  A    between atoms: C_22  and  C_25
REMARK                            x       y       z     vdW  Elec       q    Type
REMARK                         _______ _______ _______ _____ _____    ______ ____
ROOT
ATOM      1  C   UNL     1       0.621  -0.534   2.537  0.00  0.00    +0.265 C 
ATOM      2  O   UNL     1       1.145   0.520   2.843  0.00  0.00    -0.268 OA
ATOM      3  N   UNL     1       0.055  -1.306   3.485  0.00  0.00    -0.280 N 
ATOM      4  H   UNL     1      -0.421  -2.113   3.234  0.00  0.00    +0.155 HD
ENDROOT
BRANCH   1  11
ATOM      5  C   UNL     1       1.850   1.050   0.139  0.00  0.00    +0.047 C 
ATOM      6  C   UNL     1       1.140  -0.278   0.080  0.00  0.00    -0.010 A 
ATOM      7  C   UNL     1       0.906  -1.052  -1.064  0.00  0.00    +0.042 A 
ATOM      8  C   UNL     1       0.219  -2.198  -0.666  0.00  0.00    +0.027 A 
ATOM      9  N   UNL     1       0.043  -2.134   0.654  0.00  0.00    -0.354 N 
ATOM     10  H   UNL     1      -0.405  -2.804   1.194  0.00  0.00    +0.166 HD
ATOM     11  C   UNL     1       0.604  -0.966   1.133  0.00  0.00    +0.106 A 
ATOM     12  C   UNL     1      -0.213  -3.270  -1.634  0.00  0.00    +0.054 C 
ATOM     13  C   UNL     1      -0.251  -2.687  -3.050  0.00  0.00    +0.014 C 
ATOM     14  C   UNL     1       1.081  -2.013  -3.393  0.00  0.00    +0.080 C 
ATOM     15  C   UNL     1       1.266  -0.817  -2.470  0.00  0.00    +0.165 C 
ATOM     16  O   UNL     1       1.679   0.253  -2.867  0.00  0.00    -0.292 OA
ENDBRANCH   1  11
BRANCH   3  17
ATOM     17  C   UNL     1       0.154  -0.945   4.830  0.00  0.00    +0.034 A 
ATOM     18  C   UNL     1       0.128   0.398   5.192  0.00  0.00    +0.024 A 
ATOM     19  C   UNL     1       0.226   0.757   6.519  0.00  0.00    +0.013 A 
ATOM     20  C   UNL     1       0.351  -0.227   7.499  0.00  0.00    +0.023 A 
ATOM     21  C   UNL     1       0.376  -1.572   7.134  0.00  0.00    +0.013 A 
ATOM     22  C   UNL     1       0.273  -1.927   5.807  0.00  0.00    +0.024 A 
BRANCH  20  23
ATOM     23  C   UNL     1       0.457   0.157   8.928  0.00  0.00    +0.202 A 
ATOM     24  N   UNL     1       0.587  -0.694   9.962  0.00  0.00    -0.191 NA
ATOM     25  C   UNL     1       0.654  -0.029  11.080  0.00  0.00    +0.233 A 
ATOM     26  O   UNL     1       0.570   1.278  10.803  0.00  0.00    -0.337 OA
ATOM     27  N   UNL     1       0.447   1.383   9.393  0.00  0.00    -0.056 NA
BRANCH  25  28
ATOM     28  C   UNL     1       0.801  -0.631  12.454  0.00  0.00    +0.041 C 
ATOM     29  C   UNL     1       2.098  -1.438  12.521  0.00  0.00    +0.020 C 
ATOM     30  C   UNL     1       0.841   0.487  13.498  0.00  0.00    +0.020 C 
ATOM     31  C   UNL     1      -0.388  -1.551  12.737  0.00  0.00    +0.020 C 
ENDBRANCH  25  28
ENDBRANCH  20  23
ENDBRANCH   3  17
TORSDOF 4
