REMARK  Name = ZINC45632950
REMARK  11 active torsions:
REMARK  status: ('A' for Active; 'I' for Inactive)
REMARK    1  A    between atoms: C_1  and  C_2
REMARK    2  A    between atoms: C_2  and  C_3
REMARK    3  A    between atoms: C_3  and  N_4
REMARK    4  A    between atoms: C_17  and  S_18
REMARK    5  A    between atoms: S_18  and  C_19
REMARK    6  A    between atoms: C_19  and  C_20
REMARK    7  A    between atoms: N_22  and  C_23
REMARK    8  A    between atoms: C_24  and  C_32
REMARK    9  A    between atoms: C_28  and  C_29
REMARK   10  A    between atoms: C_29  and  C_30
REMARK   11  A    between atoms: C_32  and  C_33
REMARK                            x       y       z     vdW  Elec       q    Type
REMARK                         _______ _______ _______ _____ _____    ______ ____
ROOT
ATOM      1  N   UNL     1       3.437  -1.931   4.437  0.00  0.00    -0.277 N 
ATOM      2  C   UNL     1       2.112  -1.921   4.184  0.00  0.00    +0.263 A 
ATOM      3  O   UNL     1       1.367  -1.197   4.816  0.00  0.00    -0.267 OA
ATOM      4  C   UNL     1       1.584  -2.804   3.128  0.00  0.00    +0.064 A 
ATOM      5  C   UNL     1       0.224  -2.834   2.824  0.00  0.00    +0.015 A 
ATOM      6  C   UNL     1      -0.233  -3.673   1.829  0.00  0.00    +0.001 A 
ATOM      7  C   UNL     1       0.652  -4.482   1.134  0.00  0.00    +0.002 A 
ATOM      8  C   UNL     1       2.002  -4.461   1.426  0.00  0.00    +0.027 A 
ATOM      9  C   UNL     1       2.478  -3.623   2.423  0.00  0.00    +0.064 A 
ATOM     10  N   UNL     1       3.835  -3.582   2.737  0.00  0.00    -0.256 N 
ATOM     11  C   UNL     1       4.296  -2.748   3.719  0.00  0.00    +0.240 A 
ATOM     12  N   UNL     1       5.599  -2.906   3.801  0.00  0.00    -0.109 NA
ATOM     13  N   UNL     1       5.983  -3.857   2.848  0.00  0.00    -0.120 NA
ATOM     14  C   UNL     1       4.905  -4.260   2.219  0.00  0.00    +0.198 A 
ENDROOT
BRANCH   1  15
ATOM     15  C   UNL     1       3.978  -1.059   5.484  0.00  0.00    +0.128 C 
BRANCH  15  17
ATOM     16  C   UNL     1       4.917   1.205   5.969  0.00  0.00    +0.005 C 
ATOM     17  C   UNL     1       4.353   0.294   4.876  0.00  0.00    +0.018 C 
ENDBRANCH  15  17
ENDBRANCH   1  15
BRANCH  14  18
ATOM     18  S   UNL     1       4.847  -5.453   0.924  0.00  0.00    -0.076 S 
BRANCH  18  19
ATOM     19  C   UNL     1       6.576  -5.962   0.718  0.00  0.00    +0.173 C 
BRANCH  19  20
ATOM     20  C   UNL     1       6.668  -6.995  -0.375  0.00  0.00    +0.228 C 
ATOM     21  O   UNL     1       5.667  -7.353  -0.959  0.00  0.00    -0.275 OA
ATOM     22  N   UNL     1       7.864  -7.522  -0.705  0.00  0.00    -0.284 N 
ATOM     23  H   UNL     1       8.669  -7.217  -0.257  0.00  0.00    +0.155 HD
BRANCH  22  24
ATOM     24  C   UNL     1       7.945  -8.509  -1.694  0.00  0.00    +0.041 A 
ATOM     25  C   UNL     1       8.976  -8.477  -2.625  0.00  0.00    -0.026 A 
ATOM     26  C   UNL     1       9.054  -9.453  -3.600  0.00  0.00    +0.007 A 
ATOM     27  C   UNL     1       8.108 -10.460  -3.651  0.00  0.00    +0.020 A 
ATOM     28  C   UNL     1       7.080 -10.494  -2.724  0.00  0.00    +0.046 A 
ATOM     29  C   UNL     1       7.000  -9.524  -1.743  0.00  0.00    -0.008 A 
ATOM     30 CL   UNL     1       5.894 -11.760  -2.792  0.00  0.00    -0.083 Cl
BRANCH  29  31
ATOM     31  C   UNL     1       5.884  -9.565  -0.731  0.00  0.00    +0.035 C 
ATOM     32  C   UNL     1       4.537  -9.533  -1.455  0.00  0.00    +0.009 C 
ENDBRANCH  29  31
BRANCH  25  33
ATOM     33  C   UNL     1      10.007  -7.380  -2.572  0.00  0.00    +0.033 C 
ATOM     34  C   UNL     1      11.112  -7.766  -1.587  0.00  0.00    +0.009 C 
ENDBRANCH  25  33
ENDBRANCH  22  24
ENDBRANCH  19  20
ENDBRANCH  18  19
ENDBRANCH  14  18
TORSDOF 8
