REMARK  Name = ZINC65194833
REMARK  10 active torsions:
REMARK  status: ('A' for Active; 'I' for Inactive)
REMARK    1  A    between atoms: C_1  and  C_2
REMARK    2  A    between atoms: C_5  and  O_29
REMARK    3  A    between atoms: C_6  and  N_8
REMARK    4  A    between atoms: C_9  and  C_11
REMARK    5  A    between atoms: C_11  and  N_12
REMARK    6  A    between atoms: C_13  and  C_28
REMARK    7  A    between atoms: C_15  and  C_18
REMARK    8  A    between atoms: C_16  and  C_17
REMARK    9  A    between atoms: C_21  and  C_23
REMARK   10  A    between atoms: O_29  and  C_30
REMARK                            x       y       z     vdW  Elec       q    Type
REMARK                         _______ _______ _______ _____ _____    ______ ____
ROOT
ATOM      1  N   UNL     1       0.369  -1.951   5.978  0.00  0.00    -0.339 N 
ATOM      2  C   UNL     1       1.529  -1.428   6.468  0.00  0.00    +0.017 A 
ATOM      3  C   UNL     1       1.237  -0.602   7.489  0.00  0.00    +0.036 A 
ATOM      4  C   UNL     1      -0.220  -0.620   7.637  0.00  0.00    +0.059 A 
ATOM      5  C   UNL     1      -0.692  -1.465   6.674  0.00  0.00    +0.029 A 
ATOM      6  C   UNL     1      -2.139  -1.803   6.427  0.00  0.00    +0.064 C 
ATOM      7  C   UNL     1       2.912  -1.727   5.950  0.00  0.00    +0.063 C 
ENDROOT
BRANCH   4   8
ATOM      8  C   UNL     1      -1.020   0.130   8.626  0.00  0.00    +0.250 A 
ATOM      9  N   UNL     1      -2.328   0.100   8.752  0.00  0.00    -0.107 NA
ATOM     10  N   UNL     1      -2.683   0.873   9.716  0.00  0.00    -0.106 NA
ATOM     11  C   UNL     1      -1.615   1.430  10.246  0.00  0.00    +0.255 A 
ATOM     12  O   UNL     1      -0.541   0.966   9.571  0.00  0.00    -0.415 OA
BRANCH  11  13
ATOM     13  C   UNL     1      -1.594   2.377  11.370  0.00  0.00    +0.076 A 
ATOM     14  C   UNL     1      -2.651   2.880  12.106  0.00  0.00    +0.021 A 
ATOM     15  C   UNL     1      -2.377   3.765  13.123  0.00  0.00    +0.008 A 
ATOM     16  C   UNL     1      -1.088   4.115  13.371  0.00  0.00    +0.046 A 
ATOM     17  S   UNL     1      -0.196   3.174  12.144  0.00  0.00    -0.092 S 
ENDBRANCH  11  13
ENDBRANCH   4   8
BRANCH   1  18
ATOM     18  C   UNL     1       0.279  -2.894   4.860  0.00  0.00    +0.217 C 
BRANCH  18  20
ATOM     19  N   UNL     1       0.050  -2.795   2.399  0.00  0.00    -0.281 N 
ATOM     20  C   UNL     1       0.149  -2.130   3.568  0.00  0.00    +0.237 C 
ATOM     21  O   UNL     1       0.134  -0.917   3.579  0.00  0.00    -0.274 OA
ATOM     22  H   UNL     1      -0.018  -3.762   2.396  0.00  0.00    +0.155 HD
BRANCH  19  28
ATOM     23  C   UNL     1       1.263   1.227  -0.157  0.00  0.00    +0.044 C 
ATOM     24  C   UNL     1       0.627  -0.137  -0.079  0.00  0.00    -0.048 A 
ATOM     25  C   UNL     1       0.040  -0.689  -1.202  0.00  0.00    +0.007 A 
ATOM     26  C   UNL     1      -0.546  -1.940  -1.136  0.00  0.00    +0.048 A 
ATOM     27  C   UNL     1      -0.545  -2.643   0.058  0.00  0.00    +0.141 A 
ATOM     28  C   UNL     1       0.047  -2.088   1.189  0.00  0.00    +0.076 A 
ATOM     29  C   UNL     1       0.637  -0.835   1.114  0.00  0.00    +0.030 A 
BRANCH  27  30
ATOM     30  O   UNL     1      -1.121  -3.873   0.124  0.00  0.00    -0.493 OA
ATOM     31  C   UNL     1      -1.709  -4.380  -1.076  0.00  0.00    +0.277 C 
ENDBRANCH  27  30
ENDBRANCH  19  28
ENDBRANCH  18  20
ENDBRANCH   1  18
TORSDOF 6
