REMARK  Name = ZINC61231358
REMARK  11 active torsions:
REMARK  status: ('A' for Active; 'I' for Inactive)
REMARK    1  A    between atoms: C_1  and  C_2
REMARK    2  A    between atoms: C_2  and  N_3
REMARK    3  A    between atoms: N_3  and  C_4
REMARK    4  A    between atoms: C_4  and  C_5
REMARK    5  A    between atoms: C_5  and  C_7
REMARK    6  A    between atoms: C_5  and  C_8
REMARK    7  A    between atoms: N_10  and  C_11
REMARK    8  A    between atoms: C_13  and  S_19
REMARK    9  A    between atoms: C_15  and  C_18
REMARK   10  A    between atoms: C_16  and  C_17
REMARK   11  A    between atoms: S_19  and  N_22
REMARK                            x       y       z     vdW  Elec       q    Type
REMARK                         _______ _______ _______ _____ _____    ______ ____
ROOT
ATOM      1  C   UNL     1      -3.923  -6.081  -0.358  0.00  0.00    +0.038 A 
ATOM      2  C   UNL     1      -2.875  -6.664  -1.060  0.00  0.00    +0.052 A 
ATOM      3  C   UNL     1      -2.869  -8.027  -1.283  0.00  0.00    +0.107 A 
ATOM      4  C   UNL     1      -3.904  -8.811  -0.808  0.00  0.00    +0.032 A 
ATOM      5  C   UNL     1      -4.949  -8.235  -0.110  0.00  0.00    -0.044 A 
ATOM      6  C   UNL     1      -4.958  -6.873   0.122  0.00  0.00    -0.026 A 
ATOM      7  C   UNL     1      -6.093  -6.246   0.889  0.00  0.00    +0.046 C 
ATOM      8  C   UNL     1      -6.075  -9.093   0.405  0.00  0.00    +0.044 C 
ENDROOT
BRANCH   1  11
ATOM      9  C   UNL     1      -2.774  -4.011  -0.120  0.00  0.00    +0.218 C 
ATOM     10  O   UNL     1      -1.718  -4.600  -0.207  0.00  0.00    -0.275 OA
ATOM     11  N   UNL     1      -3.933  -4.701  -0.131  0.00  0.00    -0.285 N 
ATOM     12  H   UNL     1      -4.773  -4.240   0.019  0.00  0.00    +0.155 HD
BRANCH   9  13
ATOM     13  C   UNL     1      -2.793  -2.510   0.000  0.00  0.00    +0.055 C 
ATOM     14  C   UNL     1      -3.472  -2.111   1.312  0.00  0.00    +0.015 C 
BRANCH  13  15
ATOM     15  C   UNL     1      -1.357  -1.979  -0.012  0.00  0.00    -0.070 C 
BRANCH  15  16
ATOM     16  N   UNL     1      -1.378  -0.511  -0.015  0.00  0.00    +0.379 N 
ATOM     17  H   UNL     1      -1.852  -0.179   0.811  0.00  0.00    -0.086 HD
ATOM     18  H   UNL     1      -1.865  -0.183  -0.836  0.00  0.00    -0.086 HD
BRANCH  16  20
ATOM     19  C   UNL     1      -0.021   1.528  -0.031  0.00  0.00    -0.017 C 
ATOM     20  C   UNL     1       0.000  -0.002  -0.027  0.00  0.00    -0.086 C 
ENDBRANCH  16  20
ENDBRANCH  15  16
ENDBRANCH  13  15
ENDBRANCH   9  13
ENDBRANCH   1  11
BRANCH   3  21
ATOM     21  S   UNL     1      -1.540  -8.767  -2.172  0.00  0.00    +0.056 S 
ATOM     22  O   UNL     1      -2.042  -9.979  -2.719  0.00  0.00    -0.153 OA
ATOM     23  O   UNL     1      -0.973  -7.744  -2.980  0.00  0.00    -0.153 OA
BRANCH  21  24
ATOM     24  N   UNL     1      -0.385  -9.190  -1.065  0.00  0.00    -0.204 NA
ATOM     25  H   UNL     1       0.191  -9.953  -1.231  0.00  0.00    +0.144 HD
ATOM     26  H   UNL     1      -0.283  -8.675  -0.249  0.00  0.00    +0.144 HD
ENDBRANCH  21  24
ENDBRANCH   3  21
TORSDOF 7
