REMARK  Name = ZINC40891378
REMARK  9 active torsions:
REMARK  status: ('A' for Active; 'I' for Inactive)
REMARK    1  A    between atoms: C_1  and  C_2
REMARK    2  A    between atoms: C_2  and  C_3
REMARK    3  A    between atoms: C_3  and  C_5
REMARK    4  A    between atoms: C_3  and  N_6
REMARK    5  A    between atoms: C_7  and  C_9
REMARK    6  A    between atoms: C_14  and  O_20
REMARK    7  A    between atoms: O_20  and  C_21
REMARK    8  A    between atoms: C_21  and  C_23
REMARK    9  A    between atoms: C_26  and  C_29
REMARK                            x       y       z     vdW  Elec       q    Type
REMARK                         _______ _______ _______ _____ _____    ______ ____
ROOT
ATOM      1  C   UNL     1       4.210   0.530  -2.391  0.00  0.00    +0.122 A 
ATOM      2  C   UNL     1       4.995   0.603  -3.535  0.00  0.00    +0.031 A 
ATOM      3  C   UNL     1       6.354   0.970  -3.389  0.00  0.00    +0.019 A 
ATOM      4  C   UNL     1       7.140   1.254  -4.518  0.00  0.00    +0.015 A 
ATOM      5  C   UNL     1       8.435   1.648  -4.362  0.00  0.00    +0.047 A 
ATOM      6  C   UNL     1       8.992   1.764  -3.088  0.00  0.00    +0.135 A 
ATOM      7  C   UNL     1       8.239   1.469  -1.962  0.00  0.00    +0.093 A 
ATOM      8  C   UNL     1       6.922   1.060  -2.102  0.00  0.00    +0.143 A 
ATOM      9  O   UNL     1       6.189   0.728  -1.012  0.00  0.00    -0.422 OA
ATOM     10  C   UNL     1       4.846   0.881  -1.109  0.00  0.00    +0.350 A 
ATOM     11  O   UNL     1       4.187   1.290  -0.171  0.00  0.00    -0.244 OA
ENDROOT
BRANCH   1  13
ATOM     12  N   UNL     1       2.058   0.067  -1.331  0.00  0.00    -0.309 N 
ATOM     13  C   UNL     1       2.796   0.123  -2.457  0.00  0.00    +0.251 C 
ATOM     14  O   UNL     1       2.295  -0.162  -3.528  0.00  0.00    -0.270 OA
ATOM     15  H   UNL     1       2.458   0.294  -0.477  0.00  0.00    +0.149 HD
BRANCH  12  16
ATOM     16  C   UNL     1       0.651  -0.338  -1.397  0.00  0.00    +0.070 C 
ATOM     17  C   UNL     1       0.558  -1.864  -1.360  0.00  0.00    +0.028 C 
BRANCH  16  19
ATOM     18  C   UNL     1      -0.117   1.775  -0.308  0.00  0.00    +0.005 C 
ATOM     19  C   UNL     1      -0.105   0.249  -0.203  0.00  0.00    +0.018 C 
ENDBRANCH  16  19
ENDBRANCH  12  16
ENDBRANCH   1  13
BRANCH   6  20
ATOM     20  O   UNL     1      10.280   2.168  -2.950  0.00  0.00    -0.422 OA
BRANCH  20  21
ATOM     21  C   UNL     1      10.578   3.446  -3.253  0.00  0.00    +0.344 C 
ATOM     22  O   UNL     1       9.691   4.226  -3.537  0.00  0.00    -0.245 OA
BRANCH  21  23
ATOM     23  C   UNL     1      11.984   3.900  -3.242  0.00  0.00    +0.059 A 
ATOM     24  C   UNL     1      13.007   3.005  -2.922  0.00  0.00    +0.015 A 
ATOM     25  C   UNL     1      14.317   3.435  -2.914  0.00  0.00    +0.004 A 
ATOM     26  C   UNL     1      14.619   4.750  -3.221  0.00  0.00    -0.050 A 
ATOM     27  C   UNL     1      13.611   5.642  -3.538  0.00  0.00    +0.004 A 
ATOM     28  C   UNL     1      12.296   5.224  -3.556  0.00  0.00    +0.015 A 
ATOM     29  C   UNL     1      16.054   5.212  -3.209  0.00  0.00    +0.044 C 
ENDBRANCH  21  23
ENDBRANCH  20  21
ENDBRANCH   6  20
TORSDOF 6
