REMARK  Name = ZINC28632022
REMARK  9 active torsions:
REMARK  status: ('A' for Active; 'I' for Inactive)
REMARK    1  A    between atoms: C_1  and  C_2
REMARK    2  A    between atoms: C_2  and  C_3
REMARK    3  A    between atoms: C_3  and  C_5
REMARK    4  A    between atoms: C_3  and  N_15
REMARK    5  A    between atoms: C_16  and  C_18
REMARK    6  A    between atoms: N_23  and  S_25
REMARK    7  A    between atoms: S_25  and  C_28
REMARK    8  A    between atoms: N_31  and  C_34
REMARK    9  A    between atoms: C_32  and  C_33
REMARK                            x       y       z     vdW  Elec       q    Type
REMARK                         _______ _______ _______ _____ _____    ______ ____
ROOT
ATOM      1  N   UNL     1       1.747  -4.633  -3.968  0.00  0.00    -0.312 N 
ATOM      2  C   UNL     1       0.860  -4.457  -2.969  0.00  0.00    +0.218 C 
ATOM      3  O   UNL     1       0.558  -5.389  -2.254  0.00  0.00    -0.275 OA
ATOM      4  H   UNL     1       2.021  -3.788  -4.617  0.00  0.00    +0.149 HD
ENDROOT
BRANCH   2   5
ATOM      5  C   UNL     1       0.242  -3.101  -2.741  0.00  0.00    +0.091 C 
ATOM      6  C   UNL     1      -0.526  -2.673  -3.994  0.00  0.00    +0.015 C 
ATOM      7  C   UNL     1      -1.127  -1.282  -3.776  0.00  0.00    +0.018 C 
ATOM      8  C   UNL     1      -2.113  -1.336  -2.599  0.00  0.00    +0.109 C 
ATOM      9  N   UNL     1      -1.414  -1.881  -1.428  0.00  0.00    -0.176 NA
ATOM     10  C   UNL     1      -0.724  -3.173  -1.554  0.00  0.00    +0.122 C 
BRANCH   9  11
ATOM     11  S   UNL     1      -1.408  -1.060   0.010  0.00  0.00    +0.064 S 
ATOM     12  O   UNL     1      -1.187  -2.026   1.029  0.00  0.00    -0.153 OA
ATOM     13  O   UNL     1      -2.550  -0.213  -0.002  0.00  0.00    -0.153 OA
BRANCH  11  14
ATOM     14  C   UNL     1       0.002  -0.004   0.002  0.00  0.00    +0.146 A 
ATOM     15  C   UNL     1      -0.017   1.395   0.010  0.00  0.00    +0.163 A 
ATOM     16  N   UNL     1       1.220   1.820   0.000  0.00  0.00    -0.178 NA
ATOM     17  N   UNL     1       2.067   0.704  -0.014  0.00  0.00    -0.270 N 
ATOM     18  C   UNL     1       1.295  -0.403  -0.013  0.00  0.00    +0.062 A 
ATOM     19  C   UNL     1       1.785  -1.828  -0.024  0.00  0.00    +0.067 C 
ATOM     20  C   UNL     1       3.532   0.734  -0.028  0.00  0.00    +0.172 C 
ENDBRANCH  11  14
ENDBRANCH   9  11
ENDBRANCH   2   5
BRANCH   1  21
ATOM     21  C   UNL     1       2.348  -5.951  -4.189  0.00  0.00    +0.079 C 
BRANCH  21  22
ATOM     22  C   UNL     1       2.787  -6.073  -5.650  0.00  0.00    -0.010 C 
ATOM     23  C   UNL     1       3.414  -7.449  -5.881  0.00  0.00    +0.012 C 
ATOM     24  C   UNL     1       3.853  -7.570  -7.342  0.00  0.00    -0.010 C 
ATOM     25  C   UNL     1       2.637  -7.404  -8.255  0.00  0.00    +0.007 C 
ATOM     26  C   UNL     1       2.009  -6.028  -8.024  0.00  0.00    -0.010 C 
ATOM     27  C   UNL     1       1.571  -5.907  -6.563  0.00  0.00    +0.012 C 
ATOM     28  C   UNL     1       3.037  -4.939  -8.340  0.00  0.00    +0.007 C 
ATOM     29  C   UNL     1       4.253  -5.105  -7.427  0.00  0.00    -0.010 C 
ATOM     30  C   UNL     1       4.880  -6.482  -7.658  0.00  0.00    +0.007 C 
ATOM     31  C   UNL     1       3.814  -4.984  -5.966  0.00  0.00    +0.012 C 
ENDBRANCH  21  22
BRANCH  21  33
ATOM     32  C   UNL     1       3.109  -6.120  -1.815  0.00  0.00    +0.006 C 
ATOM     33  C   UNL     1       3.564  -6.117  -3.276  0.00  0.00    +0.019 C 
ENDBRANCH  21  33
ENDBRANCH   1  21
TORSDOF 6
