REMARK  Name = ZINC37620388
REMARK  7 active torsions:
REMARK  status: ('A' for Active; 'I' for Inactive)
REMARK    1  A    between atoms: C_1  and  C_2
REMARK    2  A    between atoms: C_2  and  C_3
REMARK    3  A    between atoms: C_3  and  C_4
REMARK    4  A    between atoms: C_4  and  C_5
REMARK    5  A    between atoms: C_5  and  C_7
REMARK    6  A    between atoms: C_5  and  N_23
REMARK    7  A    between atoms: N_9  and  C_10
REMARK                            x       y       z     vdW  Elec       q    Type
REMARK                         _______ _______ _______ _____ _____    ______ ____
ROOT
ATOM      1  C   UNL     1       1.582  -4.021  -2.470  0.00  0.00    +0.203 C 
ATOM      2  O   UNL     1       0.813  -4.718  -3.098  0.00  0.00    -0.277 OA
ATOM      3  N   UNL     1       2.559  -4.589  -1.736  0.00  0.00    -0.286 N 
ATOM      4  H   UNL     1       3.224  -4.033  -1.299  0.00  0.00    +0.155 HD
ENDROOT
BRANCH   3   5
ATOM      5  C   UNL     1       2.616  -5.983  -1.604  0.00  0.00    +0.049 A 
ATOM      6  C   UNL     1       1.464  -6.740  -1.754  0.00  0.00    +0.052 A 
ATOM      7  C   UNL     1       1.523  -8.118  -1.623  0.00  0.00    +0.069 A 
ATOM      8  C   UNL     1       2.741  -8.740  -1.340  0.00  0.00    +0.068 A 
ATOM      9  C   UNL     1       3.890  -7.978  -1.190  0.00  0.00    +0.045 A 
ATOM     10  C   UNL     1       3.829  -6.605  -1.327  0.00  0.00    +0.041 A 
ATOM     11 BR   UNL     1       5.398  -5.567  -1.132  0.00  0.00    -0.048 Br
ATOM     12  N   UNL     1       2.487 -10.109  -1.268  0.00  0.00    -0.306 N 
ATOM     13  H   UNL     1       3.143 -10.800  -1.084  0.00  0.00    +0.170 HD
ATOM     14  C   UNL     1       1.175 -10.309  -1.497  0.00  0.00    +0.325 A 
ATOM     15  O   UNL     1       0.623 -11.394  -1.506  0.00  0.00    -0.247 OA
ATOM     16  N   UNL     1       0.567  -9.128  -1.714  0.00  0.00    -0.306 N 
ATOM     17  H   UNL     1      -0.376  -9.001  -1.903  0.00  0.00    +0.170 HD
ENDBRANCH   3   5
BRANCH   1  18
ATOM     18  C   UNL     1       1.446  -2.521  -2.512  0.00  0.00    +0.013 C 
BRANCH  18  19
ATOM     19  N   UNL     1       0.671  -2.132  -3.697  0.00  0.00    +0.386 N 
ATOM     20  H   UNL     1       1.146  -2.450  -4.529  0.00  0.00    -0.089 HD
ATOM     21  H   UNL     1      -0.246  -2.552  -3.652  0.00  0.00    -0.089 HD
ATOM     22  H   UNL     1       0.580  -1.128  -3.725  0.00  0.00    -0.089 HD
ENDBRANCH  18  19
BRANCH  18  23
ATOM     23  C   UNL     1       0.726  -2.039  -1.251  0.00  0.00    -0.007 C 
BRANCH  23  24
ATOM     24  C   UNL     1       0.698  -0.509  -1.233  0.00  0.00    -0.001 C 
BRANCH  24  26
ATOM     25  C   UNL     1      -0.050   1.502   0.047  0.00  0.00    +0.004 C 
ATOM     26  C   UNL     1      -0.022  -0.028   0.028  0.00  0.00    -0.003 C 
ENDBRANCH  24  26
ENDBRANCH  23  24
ENDBRANCH  18  23
ENDBRANCH   1  18
TORSDOF 6
