REMARK  Name = ZINC60347895
REMARK  6 active torsions:
REMARK  status: ('A' for Active; 'I' for Inactive)
REMARK    1  A    between atoms: C_1  and  C_2
REMARK    2  A    between atoms: N_4  and  C_5
REMARK    3  A    between atoms: C_10  and  N_11
REMARK    4  A    between atoms: C_12  and  C_14
REMARK    5  A    between atoms: C_16  and  C_26
REMARK    6  A    between atoms: N_17  and  C_19
REMARK                            x       y       z     vdW  Elec       q    Type
REMARK                         _______ _______ _______ _____ _____    ______ ____
ROOT
ATOM      1  N   UNL     1       0.160  -2.155  -3.584  0.00  0.00    -0.279 N 
ATOM      2  C   UNL     1       0.142  -2.885  -4.717  0.00  0.00    +0.268 C 
ATOM      3  O   UNL     1       0.255  -4.094  -4.663  0.00  0.00    -0.268 OA
ATOM      4  H   UNL     1       0.151  -1.186  -3.632  0.00  0.00    +0.155 HD
ENDROOT
BRANCH   1  10
ATOM      5  C   UNL     1       0.720  -2.138  -1.229  0.00  0.00    +0.058 A 
ATOM      6  C   UNL     1       0.744  -2.774   0.004  0.00  0.00    +0.066 A 
ATOM      7  C   UNL     1       0.248  -4.059   0.129  0.00  0.00    +0.160 A 
ATOM      8  C   UNL     1      -0.274  -4.715  -0.977  0.00  0.00    +0.160 A 
ATOM      9  C   UNL     1      -0.300  -4.086  -2.209  0.00  0.00    +0.066 A 
ATOM     10  C   UNL     1       0.191  -2.795  -2.339  0.00  0.00    +0.058 A 
ATOM     11  F   UNL     1      -0.756  -5.970  -0.850  0.00  0.00    -0.202 F 
ATOM     12  F   UNL     1       0.272  -4.677   1.330  0.00  0.00    -0.202 F 
BRANCH   5  16
ATOM     13  C   UNL     1       1.914   1.334  -0.392  0.00  0.00    +0.109 C 
ATOM     14  C   UNL     1       1.261  -0.020  -0.285  0.00  0.00    +0.214 C 
ATOM     15  O   UNL     1       0.770  -0.375   0.765  0.00  0.00    -0.276 OA
ATOM     16  N   UNL     1       1.223  -0.836  -1.357  0.00  0.00    -0.284 N 
ATOM     17  H   UNL     1       1.542  -0.522  -2.217  0.00  0.00    +0.155 HD
ENDBRANCH   5  16
ENDBRANCH   1  10
BRANCH   2  18
ATOM     18  C   UNL     1      -0.015  -2.216  -6.025  0.00  0.00    +0.148 A 
ATOM     19  C   UNL     1      -0.057  -2.847  -7.286  0.00  0.00    +0.066 A 
ATOM     20  C   UNL     1      -0.213  -1.835  -8.196  0.00  0.00    +0.110 A 
ATOM     21  N   UNL     1      -0.259  -0.668  -7.482  0.00  0.00    -0.228 N 
ATOM     22  N   UNL     1      -0.147  -0.919  -6.227  0.00  0.00    -0.161 NA
BRANCH  21  23
ATOM     23  C   UNL     1      -0.411   0.608  -8.036  0.00  0.00    +0.068 A 
ATOM     24  C   UNL     1      -1.362   0.830  -9.024  0.00  0.00    +0.028 A 
ATOM     25  C   UNL     1      -1.510   2.090  -9.569  0.00  0.00    +0.003 A 
ATOM     26  C   UNL     1      -0.712   3.131  -9.133  0.00  0.00    +0.020 A 
ATOM     27  C   UNL     1       0.237   2.915  -8.150  0.00  0.00    +0.043 A 
ATOM     28  C   UNL     1       0.386   1.657  -7.596  0.00  0.00    +0.047 A 
ATOM     29 CL   UNL     1       1.237   4.226  -7.606  0.00  0.00    -0.083 Cl
ENDBRANCH  21  23
BRANCH  20  30
ATOM     30  C   UNL     1      -0.312  -1.974  -9.659  0.00  0.00    +0.153 A 
ATOM     31  C   UNL     1      -0.466  -3.143 -10.341  0.00  0.00    +0.051 A 
ATOM     32  C   UNL     1      -0.514  -2.809 -11.709  0.00  0.00    +0.042 A 
ATOM     33  C   UNL     1      -0.388  -1.470 -11.794  0.00  0.00    +0.196 A 
ATOM     34  O   UNL     1      -0.273  -0.968 -10.554  0.00  0.00    -0.461 OA
ENDBRANCH  20  30
ENDBRANCH   2  18
TORSDOF 5
