REMARK  Name = ZINC16724409
REMARK  11 active torsions:
REMARK  status: ('A' for Active; 'I' for Inactive)
REMARK    1  A    between atoms: C_1  and  C_2
REMARK    2  A    between atoms: C_2  and  N_3
REMARK    3  A    between atoms: C_12  and  S_13
REMARK    4  A    between atoms: S_13  and  C_14
REMARK    5  A    between atoms: C_14  and  C_16
REMARK    6  A    between atoms: C_14  and  C_17
REMARK    7  A    between atoms: N_19  and  C_20
REMARK    8  A    between atoms: C_20  and  C_21
REMARK    9  A    between atoms: C_21  and  C_22
REMARK   10  A    between atoms: C_21  and  C_23
REMARK   11  A    between atoms: C_25  and  C_29
REMARK                            x       y       z     vdW  Elec       q    Type
REMARK                         _______ _______ _______ _____ _____    ______ ____
ROOT
ATOM      1  N   UNL     1       2.336   0.000  -0.020  0.00  0.00    -0.288 N 
ATOM      2  C   UNL     1       2.386   1.345  -0.013  0.00  0.00    +0.263 A 
ATOM      3  O   UNL     1       3.460   1.923  -0.020  0.00  0.00    -0.267 OA
ATOM      4  C   UNL     1       1.163   2.087   0.002  0.00  0.00    +0.076 A 
ATOM      5  C   UNL     1       0.984   3.541   0.010  0.00  0.00    -0.023 A 
ATOM      6  C   UNL     1      -0.284   4.000   0.024  0.00  0.00    -0.004 A 
ATOM      7  S   UNL     1      -1.300   2.548   0.035  0.00  0.00    -0.073 S 
ATOM      8  C   UNL     1      -0.016   1.324   0.009  0.00  0.00    +0.117 A 
ATOM      9  N   UNL     1       0.002  -0.004   0.002  0.00  0.00    -0.216 NA
ATOM     10  C   UNL     1       1.143  -0.663  -0.012  0.00  0.00    +0.173 A 
ATOM     11  C   UNL     1      -0.730   5.431   0.033  0.00  0.00    +0.046 C 
ATOM     12  C   UNL     1       0.465   6.314  -0.351  0.00  0.00    -0.009 C 
ATOM     13  C   UNL     1       1.681   5.880   0.473  0.00  0.00    +0.008 C 
ATOM     14  C   UNL     1       2.164   4.508   0.002  0.00  0.00    +0.037 C 
ATOM     15  C   UNL     1       0.138   7.779  -0.051  0.00  0.00    +0.008 C 
ENDROOT
BRANCH   1  17
ATOM     16  C   UNL     1       4.005  -1.025  -1.484  0.00  0.00    +0.027 C 
ATOM     17  C   UNL     1       3.584  -0.766  -0.036  0.00  0.00    +0.124 C 
ENDBRANCH   1  17
BRANCH  10  18
ATOM     18  S   UNL     1       1.129  -2.425  -0.021  0.00  0.00    -0.075 S 
BRANCH  18  19
ATOM     19  C   UNL     1      -0.656  -2.725  -0.007  0.00  0.00    +0.137 C 
ATOM     20  C   UNL     1      -1.248  -2.216   1.309  0.00  0.00    +0.029 C 
BRANCH  19  21
ATOM     21  C   UNL     1      -0.918  -4.204  -0.136  0.00  0.00    +0.226 C 
ATOM     22  O   UNL     1      -0.076  -5.002   0.217  0.00  0.00    -0.275 OA
ATOM     23  N   UNL     1      -2.089  -4.639  -0.644  0.00  0.00    -0.314 N 
ATOM     24  H   UNL     1      -2.762  -4.000  -0.926  0.00  0.00    +0.149 HD
BRANCH  23  25
ATOM     25  C   UNL     1      -2.343  -6.076  -0.769  0.00  0.00    +0.107 C 
BRANCH  25  26
ATOM     26  C   UNL     1      -3.733  -6.297  -1.369  0.00  0.00    -0.000 C 
ATOM     27  C   UNL     1      -3.951  -7.791  -1.617  0.00  0.00    +0.009 C 
ATOM     28  C   UNL     1      -4.796  -5.781  -0.397  0.00  0.00    +0.009 C 
ENDBRANCH  25  26
ENDBRANCH  23  25
ENDBRANCH  19  21
ENDBRANCH  18  19
ENDBRANCH  10  18
TORSDOF 6
