REMARK  Name = ZINC39445748
REMARK  12 active torsions:
REMARK  status: ('A' for Active; 'I' for Inactive)
REMARK    1  A    between atoms: C_1  and  C_2
REMARK    2  A    between atoms: C_2  and  C_10
REMARK    3  A    between atoms: C_3  and  C_4
REMARK    4  A    between atoms: C_10  and  N_11
REMARK    5  A    between atoms: C_13  and  N_32
REMARK    6  A    between atoms: C_16  and  C_18
REMARK    7  A    between atoms: N_20  and  C_21
REMARK    8  A    between atoms: C_21  and  C_22
REMARK    9  A    between atoms: C_22  and  C_23
REMARK   10  A    between atoms: C_34  and  C_37
REMARK   11  A    between atoms: C_37  and  O_39
REMARK   12  A    between atoms: O_39  and  C_40
REMARK                            x       y       z     vdW  Elec       q    Type
REMARK                         _______ _______ _______ _____ _____    ______ ____
ROOT
ATOM      1  N   UNL     1      -1.353  -1.385  -1.670  0.00  0.00    +0.391 N 
ATOM      2  C   UNL     1      -1.644  -2.479  -0.720  0.00  0.00    -0.053 C 
ATOM      3  C   UNL     1      -2.306  -3.584  -1.580  0.00  0.00    +0.074 C 
ATOM      4  C   UNL     1      -1.506  -3.472  -2.904  0.00  0.00    +0.016 C 
ATOM      5  C   UNL     1      -1.244  -1.956  -3.025  0.00  0.00    +0.021 C 
ATOM      6  H   UNL     1      -2.101  -0.708  -1.646  0.00  0.00    -0.080 HD
ENDROOT
BRANCH   3   7
ATOM      7  N   UNL     1      -2.128  -4.903  -0.968  0.00  0.00    -0.255 N 
ATOM      8  C   UNL     1      -3.137  -5.744  -0.573  0.00  0.00    +0.121 C 
ATOM      9  C   UNL     1      -2.584  -6.863  -0.055  0.00  0.00    +0.142 C 
ATOM     10  N   UNL     1      -1.181  -6.716  -0.130  0.00  0.00    -0.257 N 
ATOM     11  N   UNL     1      -0.929  -5.501  -0.703  0.00  0.00    -0.160 NA
ATOM     12  H   UNL     1      -0.518  -7.361   0.166  0.00  0.00    +0.168 HD
ATOM     13  H   UNL     1      -0.366  -4.927  -0.095  0.00  0.00    +0.168 HD
BRANCH   9  14
ATOM     14  C   UNL     1      -3.283  -7.978   0.467  0.00  0.00    +0.355 C 
ATOM     15  O   UNL     1      -4.500  -7.984   0.477  0.00  0.00    -0.243 OA
BRANCH  14  16
ATOM     16  O   UNL     1      -2.599  -9.035   0.955  0.00  0.00    -0.464 OA
ATOM     17  C   UNL     1      -3.368 -10.126   1.466  0.00  0.00    +0.280 C 
ENDBRANCH  14  16
ENDBRANCH   9  14
ENDBRANCH   3   7
BRANCH   5  18
ATOM     18  C   UNL     1      -2.273  -1.329  -3.930  0.00  0.00    +0.200 C 
ATOM     19  O   UNL     1      -3.029  -0.485  -3.496  0.00  0.00    -0.278 OA
ATOM     20  N   UNL     1      -2.353  -1.705  -5.222  0.00  0.00    -0.316 N 
ATOM     21  H   UNL     1      -1.749  -2.380  -5.569  0.00  0.00    +0.149 HD
BRANCH  20  22
ATOM     22  C   UNL     1      -3.353  -1.095  -6.101  0.00  0.00    +0.109 C 
BRANCH  22  23
ATOM     23  C   UNL     1      -3.232  -1.695  -7.504  0.00  0.00    +0.056 C 
BRANCH  23  24
ATOM     24  C   UNL     1      -4.261  -1.067  -8.409  0.00  0.00    -0.021 A 
ATOM     25  C   UNL     1      -4.122   0.191  -9.146  0.00  0.00    +0.003 A 
ATOM     26  C   UNL     1      -3.107   1.143  -9.258  0.00  0.00    +0.010 A 
ATOM     27  C   UNL     1      -3.291   2.240 -10.051  0.00  0.00    +0.001 A 
ATOM     28  C   UNL     1      -4.479   2.417 -10.745  0.00  0.00    +0.002 A 
ATOM     29  C   UNL     1      -5.494   1.491 -10.649  0.00  0.00    +0.026 A 
ATOM     30  C   UNL     1      -5.329   0.366  -9.848  0.00  0.00    +0.047 A 
ATOM     31  N   UNL     1      -6.131  -0.713  -9.551  0.00  0.00    -0.360 N 
ATOM     32  C   UNL     1      -5.477  -1.558  -8.697  0.00  0.00    +0.087 A 
ATOM     33  H   UNL     1      -7.026  -0.854  -9.898  0.00  0.00    +0.165 HD
ENDBRANCH  23  24
ENDBRANCH  22  23
ENDBRANCH  20  22
ENDBRANCH   5  18
BRANCH   1  34
ATOM     34  C   UNL     1      -0.086  -0.737  -1.304  0.00  0.00    -0.047 C 
BRANCH  34  36
ATOM     35  C   UNL     1      -0.807   1.346   0.095  0.00  0.00    +0.037 C 
ATOM     36  C   UNL     1      -0.240  -0.049   0.028  0.00  0.00    -0.089 C 
ATOM     37  C   UNL     1       0.122  -0.672   1.141  0.00  0.00    +0.005 C 
BRANCH  37  38
ATOM     38  C   UNL     1       0.124   0.056   2.428  0.00  0.00    -0.025 A 
ATOM     39  C   UNL     1      -0.263  -0.593   3.600  0.00  0.00    +0.008 A 
ATOM     40  C   UNL     1      -0.258   0.092   4.798  0.00  0.00    +0.001 A 
ATOM     41  C   UNL     1       0.129   1.420   4.838  0.00  0.00    +0.000 A 
ATOM     42  C   UNL     1       0.513   2.069   3.678  0.00  0.00    +0.001 A 
ATOM     43  C   UNL     1       0.520   1.394   2.475  0.00  0.00    +0.008 A 
ENDBRANCH  37  38
ENDBRANCH  34  36
ENDBRANCH   1  34
TORSDOF 10
