REMARK  Name = ZINC36860390
REMARK  10 active torsions:
REMARK  status: ('A' for Active; 'I' for Inactive)
REMARK    1  A    between atoms: C_1  and  C_2
REMARK    2  A    between atoms: C_2  and  C_3
REMARK    3  A    between atoms: C_3  and  C_4
REMARK    4  A    between atoms: C_4  and  C_5
REMARK    5  A    between atoms: C_5  and  N_6
REMARK    6  A    between atoms: N_6  and  C_7
REMARK    7  A    between atoms: C_8  and  C_10
REMARK    8  A    between atoms: N_14  and  C_15
REMARK    9  A    between atoms: C_15  and  C_16
REMARK   10  A    between atoms: C_15  and  C_17
REMARK                            x       y       z     vdW  Elec       q    Type
REMARK                         _______ _______ _______ _____ _____    ______ ____
ROOT
ATOM      1  N   UNL     1       1.462  -4.079  -2.421  0.00  0.00    -0.299 N 
ATOM      2  C   UNL     1       0.342  -4.780  -3.054  0.00  0.00    +0.132 C 
ATOM      3  C   UNL     1       2.595  -4.746  -2.128  0.00  0.00    +0.263 C 
ATOM      4  O   UNL     1       3.485  -4.192  -1.510  0.00  0.00    -0.268 OA
ENDROOT
BRANCH   3   5
ATOM      5  C   UNL     1       2.757  -6.140  -2.555  0.00  0.00    +0.106 A 
ATOM      6  C   UNL     1       1.901  -6.846  -3.373  0.00  0.00    +0.047 A 
ATOM      7  C   UNL     1       2.436  -8.130  -3.518  0.00  0.00    +0.036 A 
ATOM      8  C   UNL     1       3.585  -8.185  -2.802  0.00  0.00    +0.102 A 
ATOM      9  N   UNL     1       3.794  -6.980  -2.216  0.00  0.00    -0.339 N 
ATOM     10 BR   UNL     1       1.689  -9.540  -4.534  0.00  0.00    -0.049 Br
BRANCH   9  11
ATOM     11  C   UNL     1       4.932  -6.630  -1.362  0.00  0.00    +0.081 C 
ATOM     12  C   UNL     1       4.870  -7.448  -0.070  0.00  0.00    +0.030 C 
ATOM     13  C   UNL     1       6.236  -6.940  -2.099  0.00  0.00    +0.030 C 
ENDBRANCH   9  11
ENDBRANCH   3   5
BRANCH   1  14
ATOM     14  C   UNL     1       1.350  -2.652  -2.107  0.00  0.00    +0.108 C 
BRANCH  14  15
ATOM     15  C   UNL     1       0.781  -2.484  -0.696  0.00  0.00    +0.019 C 
BRANCH  15  16
ATOM     16  C   UNL     1       0.664  -0.994  -0.368  0.00  0.00    +0.001 C 
BRANCH  16  18
ATOM     17  C   UNL     1      -0.021   0.664   1.371  0.00  0.00    +0.004 C 
ATOM     18  C   UNL     1       0.096  -0.826   1.043  0.00  0.00    -0.003 C 
ENDBRANCH  16  18
ENDBRANCH  15  16
ENDBRANCH  14  15
ENDBRANCH   1  14
TORSDOF 6
