REMARK  Name = ZINC03346193
REMARK  9 active torsions:
REMARK  status: ('A' for Active; 'I' for Inactive)
REMARK    1  A    between atoms: C_1  and  C_2
REMARK    2  A    between atoms: C_2  and  O_3
REMARK    3  A    between atoms: O_3  and  C_4
REMARK    4  A    between atoms: C_4  and  C_6
REMARK    5  A    between atoms: C_7  and  C_36
REMARK    6  A    between atoms: C_13  and  C_17
REMARK    7  A    between atoms: C_17  and  S_18
REMARK    8  A    between atoms: S_18  and  C_19
REMARK    9  A    between atoms: N_29  and  C_30
REMARK                            x       y       z     vdW  Elec       q    Type
REMARK                         _______ _______ _______ _____ _____    ______ ____
ROOT
ATOM      1  C   UNL     1       4.420  -4.331  -7.734  0.00  0.00    +0.151 C 
ENDROOT
BRANCH   1   9
ATOM      2  C   UNL     1       1.449  -2.344  -2.516  0.00  0.00    +0.102 A 
ATOM      3  C   UNL     1       1.649  -3.651  -2.857  0.00  0.00    -0.015 A 
ATOM      4  C   UNL     1       2.321  -3.966  -4.039  0.00  0.00    +0.076 A 
ATOM      5  C   UNL     1       2.648  -5.295  -4.604  0.00  0.00    +0.260 A 
ATOM      6  O   UNL     1       2.325  -6.317  -4.025  0.00  0.00    -0.267 OA
ATOM      7  N   UNL     1       3.313  -5.345  -5.775  0.00  0.00    -0.310 N 
ATOM      8  H   UNL     1       3.536  -6.207  -6.159  0.00  0.00    +0.170 HD
ATOM      9  C   UNL     1       3.678  -4.214  -6.428  0.00  0.00    +0.121 A 
ATOM     10  N   UNL     1       3.405  -3.027  -5.958  0.00  0.00    -0.226 NA
ATOM     11  C   UNL     1       2.755  -2.865  -4.813  0.00  0.00    +0.116 A 
ATOM     12  S   UNL     1       2.205  -1.464  -3.872  0.00  0.00    -0.062 S 
ATOM     13  C   UNL     1       1.145  -4.751  -1.958  0.00  0.00    +0.046 C 
BRANCH   2  14
ATOM     14  C   UNL     1       0.776  -1.800  -1.335  0.00  0.00    +0.346 C 
ATOM     15  O   UNL     1       0.312  -2.552  -0.499  0.00  0.00    -0.244 OA
BRANCH  14  16
ATOM     16  O   UNL     1       0.671  -0.465  -1.174  0.00  0.00    -0.461 OA
BRANCH  16  18
ATOM     17  C   UNL     1      -0.019   1.526   0.010  0.00  0.00    +0.048 C 
ATOM     18  C   UNL     1       0.002  -0.004   0.002  0.00  0.00    +0.229 C 
ENDBRANCH  16  18
ENDBRANCH  14  16
ENDBRANCH   2  14
ENDBRANCH   1   9
BRANCH   1  19
ATOM     19  S   UNL     1       4.776  -2.673  -8.377  0.00  0.00    -0.080 S 
BRANCH  19  20
ATOM     20  C   UNL     1       5.635  -2.976  -9.886  0.00  0.00    +0.173 A 
ATOM     21  N   UNL     1       5.841  -4.218 -10.249  0.00  0.00    -0.223 NA
ATOM     22  C   UNL     1       6.493  -4.522 -11.395  0.00  0.00    +0.080 A 
ATOM     23  C   UNL     1       6.714  -5.846 -11.784  0.00  0.00    +0.048 A 
ATOM     24  C   UNL     1       7.382  -6.106 -12.960  0.00  0.00    +0.043 A 
ATOM     25  C   UNL     1       7.839  -5.068 -13.764  0.00  0.00    +0.021 A 
ATOM     26  C   UNL     1       7.635  -3.765 -13.405  0.00  0.00    +0.017 A 
ATOM     27  C   UNL     1       6.961  -3.473 -12.220  0.00  0.00    +0.065 A 
ATOM     28  C   UNL     1       6.716  -2.090 -11.789  0.00  0.00    +0.263 A 
ATOM     29  O   UNL     1       7.094  -1.145 -12.456  0.00  0.00    -0.267 OA
ATOM     30  N   UNL     1       6.049  -1.905 -10.626  0.00  0.00    -0.284 N 
ATOM     31 CL   UNL     1       7.657  -7.751 -13.444  0.00  0.00    -0.083 Cl
BRANCH  30  32
ATOM     32  C   UNL     1       5.774  -0.546 -10.155  0.00  0.00    +0.093 C 
ATOM     33  C   UNL     1       4.974   0.231 -11.221  0.00  0.00    +0.025 C 
ATOM     34  C   UNL     1       5.538   1.671 -11.143  0.00  0.00    +0.002 C 
ATOM     35  C   UNL     1       7.050   1.434 -10.900  0.00  0.00    +0.002 C 
ATOM     36  C   UNL     1       7.093   0.218  -9.951  0.00  0.00    +0.025 C 
ENDBRANCH  30  32
ENDBRANCH  19  20
ENDBRANCH   1  19
TORSDOF 7
