REMARK  Name = ZINC02131867
REMARK  11 active torsions:
REMARK  status: ('A' for Active; 'I' for Inactive)
REMARK    1  A    between atoms: C_1  and  C_2
REMARK    2  A    between atoms: C_2  and  C_3
REMARK    3  A    between atoms: C_3  and  O_4
REMARK    4  A    between atoms: O_4  and  C_5
REMARK    5  A    between atoms: C_8  and  C_14
REMARK    6  A    between atoms: C_10  and  O_11
REMARK    7  A    between atoms: O_11  and  C_12
REMARK    8  A    between atoms: C_12  and  C_13
REMARK    9  A    between atoms: N_21  and  C_36
REMARK   10  A    between atoms: C_24  and  C_35
REMARK   11  A    between atoms: C_36  and  C_37
REMARK                            x       y       z     vdW  Elec       q    Type
REMARK                         _______ _______ _______ _____ _____    ______ ____
ROOT
ATOM      1  C   UNL     1       1.222  -2.189  -0.020  0.00  0.00    +0.069 C 
ATOM      2  C   UNL     1       0.513  -2.715   1.234  0.00  0.00    +0.122 C 
ATOM      3  N   UNL     1      -0.942  -2.544   1.065  0.00  0.00    -0.280 N 
ATOM      4  C   UNL     1      -1.603  -1.717   1.879  0.00  0.00    +0.234 C 
ATOM      5  O   UNL     1      -1.000  -1.244   2.818  0.00  0.00    -0.274 OA
ATOM      6  C   UNL     1      -3.031  -1.315   1.686  0.00  0.00    +0.203 C 
ATOM      7  N   UNL     1      -3.614  -1.910   0.494  0.00  0.00    -0.288 N 
ATOM      8  C   UNL     1      -2.982  -2.798  -0.273  0.00  0.00    +0.245 C 
ATOM      9  O   UNL     1      -3.562  -3.225  -1.248  0.00  0.00    -0.273 OA
ATOM     10  C   UNL     1      -1.603  -3.299  -0.000  0.00  0.00    +0.151 C 
ATOM     11  C   UNL     1      -0.757  -3.187  -1.247  0.00  0.00    +0.054 A 
ATOM     12  C   UNL     1       0.502  -2.693  -1.245  0.00  0.00    -0.008 A 
ATOM     13  C   UNL     1       0.980  -2.752  -2.610  0.00  0.00    +0.004 A 
ATOM     14  C   UNL     1       2.191  -2.388  -3.206  0.00  0.00    +0.010 A 
ATOM     15  C   UNL     1       2.300  -2.583  -4.561  0.00  0.00    +0.001 A 
ATOM     16  C   UNL     1       1.266  -3.115  -5.313  0.00  0.00    +0.002 A 
ATOM     17  C   UNL     1       0.057  -3.486  -4.749  0.00  0.00    +0.026 A 
ATOM     18  C   UNL     1      -0.082  -3.300  -3.375  0.00  0.00    +0.047 A 
ATOM     19  N   UNL     1      -1.113  -3.551  -2.517  0.00  0.00    -0.356 N 
ATOM     20  H   UNL     1      -1.969  -3.931  -2.770  0.00  0.00    +0.166 HD
ATOM     21  C   UNL     1      -1.683  -4.770   0.413  0.00  0.00    +0.048 C 
ENDROOT
BRANCH   1  25
ATOM     22  C   UNL     1       1.174   2.087   0.002  0.00  0.00    +0.162 A 
ATOM     23  C   UNL     1      -0.017   1.378   0.010  0.00  0.00    +0.050 A 
ATOM     24  C   UNL     1       0.002  -0.004   0.002  0.00  0.00    +0.008 A 
ATOM     25  C   UNL     1       1.207  -0.682  -0.013  0.00  0.00    -0.035 A 
ATOM     26  C   UNL     1       2.398   0.019  -0.021  0.00  0.00    +0.053 A 
ATOM     27  C   UNL     1       2.386   1.405  -0.014  0.00  0.00    +0.162 A 
BRANCH  22  28
ATOM     28  O   UNL     1       1.157   3.447   0.009  0.00  0.00    -0.488 OA
BRANCH  28  29
ATOM     29  C   UNL     1      -0.124   4.080   0.025  0.00  0.00    +0.229 C 
BRANCH  29  31
ATOM     30  C   UNL     1      -1.314   6.277   0.048  0.00  0.00    +0.007 C 
ATOM     31  C   UNL     1       0.058   5.599   0.032  0.00  0.00    +0.038 C 
ENDBRANCH  29  31
ENDBRANCH  28  29
ENDBRANCH  22  28
BRANCH  27  32
ATOM     32  O   UNL     1       3.557   2.096  -0.021  0.00  0.00    -0.489 OA
BRANCH  32  33
ATOM     33  C   UNL     1       4.763   1.330  -0.036  0.00  0.00    +0.226 C 
ATOM     34  C   UNL     1       5.968   2.274  -0.043  0.00  0.00    +0.048 C 
ENDBRANCH  32  33
ENDBRANCH  27  32
ENDBRANCH   1  25
BRANCH   7  35
ATOM     35  C   UNL     1      -4.971  -1.510   0.115  0.00  0.00    +0.140 C 
BRANCH  35  36
ATOM     36  C   UNL     1      -5.983  -2.444   0.782  0.00  0.00    +0.136 C 
ATOM     37  C   UNL     1      -7.414  -2.120   0.298  0.00  0.00    +0.035 C 
ATOM     38  C   UNL     1      -8.290  -2.321   1.555  0.00  0.00    +0.031 C 
ATOM     39  C   UNL     1      -7.285  -2.743   2.649  0.00  0.00    +0.160 C 
ATOM     40  O   UNL     1      -6.015  -2.215   2.208  0.00  0.00    -0.375 OA
ENDBRANCH  35  36
ENDBRANCH   7  35
TORSDOF 8
