REMARK  Name = ZINC32698887
REMARK  6 active torsions:
REMARK  status: ('A' for Active; 'I' for Inactive)
REMARK    1  A    between atoms: C_5  and  C_7
REMARK    2  A    between atoms: C_10  and  S_12
REMARK    3  A    between atoms: S_12  and  C_13
REMARK    4  A    between atoms: C_13  and  C_14
REMARK    5  A    between atoms: C_20  and  S_22
REMARK    6  A    between atoms: S_22  and  C_23
REMARK                            x       y       z     vdW  Elec       q    Type
REMARK                         _______ _______ _______ _____ _____    ______ ____
ROOT
ATOM      1  C   UNL     1       5.467   2.975  -0.034  0.00  0.00    +0.229 C 
ATOM      2  O   UNL     1       6.292   2.085  -0.047  0.00  0.00    -0.275 OA
ATOM      3  N   UNL     1       5.865   4.263  -0.031  0.00  0.00    -0.263 N 
ATOM      4  C   UNL     1       7.223   4.572  -0.042  0.00  0.00    +0.189 A 
ATOM      5  N   UNL     1       8.277   3.772  -0.051  0.00  0.00    -0.125 NA
ATOM      6  N   UNL     1       9.456   4.220  -0.066  0.00  0.00    -0.133 NA
ATOM      7  C   UNL     1       9.711   5.520  -0.061  0.00  0.00    +0.160 A 
ATOM      8  S   UNL     1       8.041   6.165  -0.042  0.00  0.00    -0.024 S 
ATOM      9  H   UNL     1       5.117   5.069  -0.020  0.00  0.00    +0.157 HD
ENDROOT
BRANCH   1  10
ATOM     10  C   UNL     1       3.998   2.640  -0.022  0.00  0.00    +0.175 C 
BRANCH  10  11
ATOM     11  S   UNL     1       3.788   0.843  -0.030  0.00  0.00    -0.056 S 
BRANCH  11  15
ATOM     12  C   UNL     1       0.002  -0.004   0.002  0.00  0.00    +0.250 A 
ATOM     13  N   UNL     1      -0.016   1.306   0.009  0.00  0.00    -0.106 NA
ATOM     14  N   UNL     1       1.192   1.751   0.000  0.00  0.00    -0.101 NA
ATOM     15  C   UNL     1       2.029   0.740  -0.013  0.00  0.00    +0.278 A 
ATOM     16  O   UNL     1       1.297  -0.391  -0.012  0.00  0.00    -0.411 OA
BRANCH  12  21
ATOM     17  C   UNL     1      -2.113  -3.107   0.006  0.00  0.00    +0.001 A 
ATOM     18  C   UNL     1      -3.386  -2.565   0.022  0.00  0.00    +0.001 A 
ATOM     19  C   UNL     1      -3.561  -1.193   0.031  0.00  0.00    +0.016 A 
ATOM     20  C   UNL     1      -2.464  -0.354   0.025  0.00  0.00    +0.030 A 
ATOM     21  C   UNL     1      -1.177  -0.895   0.009  0.00  0.00    +0.052 A 
ATOM     22  C   UNL     1      -1.008  -2.281  -0.005  0.00  0.00    +0.014 A 
ATOM     23 BR   UNL     1      -2.705   1.521   0.036  0.00  0.00    -0.050 Br
ENDBRANCH  12  21
ENDBRANCH  11  15
ENDBRANCH  10  11
ENDBRANCH   1  10
BRANCH   7  24
ATOM     24  S   UNL     1      11.254   6.372  -0.071  0.00  0.00    -0.094 S 
BRANCH  24  25
ATOM     25  C   UNL     1      12.489   5.043  -0.090  0.00  0.00    +0.053 C 
ATOM     26  C   UNL     1      12.402   4.248   1.214  0.00  0.00    +0.014 C 
ATOM     27  C   UNL     1      13.443   3.127   1.198  0.00  0.00    +0.001 C 
ATOM     28  C   UNL     1      14.842   3.732   1.062  0.00  0.00    +0.000 C 
ATOM     29  C   UNL     1      14.929   4.528  -0.242  0.00  0.00    +0.001 C 
ATOM     30  C   UNL     1      13.887   5.649  -0.226  0.00  0.00    +0.014 C 
ENDBRANCH  24  25
ENDBRANCH   7  24
TORSDOF 6
