REMARK  Name = ZINC45324681
REMARK  6 active torsions:
REMARK  status: ('A' for Active; 'I' for Inactive)
REMARK    1  A    between atoms: C_1  and  C_2
REMARK    2  A    between atoms: C_6  and  C_8
REMARK    3  A    between atoms: C_9  and  C_24
REMARK    4  A    between atoms: N_14  and  C_15
REMARK    5  A    between atoms: C_15  and  C_16
REMARK    6  A    between atoms: C_19  and  C_22
REMARK                            x       y       z     vdW  Elec       q    Type
REMARK                         _______ _______ _______ _____ _____    ______ ____
ROOT
ATOM      1  C   UNL     1       0.051  -2.683   2.482  0.00  0.00    +0.091 A 
ATOM      2  C   UNL     1       0.514  -2.179   3.691  0.00  0.00    +0.071 A 
ATOM      3  N   UNL     1       0.344  -3.140   4.623  0.00  0.00    -0.327 N 
ATOM      4  C   UNL     1      -0.192  -4.201   4.070  0.00  0.00    +0.172 A 
ATOM      5  N   UNL     1      -0.399  -3.966   2.746  0.00  0.00    -0.326 N 
ATOM      6  H   UNL     1      -0.787  -4.583   2.106  0.00  0.00    +0.169 HD
ATOM      7  N   UNL     1      -0.504  -5.373   4.731  0.00  0.00    -0.312 N 
ATOM      8  H   UNL     1      -0.328  -5.456   5.681  0.00  0.00    +0.149 HD
ATOM      9  H   UNL     1       0.583  -3.058   5.560  0.00  0.00    +0.169 HD
ENDROOT
BRANCH   2  10
ATOM     10  C   UNL     1       1.085  -0.845   3.913  0.00  0.00    -0.019 C 
ATOM     11  C   UNL     1       2.336  -0.585   3.485  0.00  0.00    +0.009 C 
ATOM     12  C   UNL     1       2.910   0.754   3.667  0.00  0.00    +0.044 C 
ATOM     13  C   UNL     1       2.067   1.751   3.963  0.00  0.00    +0.130 C 
ATOM     14  C   UNL     1       0.553   1.575   4.014  0.00  0.00    +0.191 C 
ATOM     15  C   UNL     1       0.255   0.203   4.610  0.00  0.00    +0.077 C 
ATOM     16  O   UNL     1       0.160   2.621   4.933  0.00  0.00    -0.333 OA
ATOM     17  C   UNL     1       1.072   3.687   4.574  0.00  0.00    +0.395 C 
ATOM     18  O   UNL     1       2.319   3.045   4.250  0.00  0.00    -0.468 OA
ENDBRANCH   2  10
BRANCH   1  24
ATOM     19  C   UNL     1      -0.018   1.503   0.010  0.00  0.00    +0.065 C 
ATOM     20  C   UNL     1       0.002  -0.004   0.002  0.00  0.00    +0.039 A 
ATOM     21  C   UNL     1       0.006  -0.679  -1.205  0.00  0.00    +0.023 A 
ATOM     22  C   UNL     1       0.025  -2.068  -1.211  0.00  0.00    +0.004 A 
ATOM     23  C   UNL     1       0.040  -2.734  -0.000  0.00  0.00    +0.030 A 
ATOM     24  C   UNL     1       0.035  -1.990   1.184  0.00  0.00    +0.089 A 
ATOM     25  N   UNL     1       0.022  -0.659   1.145  0.00  0.00    -0.250 NA
ENDBRANCH   1  24
BRANCH   7  26
ATOM     26  C   UNL     1      -1.103  -6.490   3.997  0.00  0.00    +0.139 C 
BRANCH  26  27
ATOM     27  C   UNL     1      -1.344  -7.640   4.941  0.00  0.00    -0.030 A 
ATOM     28  C   UNL     1      -0.357  -8.590   5.135  0.00  0.00    +0.006 A 
ATOM     29  C   UNL     1      -0.571  -9.645   5.998  0.00  0.00    +0.019 A 
ATOM     30  C   UNL     1      -1.787  -9.752   6.676  0.00  0.00    +0.052 A 
ATOM     31  C   UNL     1      -2.778  -8.790   6.475  0.00  0.00    +0.019 A 
ATOM     32  C   UNL     1      -2.549  -7.737   5.613  0.00  0.00    +0.006 A 
BRANCH  30  33
ATOM     33  C   UNL     1      -2.016 -10.845   7.573  0.00  0.00    +0.099 C 
ATOM     34  N   UNL     1      -2.198 -11.712   8.284  0.00  0.00    -0.191 NA
ENDBRANCH  30  33
ENDBRANCH  26  27
ENDBRANCH   7  26
TORSDOF 5
