REMARK  Name = ZINC04151422
REMARK  5 active torsions:
REMARK  status: ('A' for Active; 'I' for Inactive)
REMARK    1  A    between atoms: C_1  and  C_2
REMARK    2  A    between atoms: C_6  and  C_8
REMARK    3  A    between atoms: C_19  and  N_26
REMARK    4  A    between atoms: C_21  and  O_24
REMARK    5  A    between atoms: O_24  and  C_25
REMARK                            x       y       z     vdW  Elec       q    Type
REMARK                         _______ _______ _______ _____ _____    ______ ____
ROOT
ATOM      1  C   UNL     1       2.413   0.356  -0.560  0.00  0.00    +0.105 C 
ATOM      2  C   UNL     1       1.982  -1.004  -0.007  0.00  0.00    +0.029 C 
ATOM      3  C   UNL     1       2.509  -2.115  -0.960  0.00  0.00    +0.033 C 
ATOM      4  C   UNL     1       1.470  -2.158  -2.063  0.00  0.00    -0.030 C 
ATOM      5  C   UNL     1       0.326  -1.651  -1.647  0.00  0.00    -0.023 C 
ATOM      6  C   UNL     1       0.463  -1.173  -0.220  0.00  0.00    +0.049 C 
ATOM      7  C   UNL     1      -0.269   0.122  -0.023  0.00  0.00    -0.014 A 
ATOM      8  C   UNL     1      -1.659   0.092  -0.020  0.00  0.00    +0.039 A 
ATOM      9  C   UNL     1      -2.389   1.248   0.159  0.00  0.00    +0.130 A 
ATOM     10  C   UNL     1      -1.740   2.458   0.330  0.00  0.00    +0.080 A 
ATOM     11  C   UNL     1      -0.359   2.501   0.325  0.00  0.00    +0.143 A 
ATOM     12  C   UNL     1       0.383   1.329   0.149  0.00  0.00    +0.074 A 
ATOM     13  N   UNL     1       1.773   1.420   0.216  0.00  0.00    -0.334 N 
ATOM     14  H   UNL     1       2.075   2.329  -0.100  0.00  0.00    +0.147 HD
ENDROOT
BRANCH   1  20
ATOM     15  C   UNL     1      -0.655   2.201  -4.057  0.00  0.00    +0.044 C 
ATOM     16  C   UNL     1       0.529   1.349  -3.677  0.00  0.00    -0.050 A 
ATOM     17  C   UNL     1       1.234   0.670  -4.654  0.00  0.00    +0.003 A 
ATOM     18  C   UNL     1       2.320  -0.111  -4.305  0.00  0.00    +0.001 A 
ATOM     19  C   UNL     1       2.705  -0.208  -2.981  0.00  0.00    +0.005 A 
ATOM     20  C   UNL     1       1.997   0.467  -2.004  0.00  0.00    -0.027 A 
ATOM     21  C   UNL     1       0.910   1.248  -2.353  0.00  0.00    +0.008 A 
ENDBRANCH   1  20
BRANCH   9  22
ATOM     22  N   UNL     1      -3.868   1.194   0.163  0.00  0.00    +0.057 N 
ATOM     23  O   UNL     1      -4.513   2.216   0.317  0.00  0.00    -0.126 OA
ATOM     24  O   UNL     1      -4.439   0.130   0.012  0.00  0.00    -0.126 OA
ENDBRANCH   9  22
BRANCH  11  25
ATOM     25  O   UNL     1       0.282   3.689   0.493  0.00  0.00    -0.493 OA
ATOM     26  C   UNL     1      -0.535   4.848   0.669  0.00  0.00    +0.277 C 
ENDBRANCH  11  25
TORSDOF 3
