REMARK  Name = ZINC35171047
REMARK  6 active torsions:
REMARK  status: ('A' for Active; 'I' for Inactive)
REMARK    1  A    between atoms: C_1  and  C_2
REMARK    2  A    between atoms: C_6  and  C_24
REMARK    3  A    between atoms: C_7  and  N_8
REMARK    4  A    between atoms: N_8  and  C_9
REMARK    5  A    between atoms: C_10  and  C_18
REMARK    6  A    between atoms: C_19  and  C_23
REMARK                            x       y       z     vdW  Elec       q    Type
REMARK                         _______ _______ _______ _____ _____    ______ ____
ROOT
ATOM      1  C   UNL     1      -0.373  -0.611   3.572  0.00  0.00    +0.137 A 
ATOM      2  C   UNL     1      -0.399  -0.046   4.832  0.00  0.00    +0.120 A 
ATOM      3  N   UNL     1      -0.613  -1.031   5.726  0.00  0.00    -0.208 NA
ATOM      4  C   UNL     1      -0.722  -2.185   5.088  0.00  0.00    +0.237 A 
ATOM      5  N   UNL     1      -0.582  -1.952   3.739  0.00  0.00    -0.271 N 
ATOM      6  C   UNL     1      -0.661  -2.992   2.853  0.00  0.00    +0.097 A 
ATOM      7  C   UNL     1      -0.881  -4.243   3.324  0.00  0.00    +0.038 A 
ATOM      8  C   UNL     1      -1.023  -4.443   4.705  0.00  0.00    +0.116 A 
ATOM      9  N   UNL     1      -0.936  -3.432   5.537  0.00  0.00    -0.220 NA
ENDROOT
BRANCH   2  10
ATOM     10  C   UNL     1      -0.223   1.387   5.144  0.00  0.00    +0.044 A 
ATOM     11  C   UNL     1      -0.232   2.012   6.363  0.00  0.00    -0.034 A 
ATOM     12  C   UNL     1      -0.044   3.377   6.408  0.00  0.00    +0.011 A 
ATOM     13  C   UNL     1       0.143   4.058   5.249  0.00  0.00    +0.046 A 
ATOM     14  S   UNL     1       0.065   2.754   4.032  0.00  0.00    -0.095 S 
ATOM     15  C   UNL     1      -0.443   1.223   7.630  0.00  0.00    +0.045 C 
ENDBRANCH   2  10
BRANCH   1  16
ATOM     16  N   UNL     1      -0.177   0.058   2.363  0.00  0.00    -0.298 N 
ATOM     17  H   UNL     1       0.044   1.002   2.361  0.00  0.00    +0.154 HD
BRANCH  16  24
ATOM     18  C   UNL     1      -2.787  -0.657   1.484  0.00  0.00    +0.045 C 
ATOM     19  C   UNL     1      -1.554  -1.002   0.688  0.00  0.00    -0.029 A 
ATOM     20  C   UNL     1      -1.672  -1.679  -0.509  0.00  0.00    +0.005 A 
ATOM     21  C   UNL     1      -0.541  -1.996  -1.240  0.00  0.00    +0.001 A 
ATOM     22  C   UNL     1       0.710  -1.635  -0.775  0.00  0.00    +0.005 A 
ATOM     23  C   UNL     1       0.835  -0.958   0.421  0.00  0.00    -0.029 A 
ATOM     24  C   UNL     1      -0.299  -0.633   1.156  0.00  0.00    +0.038 A 
ATOM     25  C   UNL     1       2.200  -0.566   0.927  0.00  0.00    +0.045 C 
ENDBRANCH  16  24
ENDBRANCH   1  16
TORSDOF 3
