REMARK  Name = ZINC39911749
REMARK  17 active torsions:
REMARK  status: ('A' for Active; 'I' for Inactive)
REMARK    1  A    between atoms: C_1  and  C_2
REMARK    2  A    between atoms: C_2  and  C_3
REMARK    3  A    between atoms: C_3  and  C_4
REMARK    4  A    between atoms: C_4  and  C_5
REMARK    5  A    between atoms: C_5  and  C_6
REMARK    6  A    between atoms: C_6  and  O_7
REMARK    7  A    between atoms: O_7  and  C_8
REMARK    8  A    between atoms: C_11  and  C_14
REMARK    9  A    between atoms: C_17  and  C_30
REMARK   10  A    between atoms: N_24  and  C_25
REMARK   11  A    between atoms: C_25  and  C_26
REMARK   12  A    between atoms: C_26  and  C_27
REMARK   13  A    between atoms: C_27  and  O_28
REMARK   14  A    between atoms: O_28  and  C_29
REMARK   15  A    between atoms: C_32  and  C_38
REMARK   16  A    between atoms: C_34  and  C_37
REMARK   17  A    between atoms: C_35  and  O_36
REMARK                            x       y       z     vdW  Elec       q    Type
REMARK                         _______ _______ _______ _____ _____    ______ ____
ROOT
ATOM      1  C   UNL     1      -5.054  -9.784   0.162  0.00  0.00    +0.141 C 
ATOM      2  C   UNL     1      -5.159 -10.527   1.465  0.00  0.00    +0.035 A 
ATOM      3  C   UNL     1      -4.574 -10.836   2.698  0.00  0.00    +0.102 A 
ATOM      4  N   UNL     1      -5.398 -11.644   3.335  0.00  0.00    -0.173 NA
ATOM      5  N   UNL     1      -6.446 -11.876   2.628  0.00  0.00    -0.272 N 
ATOM      6  H   UNL     1      -7.186 -12.441   2.897  0.00  0.00    +0.189 HD
ATOM      7  C   UNL     1      -6.363 -11.206   1.440  0.00  0.00    +0.126 A 
ATOM      8  C   UNL     1      -7.031 -10.922   0.165  0.00  0.00    +0.265 C 
ATOM      9  O   UNL     1      -8.113 -11.370  -0.167  0.00  0.00    -0.268 OA
ATOM     10  N   UNL     1      -6.278 -10.097  -0.587  0.00  0.00    -0.285 N 
ENDROOT
BRANCH   3  11
ATOM     11  C   UNL     1      -3.265 -10.345   3.196  0.00  0.00    +0.044 A 
ATOM     12  C   UNL     1      -2.438  -9.592   2.366  0.00  0.00    +0.017 A 
ATOM     13  C   UNL     1      -1.222  -9.138   2.833  0.00  0.00    -0.049 A 
ATOM     14  C   UNL     1      -0.820  -9.428   4.125  0.00  0.00    +0.010 A 
ATOM     15  C   UNL     1      -1.632 -10.175   4.957  0.00  0.00    -0.008 A 
ATOM     16  C   UNL     1      -2.858 -10.632   4.502  0.00  0.00    +0.129 A 
ATOM     17  C   UNL     1      -1.187 -10.487   6.362  0.00  0.00    +0.047 C 
ATOM     18  C   UNL     1      -0.328  -8.323   1.934  0.00  0.00    +0.044 C 
BRANCH  16  19
ATOM     19  O   UNL     1      -3.661 -11.361   5.321  0.00  0.00    -0.506 OA
ATOM     20  H   UNL     1      -3.507 -12.314   5.275  0.00  0.00    +0.292 HD
ENDBRANCH  16  19
ENDBRANCH   3  11
BRANCH   1  24
ATOM     21  C   UNL     1      -4.804  -5.579   0.883  0.00  0.00    +0.121 A 
ATOM     22  C   UNL     1      -5.984  -6.261   1.147  0.00  0.00    +0.046 A 
ATOM     23  C   UNL     1      -6.062  -7.620   0.912  0.00  0.00    +0.009 A 
ATOM     24  C   UNL     1      -4.966  -8.301   0.416  0.00  0.00    -0.022 A 
ATOM     25  C   UNL     1      -3.789  -7.625   0.153  0.00  0.00    +0.009 A 
ATOM     26  C   UNL     1      -3.708  -6.264   0.379  0.00  0.00    +0.046 A 
BRANCH  21  27
ATOM     27  O   UNL     1      -4.725  -4.242   1.112  0.00  0.00    -0.492 OA
BRANCH  27  28
ATOM     28  C   UNL     1      -5.893  -3.603   1.631  0.00  0.00    +0.229 C 
BRANCH  28  29
ATOM     29  C   UNL     1      -5.614  -2.110   1.822  0.00  0.00    +0.041 C 
BRANCH  29  30
ATOM     30  C   UNL     1      -6.864  -1.425   2.378  0.00  0.00    +0.003 C 
BRANCH  30  31
ATOM     31  C   UNL     1      -6.586   0.067   2.569  0.00  0.00    -0.000 C 
BRANCH  31  33
ATOM     32  C   UNL     1      -7.558   2.244   3.316  0.00  0.00    +0.004 C 
ATOM     33  C   UNL     1      -7.836   0.752   3.124  0.00  0.00    -0.003 C 
ENDBRANCH  31  33
ENDBRANCH  30  31
ENDBRANCH  29  30
ENDBRANCH  28  29
ENDBRANCH  27  28
ENDBRANCH  21  27
ENDBRANCH   1  24
BRANCH  10  34
ATOM     34  C   UNL     1      -6.621  -9.596  -1.920  0.00  0.00    +0.111 C 
BRANCH  34  35
ATOM     35  C   UNL     1      -6.085 -10.560  -2.980  0.00  0.00    +0.047 C 
BRANCH  35  36
ATOM     36  C   UNL     1      -6.442 -10.037  -4.373  0.00  0.00    +0.161 C 
BRANCH  36  37
ATOM     37  O   UNL     1      -5.941 -10.938  -5.363  0.00  0.00    -0.383 OA
ATOM     38  C   UNL     1      -6.223 -10.540  -6.706  0.00  0.00    +0.193 C 
ENDBRANCH  36  37
ENDBRANCH  35  36
ENDBRANCH  34  35
ENDBRANCH  10  34
TORSDOF 13
