REMARK  Name = ZINC24344134
REMARK  15 active torsions:
REMARK  status: ('A' for Active; 'I' for Inactive)
REMARK    1  A    between atoms: C_1  and  C_2
REMARK    2  A    between atoms: C_2  and  C_3
REMARK    3  A    between atoms: C_3  and  C_4
REMARK    4  A    between atoms: C_4  and  C_5
REMARK    5  A    between atoms: C_5  and  N_6
REMARK    6  A    between atoms: N_6  and  C_7
REMARK    7  A    between atoms: C_8  and  N_20
REMARK    8  A    between atoms: N_9  and  C_16
REMARK    9  A    between atoms: C_16  and  C_17
REMARK   10  A    between atoms: C_17  and  C_18
REMARK   11  A    between atoms: C_18  and  C_19
REMARK   12  A    between atoms: C_21  and  C_23
REMARK   13  A    between atoms: C_23  and  N_24
REMARK   14  A    between atoms: N_33  and  C_36
REMARK   15  A    between atoms: C_36  and  C_37
REMARK                            x       y       z     vdW  Elec       q    Type
REMARK                         _______ _______ _______ _____ _____    ______ ____
ROOT
ATOM      1  N   UNL     1       0.162  -2.904  -2.313  0.00  0.00    -0.263 N 
ATOM      2  C   UNL     1       0.082  -2.297  -3.516  0.00  0.00    +0.240 C 
ATOM      3  O   UNL     1      -0.176  -1.113  -3.582  0.00  0.00    -0.273 OA
ENDROOT
BRANCH   1   4
ATOM      4  C   UNL     1       0.047  -2.144  -1.130  0.00  0.00    +0.140 A 
ATOM      5  C   UNL     1       1.123  -2.007  -0.277  0.00  0.00    +0.127 A 
ATOM      6  N   UNL     1       0.978  -1.264   0.872  0.00  0.00    -0.280 N 
ATOM      7  C   UNL     1      -0.195  -0.669   1.155  0.00  0.00    +0.331 A 
ATOM      8  O   UNL     1      -0.301  -0.012   2.172  0.00  0.00    -0.246 OA
ATOM      9  N   UNL     1      -1.252  -0.787   0.332  0.00  0.00    -0.273 N 
ATOM     10  H   UNL     1      -2.202  -0.293   0.583  0.00  0.00    +0.173 HD
ATOM     11  C   UNL     1      -1.165  -1.508  -0.803  0.00  0.00    +0.277 A 
ATOM     12  O   UNL     1      -2.130  -1.609  -1.541  0.00  0.00    -0.266 OA
BRANCH   5  13
ATOM     13  N   UNL     1       2.323  -2.610  -0.568  0.00  0.00    -0.343 N 
ATOM     14  H   UNL     1       3.176  -2.496   0.117  0.00  0.00    +0.144 HD
ATOM     15  H   UNL     1       2.430  -3.206  -1.486  0.00  0.00    +0.144 HD
ENDBRANCH   5  13
BRANCH   6  16
ATOM     16  C   UNL     1       2.111  -1.113   1.789  0.00  0.00    +0.128 C 
BRANCH  16  17
ATOM     17  C   UNL     1       2.080  -2.239   2.825  0.00  0.00    +0.021 C 
BRANCH  17  18
ATOM     18  C   UNL     1       3.263  -2.082   3.783  0.00  0.00    -0.002 C 
ATOM     19  C   UNL     1       3.232  -3.208   4.819  0.00  0.00    +0.004 C 
ENDBRANCH  17  18
ENDBRANCH  16  17
ENDBRANCH   6  16
ENDBRANCH   1   4
BRANCH   1  20
ATOM     20  C   UNL     1       0.369  -4.352  -2.236  0.00  0.00    +0.114 C 
BRANCH  20  21
ATOM     21  C   UNL     1      -0.984  -5.064  -2.293  0.00  0.00    +0.019 C 
BRANCH  21  22
ATOM     22  C   UNL     1      -0.768  -6.577  -2.212  0.00  0.00    +0.001 C 
BRANCH  22  24
ATOM     23  C   UNL     1      -1.905  -8.802  -2.188  0.00  0.00    +0.004 C 
ATOM     24  C   UNL     1      -2.121  -7.289  -2.268  0.00  0.00    -0.003 C 
ENDBRANCH  22  24
ENDBRANCH  21  22
ENDBRANCH  20  21
ENDBRANCH   1  20
BRANCH   2  25
ATOM     25  C   UNL     1       0.314  -3.089  -4.777  0.00  0.00    +0.223 C 
BRANCH  25  26
ATOM     26  N   UNL     1       0.171  -2.209  -5.939  0.00  0.00    -0.284 N 
ATOM     27  C   UNL     1      -1.070  -2.061  -6.540  0.00  0.00    +0.059 A 
ATOM     28  C   UNL     1      -2.190  -2.728  -6.068  0.00  0.00    +0.027 A 
ATOM     29  C   UNL     1      -3.407  -2.553  -6.696  0.00  0.00    +0.002 A 
ATOM     30  C   UNL     1      -3.522  -1.715  -7.795  0.00  0.00    +0.001 A 
ATOM     31  C   UNL     1      -2.421  -1.035  -8.272  0.00  0.00    +0.015 A 
ATOM     32  C   UNL     1      -1.186  -1.207  -7.651  0.00  0.00    +0.063 A 
ATOM     33  C   UNL     1       0.026  -0.518  -8.131  0.00  0.00    +0.264 A 
ATOM     34  O   UNL     1      -0.019   0.228  -9.090  0.00  0.00    -0.267 OA
ATOM     35  N   UNL     1       1.187  -0.737  -7.476  0.00  0.00    -0.261 N 
ATOM     36  C   UNL     1       1.246  -1.558  -6.416  0.00  0.00    +0.333 A 
ATOM     37  O   UNL     1       2.317  -1.719  -5.864  0.00  0.00    -0.246 OA
BRANCH  35  38
ATOM     38  C   UNL     1       2.406  -0.064  -7.932  0.00  0.00    +0.126 C 
ATOM     39  C   UNL     1       3.115  -0.939  -8.967  0.00  0.00    +0.027 C 
ENDBRANCH  35  38
ENDBRANCH  25  26
ENDBRANCH   2  25
TORSDOF 12
