REMARK  Name = ZINC44453002
REMARK  6 active torsions:
REMARK  status: ('A' for Active; 'I' for Inactive)
REMARK    1  A    between atoms: C_1  and  C_2
REMARK    2  A    between atoms: C_2  and  C_31
REMARK    3  A    between atoms: N_3  and  N_4
REMARK    4  A    between atoms: C_5  and  C_7
REMARK    5  A    between atoms: C_11  and  N_12
REMARK    6  A    between atoms: C_13  and  C_15
REMARK                            x       y       z     vdW  Elec       q    Type
REMARK                         _______ _______ _______ _____ _____    ______ ____
ROOT
ATOM      1  C   UNL     1       4.745   0.185  -0.342  0.00  0.00    +0.070 A 
ATOM      2  C   UNL     1       5.521   0.373   0.876  0.00  0.00    -0.023 A 
ATOM      3  C   UNL     1       6.653   1.086   0.698  0.00  0.00    -0.004 A 
ATOM      4  S   UNL     1       6.677   1.474  -1.030  0.00  0.00    -0.077 S 
ATOM      5  C   UNL     1       5.249   0.734  -1.510  0.00  0.00    +0.085 A 
ATOM      6  C   UNL     1       7.661   1.475   1.735  0.00  0.00    +0.043 C 
ATOM      7  C   UNL     1       8.034   0.238   2.563  0.00  0.00    +0.005 C 
ATOM      8  C   UNL     1       7.073   0.133   3.742  0.00  0.00    +0.001 C 
ATOM      9  C   UNL     1       5.693   0.655   3.346  0.00  0.00    +0.005 C 
ATOM     10  C   UNL     1       5.103  -0.194   2.224  0.00  0.00    +0.037 C 
ENDROOT
BRANCH   1  12
ATOM     11  N   UNL     1       2.320   0.085  -0.117  0.00  0.00    -0.203 N 
ATOM     12  C   UNL     1       3.483  -0.561  -0.334  0.00  0.00    +0.266 C 
ATOM     13  O   UNL     1       3.486  -1.764  -0.523  0.00  0.00    -0.268 OA
ATOM     14  H   UNL     1       2.318   1.043   0.034  0.00  0.00    +0.178 HD
BRANCH  11  17
ATOM     15  C   UNL     1      -0.019   1.503  -0.003  0.00  0.00    +0.062 C 
ATOM     16  C   UNL     1       0.002  -0.004  -0.001  0.00  0.00    +0.031 C 
ATOM     17  N   UNL     1       1.114  -0.628  -0.109  0.00  0.00    -0.190 NA
ATOM     18  C   UNL     1      -1.286  -0.775   0.128  0.00  0.00    +0.062 C 
ENDBRANCH  11  17
ENDBRANCH   1  12
BRANCH   5  19
ATOM     19  N   UNL     1       4.701   0.685  -2.780  0.00  0.00    -0.273 N 
ATOM     20  C   UNL     1       5.333   1.280  -3.810  0.00  0.00    +0.284 C 
ATOM     21  O   UNL     1       6.385   1.859  -3.625  0.00  0.00    -0.266 OA
ATOM     22  H   UNL     1       3.861   0.223  -2.928  0.00  0.00    +0.156 HD
BRANCH  20  23
ATOM     23  C   UNL     1       4.746   1.228  -5.169  0.00  0.00    +0.194 A 
ATOM     24  C   UNL     1       5.409   1.831  -6.187  0.00  0.00    +0.103 A 
ATOM     25  C   UNL     1       4.810   1.788  -7.531  0.00  0.00    +0.193 A 
ATOM     26  O   UNL     1       5.436   2.103  -8.528  0.00  0.00    -0.287 OA
ATOM     27  C   UNL     1       3.404   1.340  -7.599  0.00  0.00    +0.064 A 
ATOM     28  C   UNL     1       2.646   1.495  -8.758  0.00  0.00    +0.015 A 
ATOM     29  C   UNL     1       1.345   1.071  -8.776  0.00  0.00    +0.001 A 
ATOM     30  C   UNL     1       0.780   0.492  -7.648  0.00  0.00    +0.004 A 
ATOM     31  C   UNL     1       1.517   0.329  -6.495  0.00  0.00    +0.047 A 
ATOM     32  C   UNL     1       2.843   0.749  -6.455  0.00  0.00    +0.139 A 
ATOM     33  O   UNL     1       3.585   0.581  -5.342  0.00  0.00    -0.450 OA
ENDBRANCH  20  23
ENDBRANCH   5  19
TORSDOF 4
