REMARK  Name = ZINC02764027
REMARK  9 active torsions:
REMARK  status: ('A' for Active; 'I' for Inactive)
REMARK    1  A    between atoms: C_1  and  C_2
REMARK    2  A    between atoms: C_5  and  C_9
REMARK    3  A    between atoms: C_7  and  C_8
REMARK    4  A    between atoms: C_10  and  C_30
REMARK    5  A    between atoms: C_12  and  N_18
REMARK    6  A    between atoms: C_13  and  C_14
REMARK    7  A    between atoms: C_14  and  O_16
REMARK    8  A    between atoms: O_16  and  C_17
REMARK    9  A    between atoms: C_19  and  C_21
REMARK                            x       y       z     vdW  Elec       q    Type
REMARK                         _______ _______ _______ _____ _____    ______ ____
ROOT
ATOM      1  C   UNL     1       1.764  -2.811  -0.554  0.00  0.00    +0.008 A 
ATOM      2  C   UNL     1       1.716  -4.161  -0.680  0.00  0.00    -0.003 A 
ATOM      3  S   UNL     1       0.192  -4.437  -1.559  0.00  0.00    -0.077 S 
ATOM      4  C   UNL     1      -0.345  -2.801  -1.736  0.00  0.00    +0.087 A 
ATOM      5  C   UNL     1       0.659  -2.062  -1.123  0.00  0.00    +0.095 A 
ATOM      6  C   UNL     1       2.712  -5.182  -0.193  0.00  0.00    +0.052 C 
ENDROOT
BRANCH   1  11
ATOM      7  C   UNL     1       6.141  -0.181   2.108  0.00  0.00    +0.044 C 
ATOM      8  C   UNL     1       4.995  -0.869   1.411  0.00  0.00    -0.048 A 
ATOM      9  C   UNL     1       3.722  -0.803   1.949  0.00  0.00    +0.004 A 
ATOM     10  C   UNL     1       2.669  -1.431   1.315  0.00  0.00    +0.009 A 
ATOM     11  C   UNL     1       2.891  -2.133   0.131  0.00  0.00    -0.016 A 
ATOM     12  C   UNL     1       4.177  -2.201  -0.403  0.00  0.00    +0.012 A 
ATOM     13  C   UNL     1       5.221  -1.565   0.237  0.00  0.00    -0.047 A 
ATOM     14  C   UNL     1       6.611  -1.633  -0.342  0.00  0.00    +0.044 C 
ENDBRANCH   1  11
BRANCH   4  15
ATOM     15  N   UNL     1      -1.499  -2.338  -2.346  0.00  0.00    -0.275 N 
ATOM     16  C   UNL     1      -2.368  -3.211  -2.894  0.00  0.00    +0.249 C 
ATOM     17  O   UNL     1      -2.138  -4.404  -2.853  0.00  0.00    -0.270 OA
ATOM     18  H   UNL     1      -1.682  -1.386  -2.378  0.00  0.00    +0.156 HD
BRANCH  16  19
ATOM     19  C   UNL     1      -3.598  -2.718  -3.543  0.00  0.00    +0.041 A 
ATOM     20  C   UNL     1      -3.866  -1.347  -3.586  0.00  0.00    +0.017 A 
ATOM     21  C   UNL     1      -5.012  -0.889  -4.199  0.00  0.00    +0.050 A 
ATOM     22  C   UNL     1      -5.909  -1.785  -4.764  0.00  0.00    +0.166 A 
ATOM     23  C   UNL     1      -5.650  -3.156  -4.719  0.00  0.00    +0.167 A 
ATOM     24  C   UNL     1      -4.500  -3.621  -4.112  0.00  0.00    +0.062 A 
ATOM     25  O   UNL     1      -6.674  -3.813  -5.338  0.00  0.00    -0.453 OA
ATOM     26  C   UNL     1      -7.757  -2.865  -5.398  0.00  0.00    +0.466 C 
ATOM     27  O   UNL     1      -7.093  -1.588  -5.410  0.00  0.00    -0.453 OA
ENDBRANCH  16  19
ENDBRANCH   4  15
BRANCH   5  28
ATOM     28  C   UNL     1       0.601  -0.603  -1.048  0.00  0.00    +0.342 C 
ATOM     29  O   UNL     1       1.094   0.071  -1.933  0.00  0.00    -0.245 OA
BRANCH  28  30
ATOM     30  O   UNL     1       0.002  -0.004   0.002  0.00  0.00    -0.464 OA
ATOM     31  C   UNL     1      -0.018   1.448   0.010  0.00  0.00    +0.280 C 
ENDBRANCH  28  30
ENDBRANCH   5  28
TORSDOF 5
