REMARK  Name = ZINC12246711
REMARK  8 active torsions:
REMARK  status: ('A' for Active; 'I' for Inactive)
REMARK    1  A    between atoms: C_1  and  C_2
REMARK    2  A    between atoms: C_7  and  N_8
REMARK    3  A    between atoms: N_8  and  S_9
REMARK    4  A    between atoms: S_9  and  C_12
REMARK    5  A    between atoms: C_13  and  C_28
REMARK    6  A    between atoms: C_21  and  C_23
REMARK    7  A    between atoms: C_28  and  O_30
REMARK    8  A    between atoms: O_30  and  C_31
REMARK                            x       y       z     vdW  Elec       q    Type
REMARK                         _______ _______ _______ _____ _____    ______ ____
ROOT
ATOM      1  C   UNL     1      -1.640   2.292   3.752  0.00  0.00    +0.160 A 
ATOM      2  C   UNL     1      -2.186   3.021   2.718  0.00  0.00    +0.096 A 
ATOM      3  C   UNL     1      -1.649   2.814   1.385  0.00  0.00    -0.018 A 
ATOM      4  C   UNL     1      -0.645   1.909   1.308  0.00  0.00    +0.013 A 
ATOM      5  S   UNL     1      -0.423   1.340   2.967  0.00  0.00    -0.071 S 
ATOM      6  C   UNL     1       0.097   1.496   0.073  0.00  0.00    +0.150 C 
ATOM      7  N   UNL     1      -0.614   2.082  -1.080  0.00  0.00    -0.296 N 
ATOM      8  C   UNL     1      -1.092   3.467  -0.951  0.00  0.00    +0.113 C 
ATOM      9  C   UNL     1      -2.155   3.543   0.146  0.00  0.00    +0.056 C 
ATOM     10  C   UNL     1      -0.818   1.374  -2.209  0.00  0.00    +0.219 C 
ATOM     11  O   UNL     1      -1.405   1.878  -3.143  0.00  0.00    -0.275 OA
ENDROOT
BRANCH  10  12
ATOM     12  C   UNL     1      -0.316  -0.043  -2.311  0.00  0.00    +0.075 C 
ATOM     13  C   UNL     1       1.222  -0.070  -2.186  0.00  0.00    +0.013 C 
ATOM     14  C   UNL     1       1.664  -1.177  -3.176  0.00  0.00    +0.001 C 
ATOM     15  C   UNL     1       0.688  -0.984  -4.363  0.00  0.00    +0.001 C 
ATOM     16  C   UNL     1      -0.655  -0.625  -3.695  0.00  0.00    +0.013 C 
ENDBRANCH  10  12
BRANCH   1  17
ATOM     17  S   UNL     1      -2.073   2.321   5.460  0.00  0.00    +0.079 S 
ATOM     18  O   UNL     1      -1.165   3.211   6.094  0.00  0.00    -0.149 OA
ATOM     19  O   UNL     1      -3.482   2.502   5.518  0.00  0.00    -0.149 OA
BRANCH  17  20
ATOM     20  N   UNL     1      -1.764   0.813   6.070  0.00  0.00    -0.216 N 
ATOM     21  H   UNL     1      -2.484   0.286   6.449  0.00  0.00    +0.174 HD
BRANCH  20  28
ATOM     22  C   UNL     1      -1.433  -1.975   5.612  0.00  0.00    +0.046 C 
ATOM     23  C   UNL     1      -0.257  -1.055   5.817  0.00  0.00    -0.028 A 
ATOM     24  C   UNL     1       1.028  -1.559   5.786  0.00  0.00    +0.005 A 
ATOM     25  C   UNL     1       2.108  -0.716   5.973  0.00  0.00    +0.000 A 
ATOM     26  C   UNL     1       1.905   0.634   6.193  0.00  0.00    +0.002 A 
ATOM     27  C   UNL     1       0.622   1.146   6.221  0.00  0.00    +0.025 A 
ATOM     28  C   UNL     1      -0.465   0.300   6.038  0.00  0.00    +0.051 A 
ENDBRANCH  20  28
ENDBRANCH  17  20
ENDBRANCH   1  17
BRANCH   2  29
ATOM     29  C   UNL     1      -3.277   3.977   2.956  0.00  0.00    +0.342 C 
ATOM     30  O   UNL     1      -4.434   3.608   2.890  0.00  0.00    -0.245 OA
BRANCH  29  31
ATOM     31  O   UNL     1      -2.995   5.262   3.249  0.00  0.00    -0.464 OA
ATOM     32  C   UNL     1      -4.123   6.149   3.472  0.00  0.00    +0.280 C 
ENDBRANCH  29  31
ENDBRANCH   2  29
TORSDOF 6
