REMARK  Name = ZINC34697273
REMARK  6 active torsions:
REMARK  status: ('A' for Active; 'I' for Inactive)
REMARK    1  A    between atoms: C_1  and  C_2
REMARK    2  A    between atoms: C_7  and  C_8
REMARK    3  A    between atoms: C_13  and  C_15
REMARK    4  A    between atoms: C_15  and  N_16
REMARK    5  A    between atoms: N_16  and  C_17
REMARK    6  A    between atoms: C_23  and  C_25
REMARK                            x       y       z     vdW  Elec       q    Type
REMARK                         _______ _______ _______ _____ _____    ______ ____
ROOT
ATOM      1  C   UNL     1      -2.076  -0.763   4.104  0.00  0.00    +0.110 C 
ENDROOT
BRANCH   1   6
ATOM      2  C   UNL     1      -0.781   0.125   6.077  0.00  0.00    +0.005 C 
ATOM      3  C   UNL     1      -0.206  -0.879   7.100  0.00  0.00    -0.074 C 
ATOM      4  N   UNL     1      -1.390  -1.625   7.599  0.00  0.00    +0.380 N 
ATOM      5  C   UNL     1      -2.231  -1.825   6.391  0.00  0.00    -0.077 C 
ATOM      6  C   UNL     1      -2.114  -0.495   5.610  0.00  0.00    -0.005 C 
ATOM      7  H   UNL     1      -1.109  -2.514   7.985  0.00  0.00    -0.086 HD
ATOM      8  H   UNL     1      -1.886  -1.080   8.288  0.00  0.00    -0.086 HD
BRANCH   2  15
ATOM      9  C   UNL     1      -0.073   2.763   5.136  0.00  0.00    +0.044 C 
ATOM     10  C   UNL     1       0.499   1.544   4.461  0.00  0.00    -0.047 A 
ATOM     11  C   UNL     1       1.368   1.687   3.395  0.00  0.00    +0.003 A 
ATOM     12  C   UNL     1       1.893   0.569   2.776  0.00  0.00    +0.000 A 
ATOM     13  C   UNL     1       1.550  -0.694   3.223  0.00  0.00    +0.000 A 
ATOM     14  C   UNL     1       0.683  -0.838   4.289  0.00  0.00    +0.004 A 
ATOM     15  C   UNL     1       0.161   0.281   4.911  0.00  0.00    -0.043 A 
ENDBRANCH   2  15
ENDBRANCH   1   6
BRANCH   1  16
ATOM     16  N   UNL     1      -3.377  -1.277   3.667  0.00  0.00    -0.294 N 
ATOM     17  C   UNL     1      -3.613  -2.604   3.669  0.00  0.00    +0.247 C 
ATOM     18  O   UNL     1      -2.755  -3.374   3.284  0.00  0.00    -0.270 OA
BRANCH  16  19
ATOM     19  C   UNL     1      -4.421  -0.348   3.228  0.00  0.00    +0.076 C 
ATOM     20  C   UNL     1      -5.300   0.033   4.420  0.00  0.00    +0.022 C 
ATOM     21  C   UNL     1      -6.391   1.003   3.961  0.00  0.00    +0.002 C 
ATOM     22  C   UNL     1      -7.250   0.333   2.887  0.00  0.00    +0.000 C 
ATOM     23  C   UNL     1      -6.370  -0.047   1.694  0.00  0.00    +0.002 C 
ATOM     24  C   UNL     1      -5.280  -1.017   2.153  0.00  0.00    +0.022 C 
ENDBRANCH  16  19
BRANCH  17  25
ATOM     25  C   UNL     1      -4.915  -3.122   4.140  0.00  0.00    +0.037 A 
ATOM     26  C   UNL     1      -6.066  -2.342   4.017  0.00  0.00    +0.013 A 
ATOM     27  C   UNL     1      -7.278  -2.832   4.458  0.00  0.00    +0.001 A 
ATOM     28  C   UNL     1      -7.354  -4.093   5.021  0.00  0.00    +0.000 A 
ATOM     29  C   UNL     1      -6.217  -4.872   5.146  0.00  0.00    +0.001 A 
ATOM     30  C   UNL     1      -5.000  -4.396   4.704  0.00  0.00    +0.013 A 
ENDBRANCH  17  25
ENDBRANCH   1  16
TORSDOF 5
