REMARK  Name = ZINC40008260
REMARK  18 active torsions:
REMARK  status: ('A' for Active; 'I' for Inactive)
REMARK    1  A    between atoms: C_1  and  C_2
REMARK    2  A    between atoms: C_2  and  C_3
REMARK    3  A    between atoms: C_3  and  C_4
REMARK    4  A    between atoms: C_4  and  N_5
REMARK    5  A    between atoms: N_5  and  C_6
REMARK    6  A    between atoms: N_5  and  C_10
REMARK    7  A    between atoms: C_6  and  C_7
REMARK    8  A    between atoms: C_7  and  C_8
REMARK    9  A    between atoms: C_8  and  C_9
REMARK   10  A    between atoms: C_10  and  C_11
REMARK   11  A    between atoms: C_11  and  C_12
REMARK   12  A    between atoms: C_12  and  N_13
REMARK   13  A    between atoms: C_14  and  C_30
REMARK   14  A    between atoms: C_21  and  C_29
REMARK   15  A    between atoms: C_33  and  O_36
REMARK   16  A    between atoms: O_36  and  C_37
REMARK   17  A    between atoms: C_37  and  C_38
REMARK   18  A    between atoms: C_38  and  C_39
REMARK                            x       y       z     vdW  Elec       q    Type
REMARK                         _______ _______ _______ _____ _____    ______ ____
ROOT
ATOM      1  N   UNL     1       3.113  -6.613   4.912  0.00  0.00    -0.284 N 
ATOM      2  C   UNL     1       4.552  -6.723   5.200  0.00  0.00    +0.144 C 
ATOM      3  C   UNL     1       4.649  -7.266   6.588  0.00  0.00    +0.072 A 
ATOM      4  C   UNL     1       5.812  -7.598   7.417  0.00  0.00    +0.199 A 
ATOM      5  O   UNL     1       6.954  -7.298   7.115  0.00  0.00    -0.287 OA
ATOM      6  C   UNL     1       5.467  -8.335   8.659  0.00  0.00    +0.065 A 
ATOM      7  C   UNL     1       6.469  -8.894   9.451  0.00  0.00    +0.018 A 
ATOM      8  C   UNL     1       6.134  -9.574  10.589  0.00  0.00    -0.050 A 
ATOM      9  C   UNL     1       4.803  -9.708  10.956  0.00  0.00    +0.007 A 
ATOM     10  C   UNL     1       3.800  -9.160  10.188  0.00  0.00    +0.047 A 
ATOM     11  C   UNL     1       4.116  -8.460   9.023  0.00  0.00    +0.139 A 
ATOM     12  O   UNL     1       3.116  -7.922   8.288  0.00  0.00    -0.450 OA
ATOM     13  C   UNL     1       3.378  -7.446   7.054  0.00  0.00    +0.199 A 
ATOM     14  C   UNL     1       2.436  -7.033   6.000  0.00  0.00    +0.283 C 
ATOM     15  O   UNL     1       1.225  -7.066   6.096  0.00  0.00    -0.267 OA
ATOM     16  C   UNL     1       7.215 -10.180  11.447  0.00  0.00    +0.044 C 
ENDROOT
BRANCH   2  17
ATOM     17  C   UNL     1       5.202  -5.365   5.126  0.00  0.00    -0.022 A 
ATOM     18  C   UNL     1       4.550  -4.258   5.638  0.00  0.00    +0.009 A 
ATOM     19  C   UNL     1       5.143  -3.013   5.570  0.00  0.00    +0.046 A 
ATOM     20  C   UNL     1       6.395  -2.873   4.989  0.00  0.00    +0.121 A 
ATOM     21  C   UNL     1       7.048  -3.985   4.477  0.00  0.00    +0.046 A 
ATOM     22  C   UNL     1       6.452  -5.229   4.551  0.00  0.00    +0.009 A 
BRANCH  20  23
ATOM     23  O   UNL     1       6.981  -1.648   4.921  0.00  0.00    -0.492 OA
BRANCH  23  24
ATOM     24  C   UNL     1       8.271  -1.579   4.309  0.00  0.00    +0.229 C 
BRANCH  24  25
ATOM     25  C   UNL     1       8.765  -0.132   4.324  0.00  0.00    +0.038 C 
ATOM     26  C   UNL     1      10.146  -0.058   3.669  0.00  0.00    +0.007 C 
ENDBRANCH  24  25
ENDBRANCH  23  24
ENDBRANCH  20  23
ENDBRANCH   2  17
BRANCH   1  27
ATOM     27  C   UNL     1       2.520  -6.127   3.663  0.00  0.00    +0.107 C 
BRANCH  27  28
ATOM     28  C   UNL     1       2.317  -4.613   3.751  0.00  0.00    +0.000 C 
BRANCH  28  29
ATOM     29  C   UNL     1       1.698  -4.105   2.447  0.00  0.00    -0.077 C 
BRANCH  29  30
ATOM     30  N   UNL     1       1.389  -2.675   2.576  0.00  0.00    +0.380 N 
ATOM     31  H   UNL     1       0.804  -2.529   3.385  0.00  0.00    -0.082 HD
BRANCH  30  32
ATOM     32  C   UNL     1       2.637  -1.916   2.731  0.00  0.00    -0.079 C 
BRANCH  32  33
ATOM     33  C   UNL     1       2.311  -0.444   2.990  0.00  0.00    -0.019 C 
BRANCH  33  35
ATOM     34  C   UNL     1       3.284   1.818   3.410  0.00  0.00    +0.004 C 
ATOM     35  C   UNL     1       3.611   0.346   3.151  0.00  0.00    -0.005 C 
ENDBRANCH  33  35
ENDBRANCH  32  33
ENDBRANCH  30  32
BRANCH  30  36
ATOM     36  C   UNL     1       0.683  -2.216   1.372  0.00  0.00    -0.079 C 
BRANCH  36  37
ATOM     37  C   UNL     1      -0.688  -2.891   1.296  0.00  0.00    -0.019 C 
BRANCH  37  38
ATOM     38  C   UNL     1      -1.391  -2.471   0.004  0.00  0.00    -0.005 C 
ATOM     39  C   UNL     1      -2.763  -3.146  -0.072  0.00  0.00    +0.004 C 
ENDBRANCH  37  38
ENDBRANCH  36  37
ENDBRANCH  30  36
ENDBRANCH  29  30
ENDBRANCH  28  29
ENDBRANCH  27  28
ENDBRANCH   1  27
TORSDOF 14
