REMARK  Name = ZINC24279899
REMARK  11 active torsions:
REMARK  status: ('A' for Active; 'I' for Inactive)
REMARK    1  A    between atoms: C_1  and  C_2
REMARK    2  A    between atoms: C_2  and  C_3
REMARK    3  A    between atoms: C_2  and  C_4
REMARK    4  A    between atoms: C_2  and  C_5
REMARK    5  A    between atoms: N_13  and  C_17
REMARK    6  A    between atoms: C_17  and  N_18
REMARK    7  A    between atoms: C_22  and  C_24
REMARK    8  A    between atoms: C_27  and  O_32
REMARK    9  A    between atoms: C_29  and  O_30
REMARK   10  A    between atoms: O_30  and  C_31
REMARK   11  A    between atoms: O_32  and  C_33
REMARK                            x       y       z     vdW  Elec       q    Type
REMARK                         _______ _______ _______ _____ _____    ______ ____
ROOT
ATOM      1  C   UNL     1      -3.121   2.153   8.037  0.00  0.00    -0.005 C 
ATOM      2  C   UNL     1      -1.853   2.688   7.368  0.00  0.00    +0.006 C 
ATOM      3  C   UNL     1      -2.093   2.830   5.863  0.00  0.00    +0.035 C 
ATOM      4  C   UNL     1      -2.465   1.474   5.274  0.00  0.00    +0.112 C 
ATOM      5  C   UNL     1      -3.713   0.916   5.948  0.00  0.00    +0.035 C 
ATOM      6  C   UNL     1      -3.467   0.782   7.453  0.00  0.00    +0.006 C 
ATOM      7  C   UNL     1      -2.679   1.588   3.782  0.00  0.00    +0.245 C 
ATOM      8  O   UNL     1      -3.507   2.263   3.209  0.00  0.00    -0.273 OA
ATOM      9  N   UNL     1      -1.754   0.780   3.222  0.00  0.00    -0.241 N 
ATOM     10  C   UNL     1      -1.001   0.177   4.150  0.00  0.00    +0.308 C 
ATOM     11  O   UNL     1      -0.105  -0.602   3.890  0.00  0.00    -0.252 OA
ATOM     12  N   UNL     1      -1.346   0.532   5.402  0.00  0.00    -0.285 N 
ATOM     13  H   UNL     1      -0.967   0.261   6.399  0.00  0.00    +0.151 HD
ENDROOT
BRANCH   1  15
ATOM     14  C   UNL     1      -2.541   3.393  10.127  0.00  0.00    +0.011 C 
ATOM     15  C   UNL     1      -2.887   2.022   9.543  0.00  0.00    -0.035 C 
ATOM     16  C   UNL     1      -4.154   1.487  10.212  0.00  0.00    +0.011 C 
ATOM     17  C   UNL     1      -1.729   1.054   9.796  0.00  0.00    +0.011 C 
ENDBRANCH   1  15
BRANCH   9  18
ATOM     18  C   UNL     1      -1.598   0.584   1.779  0.00  0.00    +0.043 C 
BRANCH  18  19
ATOM     19  N   UNL     1      -0.652   1.574   1.249  0.00  0.00    +0.395 N 
ATOM     20  C   UNL     1       0.457   1.816   2.207  0.00  0.00    -0.076 C 
ATOM     21  C   UNL     1       1.569   2.424   1.316  0.00  0.00    -0.020 C 
ATOM     22  C   UNL     1       1.428   1.630  -0.003  0.00  0.00    -0.012 C 
ATOM     23  C   UNL     1      -0.013   1.086   0.008  0.00  0.00    -0.032 C 
ATOM     24  H   UNL     1      -1.242   2.485   1.068  0.00  0.00    -0.079 HD
BRANCH  23  25
ATOM     25  C   UNL     1      -0.763   1.595  -1.195  0.00  0.00    -0.019 A 
ATOM     26  C   UNL     1      -1.517   2.750  -1.101  0.00  0.00    +0.009 A 
ATOM     27  C   UNL     1      -2.206   3.220  -2.203  0.00  0.00    +0.046 A 
ATOM     28  C   UNL     1      -2.143   2.533  -3.407  0.00  0.00    +0.124 A 
ATOM     29  C   UNL     1      -1.387   1.374  -3.504  0.00  0.00    +0.091 A 
ATOM     30  C   UNL     1      -0.692   0.908  -2.399  0.00  0.00    +0.125 A 
BRANCH  30  31
ATOM     31  O   UNL     1       0.054  -0.224  -2.493  0.00  0.00    -0.495 OA
ATOM     32  C   UNL     1       0.082  -0.879  -3.762  0.00  0.00    +0.277 C 
ENDBRANCH  30  31
BRANCH  28  33
ATOM     33  O   UNL     1      -2.821   2.995  -4.490  0.00  0.00    -0.495 OA
ATOM     34  C   UNL     1      -3.579   4.194  -4.317  0.00  0.00    +0.277 C 
ENDBRANCH  28  33
ENDBRANCH  23  25
ENDBRANCH  18  19
ENDBRANCH   9  18
TORSDOF 6
