REMARK  Name = ZINC10751863
REMARK  10 active torsions:
REMARK  status: ('A' for Active; 'I' for Inactive)
REMARK    1  A    between atoms: C_1  and  C_2
REMARK    2  A    between atoms: C_7  and  C_8
REMARK    3  A    between atoms: N_12  and  C_13
REMARK    4  A    between atoms: C_13  and  C_14
REMARK    5  A    between atoms: C_14  and  N_63
REMARK    6  A    between atoms: C_15  and  N_63
REMARK    7  A    between atoms: C_16  and  N_63
REMARK    8  A    between atoms: C_17  and  C_19
REMARK    9  A    between atoms: N_24  and  S_26
REMARK   10  A    between atoms: S_26  and  C_29
REMARK                            x       y       z     vdW  Elec       q    Type
REMARK                         _______ _______ _______ _____ _____    ______ ____
ROOT
ATOM      1  C   UNL     1       1.768  12.676   7.372  0.00  0.00    +0.044 C 
ATOM      2  C   UNL     1       1.458  11.229   7.658  0.00  0.00    -0.045 A 
ATOM      3  C   UNL     1       1.971  10.640   8.805  0.00  0.00    +0.005 A 
ATOM      4  C   UNL     1       1.688   9.313   9.069  0.00  0.00    +0.017 A 
ATOM      5  C   UNL     1       0.905   8.600   8.195  0.00  0.00    +0.041 A 
ATOM      6  C   UNL     1       0.366   9.167   7.018  0.00  0.00    +0.083 A 
ATOM      7  C   UNL     1       0.676  10.526   6.780  0.00  0.00    -0.021 A 
ATOM      8  C   UNL     1       0.140  11.208   5.548  0.00  0.00    +0.046 C 
ATOM      9  N   UNL     1      -0.380   8.336   6.258  0.00  0.00    -0.224 NA
ATOM     10  C   UNL     1      -0.602   7.085   6.589  0.00  0.00    +0.168 A 
ATOM     11  S   UNL     1       0.299   6.932   8.124  0.00  0.00    -0.052 S 
ATOM     12  N   UNL     1      -1.342   6.127   5.916  0.00  0.00    -0.252 N 
ATOM     13  C   UNL     1      -1.923   6.428   4.737  0.00  0.00    +0.226 C 
ATOM     14  O   UNL     1      -2.637   5.617   4.189  0.00  0.00    -0.275 OA
ENDROOT
BRANCH  13  15
ATOM     15  C   UNL     1      -1.683   7.774   4.102  0.00  0.00    +0.091 C 
ATOM     16  C   UNL     1      -0.216   7.886   3.682  0.00  0.00    +0.015 C 
ATOM     17  C   UNL     1       0.036   9.264   3.066  0.00  0.00    +0.018 C 
ATOM     18  C   UNL     1      -0.839   9.427   1.813  0.00  0.00    +0.109 C 
ATOM     19  N   UNL     1      -2.238   9.179   2.186  0.00  0.00    -0.175 NA
ATOM     20  C   UNL     1      -2.577   7.922   2.866  0.00  0.00    +0.122 C 
BRANCH  19  21
ATOM     21  S   UNL     1      -3.413  10.294   1.840  0.00  0.00    +0.067 S 
ATOM     22  O   UNL     1      -4.643   9.583   1.783  0.00  0.00    -0.152 OA
ATOM     23  O   UNL     1      -2.930  11.069   0.751  0.00  0.00    -0.152 OA
BRANCH  21  24
ATOM     24  C   UNL     1      -3.524  11.381   3.222  0.00  0.00    +0.143 A 
ATOM     25  C   UNL     1      -2.858  12.539   3.453  0.00  0.00    +0.036 A 
ATOM     26  C   UNL     1      -3.105  13.233   4.622  0.00  0.00    +0.010 A 
ATOM     27  C   UNL     1      -4.014  12.741   5.499  0.00  0.00    +0.047 A 
ATOM     28  S   UNL     1      -4.548  11.248   4.678  0.00  0.00    -0.077 S 
ENDBRANCH  21  24
ENDBRANCH  19  21
ENDBRANCH  13  15
BRANCH  12  29
ATOM     29  C   UNL     1      -1.494   4.786   6.485  0.00  0.00    +0.097 C 
BRANCH  29  30
ATOM     30  C   UNL     1      -0.302   3.919   6.072  0.00  0.00    -0.060 C 
BRANCH  30  33
ATOM     31  C   UNL     1      -1.610   1.881   6.058  0.00  0.00    -0.097 C 
ATOM     32  C   UNL     1       0.774   1.787   6.470  0.00  0.00    -0.097 C 
ATOM     33  N   UNL     1      -0.459   2.577   6.671  0.00  0.00    +0.377 N 
ATOM     34  H   UNL     1      -0.629   2.679   7.679  0.00  0.00    -0.083 HD
ENDBRANCH  30  33
ENDBRANCH  29  30
ENDBRANCH  12  29
TORSDOF 6
