REMARK  Name = ZINC12247629
REMARK  10 active torsions:
REMARK  status: ('A' for Active; 'I' for Inactive)
REMARK    1  A    between atoms: C_1  and  C_2
REMARK    2  A    between atoms: C_2  and  C_30
REMARK    3  A    between atoms: C_4  and  N_59
REMARK    4  A    between atoms: C_9  and  C_10
REMARK    5  A    between atoms: C_9  and  N_59
REMARK    6  A    between atoms: C_15  and  S_28
REMARK    7  A    between atoms: C_19  and  C_20
REMARK    8  A    between atoms: C_23  and  O_26
REMARK    9  A    between atoms: O_26  and  C_27
REMARK   10  A    between atoms: S_28  and  C_29
REMARK                            x       y       z     vdW  Elec       q    Type
REMARK                         _______ _______ _______ _____ _____    ______ ____
ROOT
ATOM      1  C   UNL     1       0.002   7.747   1.722  0.00  0.00    -0.038 A 
ATOM      2  C   UNL     1       0.050   8.825   2.557  0.00  0.00    +0.013 A 
ATOM      3  C   UNL     1      -1.129   9.203   3.228  0.00  0.00    +0.001 A 
ATOM      4  C   UNL     1      -1.143  10.301   4.104  0.00  0.00    +0.011 A 
ATOM      5  C   UNL     1      -2.294  10.646   4.740  0.00  0.00    +0.015 A 
ATOM      6  C   UNL     1      -3.473   9.917   4.534  0.00  0.00    +0.010 A 
ATOM      7  C   UNL     1      -3.492   8.834   3.681  0.00  0.00    +0.043 A 
ATOM      8  C   UNL     1      -2.316   8.458   3.011  0.00  0.00    +0.073 A 
ATOM      9  N   UNL     1      -2.305   7.413   2.178  0.00  0.00    -0.246 NA
ATOM     10  C   UNL     1      -1.204   7.053   1.545  0.00  0.00    +0.073 A 
ENDROOT
BRANCH  10  11
ATOM     11  C   UNL     1      -1.242   5.887   0.631  0.00  0.00    +0.001 A 
ATOM     12  C   UNL     1      -1.872   4.708   1.029  0.00  0.00    +0.013 A 
ATOM     13  C   UNL     1      -1.905   3.625   0.177  0.00  0.00    +0.046 A 
ATOM     14  C   UNL     1      -1.312   3.707  -1.076  0.00  0.00    +0.120 A 
ATOM     15  C   UNL     1      -0.679   4.878  -1.473  0.00  0.00    +0.046 A 
ATOM     16  C   UNL     1      -0.647   5.966  -0.628  0.00  0.00    +0.013 A 
BRANCH  14  17
ATOM     17  O   UNL     1      -1.346   2.638  -1.913  0.00  0.00    -0.495 OA
ATOM     18  C   UNL     1      -0.717   2.791  -3.187  0.00  0.00    +0.277 C 
ENDBRANCH  14  17
ENDBRANCH  10  11
BRANCH   6  19
ATOM     19  S   UNL     1      -4.948  10.390   5.374  0.00  0.00    -0.129 S 
ATOM     20  C   UNL     1      -4.450  11.830   6.358  0.00  0.00    +0.090 C 
ENDBRANCH   6  19
BRANCH   1  21
ATOM     21  C   UNL     1       1.242   7.305   0.988  0.00  0.00    -0.044 C 
BRANCH  21  22
ATOM     22  N   UNL     1       2.397   8.081   1.478  0.00  0.00    +0.384 N 
ATOM     23  H   UNL     1       2.273   9.069   1.225  0.00  0.00    -0.085 HD
ATOM     24  H   UNL     1       2.454   7.995   2.500  0.00  0.00    -0.085 HD
BRANCH  22  28
ATOM     25  C   UNL     1       6.110   5.955   0.950  0.00  0.00    +0.041 C 
ATOM     26  C   UNL     1       6.127   7.474   1.128  0.00  0.00    +0.063 C 
ATOM     27  C   UNL     1       4.823   7.925   1.792  0.00  0.00    +0.019 C 
ATOM     28  C   UNL     1       3.645   7.577   0.877  0.00  0.00    -0.067 C 
ATOM     29  C   UNL     1       3.861   8.238  -0.488  0.00  0.00    +0.012 C 
ATOM     30  C   UNL     1       5.202   7.776  -1.065  0.00  0.00    +0.159 C 
ATOM     31  O   UNL     1       6.250   8.102  -0.150  0.00  0.00    -0.374 OA
ATOM     32  C   UNL     1       7.313   7.872   2.009  0.00  0.00    +0.041 C 
ENDBRANCH  22  28
ENDBRANCH  21  22
ENDBRANCH   1  21
TORSDOF 6
