REMARK  Name = ZINC63303075
REMARK  6 active torsions:
REMARK  status: ('A' for Active; 'I' for Inactive)
REMARK    1  A    between atoms: C_4  and  C_7
REMARK    2  A    between atoms: C_8  and  C_9
REMARK    3  A    between atoms: C_9  and  N_10
REMARK    4  A    between atoms: C_16  and  C_18
REMARK    5  A    between atoms: C_18  and  C_19
REMARK    6  A    between atoms: C_19  and  N_20
REMARK                            x       y       z     vdW  Elec       q    Type
REMARK                         _______ _______ _______ _____ _____    ______ ____
ROOT
ATOM      1  C   UNL     1       7.078  -9.336   3.221  0.00  0.00    +0.115 C 
ENDROOT
BRANCH   1   2
ATOM      2  N   UNL     1       8.444  -9.780   3.508  0.00  0.00    -0.299 N 
ATOM      3  C   UNL     1       8.694 -11.083   3.741  0.00  0.00    +0.302 C 
ATOM      4  O   UNL     1       7.775 -11.877   3.804  0.00  0.00    -0.253 OA
ATOM      5  N   UNL     1       9.963 -11.507   3.905  0.00  0.00    -0.283 N 
ATOM      6  C   UNL     1      11.055 -10.529   3.947  0.00  0.00    +0.114 C 
ATOM      7  C   UNL     1      12.076 -10.853   2.841  0.00  0.00    +0.052 C 
ATOM      8  C   UNL     1      12.319 -12.341   2.899  0.00  0.00    -0.036 C 
ATOM      9  C   UNL     1      13.441 -13.046   2.973  0.00  0.00    -0.001 A 
ATOM     10  C   UNL     1      14.856 -12.643   2.916  0.00  0.00    +0.010 A 
ATOM     11  C   UNL     1      15.769 -13.642   3.046  0.00  0.00    +0.001 A 
ATOM     12  C   UNL     1      15.420 -14.984   3.226  0.00  0.00    +0.002 A 
ATOM     13  C   UNL     1      14.145 -15.445   3.281  0.00  0.00    +0.026 A 
ATOM     14  C   UNL     1      13.096 -14.489   3.148  0.00  0.00    +0.043 A 
ATOM     15  N   UNL     1      11.806 -14.652   3.140  0.00  0.00    -0.376 N 
ATOM     16  C   UNL     1      11.178 -13.352   2.900  0.00  0.00    +0.124 C 
ATOM     17  C   UNL     1      10.238 -12.946   4.045  0.00  0.00    +0.138 C 
ATOM     18  H   UNL     1       9.169  -9.135   3.530  0.00  0.00    +0.150 HD
ATOM     19  H   UNL     1      11.339 -15.492   3.272  0.00  0.00    +0.160 HD
ENDBRANCH   1   2
BRANCH   1  20
ATOM     20  C   UNL     1       7.070  -7.823   2.996  0.00  0.00    +0.114 C 
BRANCH  20  27
ATOM     21  N   UNL     1       5.088  -3.687   1.048  0.00  0.00    -0.296 NA
ATOM     22  C   UNL     1       4.086  -4.751   0.899  0.00  0.00    +0.103 C 
ATOM     23  C   UNL     1       4.050  -5.596   2.176  0.00  0.00    +0.123 C 
ATOM     24  N   UNL     1       5.414  -6.063   2.467  0.00  0.00    -0.299 N 
ATOM     25  C   UNL     1       6.498  -5.069   2.497  0.00  0.00    +0.123 C 
ATOM     26  C   UNL     1       6.438  -4.245   1.206  0.00  0.00    +0.103 C 
ATOM     27  C   UNL     1       5.664  -7.366   2.700  0.00  0.00    +0.217 C 
ATOM     28  O   UNL     1       4.758  -8.172   2.672  0.00  0.00    -0.276 OA
BRANCH  21  29
ATOM     29  C   UNL     1       5.035  -2.752  -0.084  0.00  0.00    +0.111 C 
BRANCH  29  31
ATOM     30  C   UNL     1       3.697  -0.693  -0.064  0.00  0.00    +0.005 C 
ATOM     31  C   UNL     1       3.718  -2.019  -0.068  0.00  0.00    -0.011 C 
BRANCH  30  35
ATOM     32  C   UNL     1      -0.015   1.372  -0.021  0.00  0.00    +0.000 A 
ATOM     33  C   UNL     1       1.171   2.085  -0.030  0.00  0.00    +0.001 A 
ATOM     34  C   UNL     1       2.380   1.420  -0.044  0.00  0.00    +0.008 A 
ATOM     35  C   UNL     1       2.405   0.025  -0.048  0.00  0.00    -0.025 A 
ATOM     36  C   UNL     1       1.206  -0.689  -0.038  0.00  0.00    +0.008 A 
ATOM     37  C   UNL     1       0.004  -0.012  -0.025  0.00  0.00    +0.001 A 
ENDBRANCH  30  35
ENDBRANCH  29  31
ENDBRANCH  21  29
ENDBRANCH  20  27
ENDBRANCH   1  20
TORSDOF 6
