REMARK  Name = ZINC09658064
REMARK  8 active torsions:
REMARK  status: ('A' for Active; 'I' for Inactive)
REMARK    1  A    between atoms: C_1  and  C_2
REMARK    2  A    between atoms: C_7  and  N_8
REMARK    3  A    between atoms: C_12  and  S_13
REMARK    4  A    between atoms: S_13  and  C_14
REMARK    5  A    between atoms: C_14  and  C_15
REMARK    6  A    between atoms: N_17  and  C_18
REMARK    7  A    between atoms: C_20  and  C_29
REMARK    8  A    between atoms: N_22  and  C_23
REMARK                            x       y       z     vdW  Elec       q    Type
REMARK                         _______ _______ _______ _____ _____    ______ ____
ROOT
ATOM      1  C   UNL     1      -4.699   2.624   2.786  0.00  0.00    +0.229 C 
ATOM      2  O   UNL     1      -5.064   2.200   1.710  0.00  0.00    -0.275 OA
ATOM      3  N   UNL     1      -5.502   3.440   3.497  0.00  0.00    -0.270 N 
ATOM      4  H   UNL     1      -5.211   3.779   4.357  0.00  0.00    +0.156 HD
ENDROOT
BRANCH   3   5
ATOM      5  C   UNL     1      -6.753   3.798   2.994  0.00  0.00    +0.129 A 
ATOM      6  C   UNL     1      -7.291   3.394   1.810  0.00  0.00    +0.069 A 
ATOM      7  C   UNL     1      -8.555   3.979   1.692  0.00  0.00    +0.068 A 
ATOM      8  N   UNL     1      -8.777   4.707   2.756  0.00  0.00    -0.169 NA
ATOM      9  N   UNL     1      -7.662   4.609   3.600  0.00  0.00    -0.218 N 
BRANCH   9  10
ATOM     10  C   UNL     1      -7.510   5.237   4.844  0.00  0.00    +0.067 A 
ATOM     11  C   UNL     1      -6.819   4.599   5.865  0.00  0.00    +0.028 A 
ATOM     12  C   UNL     1      -6.670   5.220   7.089  0.00  0.00    +0.002 A 
ATOM     13  C   UNL     1      -7.209   6.476   7.299  0.00  0.00    +0.000 A 
ATOM     14  C   UNL     1      -7.899   7.114   6.284  0.00  0.00    +0.002 A 
ATOM     15  C   UNL     1      -8.045   6.500   5.055  0.00  0.00    +0.028 A 
ENDBRANCH   9  10
BRANCH   7  16
ATOM     16  C   UNL     1      -9.502   3.802   0.533  0.00  0.00    +0.040 C 
ATOM     17  C   UNL     1      -9.337   2.393  -0.073  0.00  0.00    +0.010 C 
ATOM     18  C   UNL     1      -9.512   2.612  -1.597  0.00  0.00    +0.001 C 
ATOM     19  C   UNL     1      -8.801   3.968  -1.830  0.00  0.00    +0.001 C 
ATOM     20  C   UNL     1      -9.161   4.804  -0.584  0.00  0.00    +0.010 C 
ENDBRANCH   7  16
ENDBRANCH   3   5
BRANCH   1  21
ATOM     21  C   UNL     1      -3.347   2.238   3.329  0.00  0.00    +0.173 C 
BRANCH  21  22
ATOM     22  S   UNL     1      -2.513   1.140   2.151  0.00  0.00    -0.076 S 
BRANCH  22  27
ATOM     23  N   UNL     1       0.025  -0.013   2.419  0.00  0.00    -0.277 N 
ATOM     24  C   UNL     1       1.026   0.013   3.355  0.00  0.00    +0.230 A 
ATOM     25  N   UNL     1       0.622   0.774   4.333  0.00  0.00    -0.137 NA
ATOM     26  N   UNL     1      -0.555   1.228   4.084  0.00  0.00    -0.122 NA
ATOM     27  C   UNL     1      -0.969   0.783   2.920  0.00  0.00    +0.196 A 
BRANCH  23  34
ATOM     28  C   UNL     1      -0.018   1.503   0.010  0.00  0.00    +0.046 C 
ATOM     29  C   UNL     1       0.002  -0.004   0.002  0.00  0.00    -0.027 A 
ATOM     30  C   UNL     1       0.006  -0.689  -1.198  0.00  0.00    +0.005 A 
ATOM     31  C   UNL     1       0.024  -2.071  -1.206  0.00  0.00    +0.000 A 
ATOM     32  C   UNL     1       0.039  -2.773  -0.014  0.00  0.00    +0.002 A 
ATOM     33  C   UNL     1       0.035  -2.093   1.188  0.00  0.00    +0.026 A 
ATOM     34  C   UNL     1       0.023  -0.705   1.200  0.00  0.00    +0.053 A 
ENDBRANCH  23  34
ENDBRANCH  22  27
ENDBRANCH  21  22
ENDBRANCH   1  21
TORSDOF 7
