REMARK  Name = ZINC29354814
REMARK  6 active torsions:
REMARK  status: ('A' for Active; 'I' for Inactive)
REMARK    1  A    between atoms: C_1  and  C_2
REMARK    2  A    between atoms: C_5  and  N_8
REMARK    3  A    between atoms: C_18  and  N_19
REMARK    4  A    between atoms: N_19  and  N_20
REMARK    5  A    between atoms: N_20  and  C_21
REMARK    6  A    between atoms: N_20  and  C_22
REMARK                            x       y       z     vdW  Elec       q    Type
REMARK                         _______ _______ _______ _____ _____    ______ ____
ROOT
ATOM      1  N   UNL     1       1.435  -0.409  -0.550  0.00  0.00    -0.202 N 
ATOM      2  C   UNL     1       2.579   0.265  -0.347  0.00  0.00    +0.258 C 
ATOM      3  O   UNL     1       3.628  -0.346  -0.279  0.00  0.00    -0.269 OA
ATOM      4  C   UNL     1       2.584   1.726  -0.205  0.00  0.00    +0.046 A 
ATOM      5  C   UNL     1       3.769   2.432   0.006  0.00  0.00    +0.014 A 
ATOM      6  C   UNL     1       3.732   3.804   0.134  0.00  0.00    +0.001 A 
ATOM      7  C   UNL     1       2.529   4.491   0.055  0.00  0.00    +0.001 A 
ATOM      8  C   UNL     1       1.346   3.812  -0.154  0.00  0.00    +0.009 A 
ATOM      9  C   UNL     1       1.363   2.429  -0.286  0.00  0.00    +0.000 A 
ATOM     10  C   UNL     1       0.125   1.653  -0.510  0.00  0.00    +0.060 C 
ATOM     11  C   UNL     1      -1.097   2.280  -0.603  0.00  0.00    +0.098 C 
ATOM     12  C   UNL     1       0.238   0.196  -0.636  0.00  0.00    +0.259 C 
ATOM     13  O   UNL     1      -0.762  -0.473  -0.820  0.00  0.00    -0.269 OA
ENDROOT
BRANCH   1  18
ATOM     14  C   UNL     1       1.666  -6.055  -1.062  0.00  0.00    +0.044 C 
ATOM     15  C   UNL     1       1.605  -4.556  -0.926  0.00  0.00    -0.050 A 
ATOM     16  C   UNL     1       2.128  -3.751  -1.921  0.00  0.00    +0.005 A 
ATOM     17  C   UNL     1       2.073  -2.376  -1.799  0.00  0.00    +0.024 A 
ATOM     18  C   UNL     1       1.492  -1.803  -0.676  0.00  0.00    +0.045 A 
ATOM     19  C   UNL     1       0.972  -2.614   0.323  0.00  0.00    +0.024 A 
ATOM     20  C   UNL     1       1.025  -3.988   0.193  0.00  0.00    +0.005 A 
ENDBRANCH   1  18
BRANCH  11  21
ATOM     21  N   UNL     1      -1.305   3.462   0.035  0.00  0.00    -0.285 N 
ATOM     22  H   UNL     1      -0.540   3.860   0.718  0.00  0.00    +0.166 HD
BRANCH  21  23
ATOM     23  N   UNL     1      -2.464   4.155  -0.171  0.00  0.00    -0.236 NA
ATOM     24  C   UNL     1      -3.203   4.332   1.086  0.00  0.00    +0.127 C 
ATOM     25  C   UNL     1      -2.196   5.450  -0.811  0.00  0.00    +0.127 C 
ENDBRANCH  21  23
ENDBRANCH  11  21
TORSDOF 3
