REMARK  Name = ZINC27802061
REMARK  6 active torsions:
REMARK  status: ('A' for Active; 'I' for Inactive)
REMARK    1  A    between atoms: C_4  and  S_8
REMARK    2  A    between atoms: S_8  and  N_11
REMARK    3  A    between atoms: N_11  and  C_12
REMARK    4  A    between atoms: C_15  and  N_18
REMARK    5  A    between atoms: N_21  and  C_22
REMARK    6  A    between atoms: C_22  and  C_23
REMARK                            x       y       z     vdW  Elec       q    Type
REMARK                         _______ _______ _______ _____ _____    ______ ____
ROOT
ATOM      1  C   UNL     1      -2.679   0.851   1.611  0.00  0.00    +0.048 A 
ATOM      2  C   UNL     1      -1.847   1.917   1.295  0.00  0.00    +0.026 A 
ATOM      3  C   UNL     1      -2.291   3.213   1.467  0.00  0.00    +0.025 A 
ATOM      4  C   UNL     1      -3.564   3.450   1.967  0.00  0.00    +0.035 A 
ATOM      5  C   UNL     1      -4.394   2.385   2.288  0.00  0.00    +0.025 A 
ATOM      6  C   UNL     1      -3.953   1.088   2.110  0.00  0.00    +0.026 A 
ENDROOT
BRANCH   4   7
ATOM      7  N   UNL     1      -4.012   4.767   2.148  0.00  0.00    -0.269 N 
ATOM      8  C   UNL     1      -4.846   5.061   3.165  0.00  0.00    +0.304 C 
ATOM      9  O   UNL     1      -5.134   4.207   3.981  0.00  0.00    -0.252 OA
ATOM     10  N   UNL     1      -5.359   6.302   3.277  0.00  0.00    -0.292 N 
ATOM     11  H   UNL     1      -3.683   5.559   1.459  0.00  0.00    +0.156 HD
ATOM     12  H   UNL     1      -5.098   7.074   2.539  0.00  0.00    +0.151 HD
BRANCH  10  13
ATOM     13  C   UNL     1      -6.266   6.622   4.383  0.00  0.00    +0.180 C 
BRANCH  13  14
ATOM     14  C   UNL     1      -6.694   8.063   4.280  0.00  0.00    +0.122 A 
ATOM     15  C   UNL     1      -7.771   8.518   3.614  0.00  0.00    +0.046 A 
ATOM     16  C   UNL     1      -7.792   9.922   3.780  0.00  0.00    +0.041 A 
ATOM     17  C   UNL     1      -6.728  10.241   4.538  0.00  0.00    +0.195 A 
ATOM     18  O   UNL     1      -6.070   9.111   4.843  0.00  0.00    -0.466 OA
ENDBRANCH  13  14
ENDBRANCH  10  13
ENDBRANCH   4   7
BRANCH   1  19
ATOM     19  N   UNL     1      -2.232  -0.463   1.430  0.00  0.00    -0.216 N 
ATOM     20  H   UNL     1      -2.388  -1.210   2.222  0.00  0.00    +0.174 HD
BRANCH  19  21
ATOM     21  S   UNL     1      -1.467  -0.892   0.025  0.00  0.00    +0.075 S 
ATOM     22  O   UNL     1      -1.231  -2.291   0.103  0.00  0.00    -0.150 OA
ATOM     23  O   UNL     1      -0.420   0.048  -0.170  0.00  0.00    -0.150 OA
BRANCH  21  27
ATOM     24  C   UNL     1      -4.418  -0.263  -3.352  0.00  0.00    +0.003 A 
ATOM     25  C   UNL     1      -3.267   0.500  -3.287  0.00  0.00    +0.002 A 
ATOM     26  C   UNL     1      -2.366   0.308  -2.256  0.00  0.00    +0.032 A 
ATOM     27  C   UNL     1      -2.616  -0.647  -1.288  0.00  0.00    +0.143 A 
ATOM     28  C   UNL     1      -3.768  -1.412  -1.352  0.00  0.00    +0.150 A 
ATOM     29  C   UNL     1      -4.669  -1.219  -2.386  0.00  0.00    +0.040 A 
ATOM     30  F   UNL     1      -4.010  -2.350  -0.411  0.00  0.00    -0.203 F 
ENDBRANCH  21  27
ENDBRANCH  19  21
ENDBRANCH   1  19
TORSDOF 6
