REMARK  Name = ZINC13443040
REMARK  13 active torsions:
REMARK  status: ('A' for Active; 'I' for Inactive)
REMARK    1  A    between atoms: C_1  and  C_2
REMARK    2  A    between atoms: C_2  and  O_3
REMARK    3  A    between atoms: O_3  and  C_4
REMARK    4  A    between atoms: C_9  and  N_10
REMARK    5  A    between atoms: C_11  and  C_13
REMARK    6  A    between atoms: C_13  and  S_14
REMARK    7  A    between atoms: S_14  and  C_15
REMARK    8  A    between atoms: C_18  and  C_23
REMARK    9  A    between atoms: N_19  and  C_20
REMARK   10  A    between atoms: C_20  and  C_21
REMARK   11  A    between atoms: C_26  and  O_29
REMARK   12  A    between atoms: O_29  and  C_30
REMARK   13  A    between atoms: C_32  and  C_35
REMARK                            x       y       z     vdW  Elec       q    Type
REMARK                         _______ _______ _______ _____ _____    ______ ____
ROOT
ATOM      1  C   UNL     1       3.887  -0.851   0.188  0.00  0.00    +0.173 C 
ENDROOT
BRANCH   1   3
ATOM      2  N   UNL     1       2.675   1.293  -0.040  0.00  0.00    -0.282 N 
ATOM      3  C   UNL     1       2.618  -0.039   0.155  0.00  0.00    +0.228 C 
ATOM      4  O   UNL     1       1.545  -0.585   0.304  0.00  0.00    -0.275 OA
ATOM      5  H   UNL     1       3.525   1.719  -0.235  0.00  0.00    +0.155 HD
BRANCH   2  11
ATOM      6  C   UNL     1       1.432   3.282  -0.632  0.00  0.00    +0.142 A 
ATOM      7  C   UNL     1       0.272   4.037  -0.553  0.00  0.00    +0.055 A 
ATOM      8  C   UNL     1      -0.798   3.580   0.186  0.00  0.00    +0.001 A 
ATOM      9  C   UNL     1      -0.735   2.369   0.862  0.00  0.00    +0.126 A 
ATOM     10  C   UNL     1       0.431   1.612   0.784  0.00  0.00    +0.073 A 
ATOM     11  C   UNL     1       1.507   2.064   0.039  0.00  0.00    +0.079 A 
ATOM     12  O   UNL     1      -1.891   2.121   1.539  0.00  0.00    -0.488 OA
ATOM     13  C   UNL     1      -2.944   2.928   0.986  0.00  0.00    +0.175 C 
ATOM     14  C   UNL     1      -2.177   4.160   0.442  0.00  0.00    +0.083 C 
ATOM     15  C   UNL     1      -3.664   2.184  -0.140  0.00  0.00    +0.052 C 
BRANCH   6  16
ATOM     16  O   UNL     1       2.491   3.728  -1.361  0.00  0.00    -0.490 OA
BRANCH  16  18
ATOM     17  C   UNL     1       3.623   5.320  -2.784  0.00  0.00    +0.048 C 
ATOM     18  C   UNL     1       2.339   4.987  -2.021  0.00  0.00    +0.226 C 
ENDBRANCH  16  18
ENDBRANCH   6  16
ENDBRANCH   2  11
ENDBRANCH   1   3
BRANCH   1  19
ATOM     19  S   UNL     1       3.482  -2.593   0.465  0.00  0.00    -0.077 S 
BRANCH  19  20
ATOM     20  C   UNL     1       5.101  -3.288   0.457  0.00  0.00    +0.193 A 
ATOM     21  N   UNL     1       6.229  -2.637   0.283  0.00  0.00    -0.122 NA
ATOM     22  N   UNL     1       7.222  -3.450   0.339  0.00  0.00    -0.128 NA
ATOM     23  C   UNL     1       6.789  -4.673   0.543  0.00  0.00    +0.165 A 
ATOM     24  N   UNL     1       5.418  -4.607   0.625  0.00  0.00    -0.291 N 
BRANCH  23  25
ATOM     25  C   UNL     1       7.619  -5.890   0.662  0.00  0.00    +0.020 A 
ATOM     26  C   UNL     1       8.990  -5.782   0.904  0.00  0.00    +0.015 A 
ATOM     27  C   UNL     1       9.760  -6.919   1.020  0.00  0.00    +0.046 A 
ATOM     28  C   UNL     1       9.175  -8.172   0.884  0.00  0.00    +0.120 A 
ATOM     29  C   UNL     1       7.813  -8.284   0.638  0.00  0.00    +0.046 A 
ATOM     30  C   UNL     1       7.036  -7.151   0.527  0.00  0.00    +0.015 A 
BRANCH  28  31
ATOM     31  O   UNL     1       9.939  -9.291   0.993  0.00  0.00    -0.495 OA
ATOM     32  C   UNL     1      11.332  -9.103   1.247  0.00  0.00    +0.277 C 
ENDBRANCH  28  31
ENDBRANCH  23  25
BRANCH  24  33
ATOM     33  C   UNL     1       4.490  -5.719   0.847  0.00  0.00    +0.250 C 
BRANCH  33  34
ATOM     34  C   UNL     1       4.175  -6.381  -0.469  0.00  0.00    +0.375 C 
ATOM     35  O   UNL     1       4.675  -5.966  -1.489  0.00  0.00    -0.244 OA
ATOM     36  O   UNL     1       3.340  -7.431  -0.510  0.00  0.00    -0.244 OA
ENDBRANCH  33  34
ENDBRANCH  24  33
ENDBRANCH  19  20
ENDBRANCH   1  19
TORSDOF 10
