REMARK  Name = ZINC58849175
REMARK  7 active torsions:
REMARK  status: ('A' for Active; 'I' for Inactive)
REMARK    1  A    between atoms: C_1  and  C_2
REMARK    2  A    between atoms: C_2  and  O_3
REMARK    3  A    between atoms: O_3  and  C_4
REMARK    4  A    between atoms: C_9  and  N_10
REMARK    5  A    between atoms: N_10  and  S_11
REMARK    6  A    between atoms: S_11  and  C_14
REMARK    7  A    between atoms: C_27  and  C_30
REMARK                            x       y       z     vdW  Elec       q    Type
REMARK                         _______ _______ _______ _____ _____    ______ ____
ROOT
ATOM      1  C   UNL     1       0.376  -1.988  -5.619  0.00  0.00    +0.109 A 
ATOM      2  C   UNL     1      -0.367  -3.150  -5.514  0.00  0.00    +0.030 A 
ATOM      3  C   UNL     1      -1.659  -3.184  -5.999  0.00  0.00    +0.025 A 
ATOM      4  C   UNL     1      -2.212  -2.053  -6.590  0.00  0.00    +0.031 A 
ATOM      5  C   UNL     1      -1.473  -0.883  -6.685  0.00  0.00    -0.018 A 
ATOM      6  C   UNL     1      -0.175  -0.862  -6.196  0.00  0.00    +0.034 A 
ATOM      7  C   UNL     1      -2.046   0.360  -7.276  0.00  0.00    +0.049 C 
ATOM      8  C   UNL     1      -1.528   0.618  -8.668  0.00  0.00    -0.023 C 
ATOM      9  C   UNL     1      -2.471   1.138  -9.412  0.00  0.00    -0.030 C 
ATOM     10  C   UNL     1      -3.754   1.297  -8.627  0.00  0.00    +0.033 C 
ATOM     11  C   UNL     1      -3.567   0.353  -7.417  0.00  0.00    +0.029 C 
ATOM     12  C   UNL     1      -4.139  -1.002  -7.781  0.00  0.00    +0.105 C 
ATOM     13  N   UNL     1      -3.507  -2.107  -7.092  0.00  0.00    -0.336 N 
ATOM     14  H   UNL     1      -4.004  -2.935  -6.995  0.00  0.00    +0.147 HD
ENDROOT
BRANCH  12  15
ATOM     15  C   UNL     1      -4.008  -1.192  -9.270  0.00  0.00    -0.023 A 
ATOM     16  C   UNL     1      -2.799  -1.587  -9.812  0.00  0.00    +0.009 A 
ATOM     17  C   UNL     1      -2.674  -1.764 -11.177  0.00  0.00    +0.050 A 
ATOM     18  C   UNL     1      -3.762  -1.544 -12.007  0.00  0.00    +0.166 A 
ATOM     19  C   UNL     1      -4.980  -1.145 -11.462  0.00  0.00    +0.167 A 
ATOM     20  C   UNL     1      -5.099  -0.976 -10.092  0.00  0.00    +0.055 A 
ATOM     21  O   UNL     1      -5.883  -0.995 -12.474  0.00  0.00    -0.453 OA
ATOM     22  C   UNL     1      -5.099  -0.909 -13.679  0.00  0.00    +0.466 C 
ATOM     23  O   UNL     1      -3.902  -1.644 -13.361  0.00  0.00    -0.453 OA
ENDBRANCH  12  15
BRANCH   1  24
ATOM     24  S   UNL     1       2.028  -1.944  -5.008  0.00  0.00    +0.072 S 
ATOM     25  O   UNL     1       2.693  -0.905  -5.713  0.00  0.00    -0.150 OA
ATOM     26  O   UNL     1       2.497  -3.285  -5.008  0.00  0.00    -0.150 OA
BRANCH  24  27
ATOM     27  N   UNL     1       1.952  -1.469  -3.424  0.00  0.00    -0.213 N 
ATOM     28  H   UNL     1       2.399  -0.656  -3.139  0.00  0.00    +0.174 HD
BRANCH  27  34
ATOM     29  C   UNL     1       0.547  -1.619  -1.459  0.00  0.00    +0.143 A 
ATOM     30  C   UNL     1      -0.159  -2.386  -0.547  0.00  0.00    +0.047 A 
ATOM     31  C   UNL     1      -0.168  -3.764  -0.662  0.00  0.00    +0.004 A 
ATOM     32  C   UNL     1       0.526  -4.380  -1.687  0.00  0.00    +0.002 A 
ATOM     33  C   UNL     1       1.232  -3.622  -2.602  0.00  0.00    +0.028 A 
ATOM     34  C   UNL     1       1.242  -2.239  -2.495  0.00  0.00    +0.090 A 
BRANCH  29  35
ATOM     35  O   UNL     1       0.558  -0.264  -1.346  0.00  0.00    -0.490 OA
BRANCH  35  37
ATOM     36  C   UNL     1      -0.048   1.827  -0.296  0.00  0.00    +0.048 C 
ATOM     37  C   UNL     1      -0.176   0.303  -0.259  0.00  0.00    +0.226 C 
ENDBRANCH  35  37
ENDBRANCH  29  35
ENDBRANCH  27  34
ENDBRANCH  24  27
ENDBRANCH   1  24
TORSDOF 6
