REMARK  Name = ZINC05689044
REMARK  8 active torsions:
REMARK  status: ('A' for Active; 'I' for Inactive)
REMARK    1  A    between atoms: C_6  and  O_7
REMARK    2  A    between atoms: O_7  and  C_8
REMARK    3  A    between atoms: C_8  and  C_9
REMARK    4  A    between atoms: C_9  and  O_10
REMARK    5  A    between atoms: O_10  and  C_11
REMARK    6  A    between atoms: C_11  and  C_13
REMARK    7  A    between atoms: C_16  and  N_22
REMARK    8  A    between atoms: C_17  and  N_19
REMARK                            x       y       z     vdW  Elec       q    Type
REMARK                         _______ _______ _______ _____ _____    ______ ____
ROOT
ATOM      1  C   UNL     1      -0.036   1.268  -0.483  0.00  0.00    +0.339 C 
ATOM      2  O   UNL     1       0.003   0.054  -0.515  0.00  0.00    -0.245 OA
ENDROOT
BRANCH   1   3
ATOM      3  C   UNL     1      -1.311   1.958  -0.218  0.00  0.00    +0.061 A 
ATOM      4  C   UNL     1      -1.356   3.355  -0.175  0.00  0.00    +0.017 A 
ATOM      5  C   UNL     1      -2.539   3.994   0.064  0.00  0.00    +0.026 A 
ATOM      6  C   UNL     1      -3.702   3.258   0.277  0.00  0.00    +0.055 A 
ATOM      7  C   UNL     1      -3.665   1.867   0.242  0.00  0.00    +0.147 A 
ATOM      8  C   UNL     1      -2.477   1.217  -0.004  0.00  0.00    +0.049 A 
BRANCH   7   9
ATOM      9  N   UNL     1      -4.903   1.087   0.469  0.00  0.00    +0.058 N 
ATOM     10  O   UNL     1      -4.852  -0.127   0.551  0.00  0.00    -0.126 OA
ATOM     11  O   UNL     1      -5.973   1.660   0.574  0.00  0.00    -0.126 OA
ENDBRANCH   7   9
BRANCH   6  12
ATOM     12  N   UNL     1      -4.902   3.914   0.526  0.00  0.00    -0.356 N 
ATOM     13  H   UNL     1      -5.609   3.464   1.014  0.00  0.00    +0.142 HD
ATOM     14  H   UNL     1      -5.032   4.823   0.212  0.00  0.00    +0.142 HD
ENDBRANCH   6  12
ENDBRANCH   1   3
BRANCH   1  15
ATOM     15  O   UNL     1       1.086   1.984  -0.695  0.00  0.00    -0.458 OA
BRANCH  15  16
ATOM     16  C   UNL     1       2.305   1.238  -0.955  0.00  0.00    +0.273 C 
BRANCH  16  17
ATOM     17  C   UNL     1       3.464   2.214  -1.169  0.00  0.00    +0.270 C 
BRANCH  17  18
ATOM     18  O   UNL     1       3.712   2.932   0.042  0.00  0.00    -0.489 OA
BRANCH  18  24
ATOM     19  C   UNL     1       5.454   4.043  -1.137  0.00  0.00    +0.047 A 
ATOM     20  C   UNL     1       6.472   4.977  -1.157  0.00  0.00    +0.019 A 
ATOM     21  C   UNL     1       6.765   5.707  -0.018  0.00  0.00    +0.018 A 
ATOM     22  C   UNL     1       6.035   5.508   1.140  0.00  0.00    +0.019 A 
ATOM     23  C   UNL     1       5.012   4.579   1.162  0.00  0.00    +0.047 A 
ATOM     24  C   UNL     1       4.717   3.846   0.022  0.00  0.00    +0.121 A 
ATOM     25 BR   UNL     1       8.163   6.979  -0.046  0.00  0.00    -0.050 Br
ENDBRANCH  18  24
ENDBRANCH  17  18
ENDBRANCH  16  17
ENDBRANCH  15  16
ENDBRANCH   1  15
TORSDOF 8
