REMARK  Name = ZINC20984760
REMARK  7 active torsions:
REMARK  status: ('A' for Active; 'I' for Inactive)
REMARK    1  A    between atoms: C_1  and  C_2
REMARK    2  A    between atoms: C_4  and  C_32
REMARK    3  A    between atoms: C_5  and  C_9
REMARK    4  A    between atoms: C_7  and  C_8
REMARK    5  A    between atoms: N_15  and  C_16
REMARK    6  A    between atoms: C_18  and  S_23
REMARK    7  A    between atoms: S_23  and  N_26
REMARK                            x       y       z     vdW  Elec       q    Type
REMARK                         _______ _______ _______ _____ _____    ______ ____
ROOT
ATOM      1  C   UNL     1      -0.139  -4.218   0.379  0.00  0.00    +0.077 C 
ATOM      2  N   UNL     1      -0.177  -4.936  -0.670  0.00  0.00    -0.184 NA
ATOM      3  N   UNL     1      -0.283  -6.320  -0.767  0.00  0.00    -0.215 N 
ATOM      4  C   UNL     1      -0.192  -7.096   0.382  0.00  0.00    +0.174 C 
ATOM      5  S   UNL     1      -0.913  -6.369   1.835  0.00  0.00    -0.083 S 
ATOM      6  C   UNL     1      -0.163  -4.707   1.800  0.00  0.00    +0.134 C 
ATOM      7  N   UNL     1       0.384  -8.277   0.394  0.00  0.00    -0.223 NA
ATOM      8  H   UNL     1      -0.419  -6.740  -1.630  0.00  0.00    +0.176 HD
ENDROOT
BRANCH   1  13
ATOM      9  C   UNL     1       0.183   1.472  -0.395  0.00  0.00    +0.044 C 
ATOM     10  C   UNL     1       0.099  -0.019  -0.192  0.00  0.00    -0.047 A 
ATOM     11  C   UNL     1       1.155  -0.695   0.394  0.00  0.00    +0.007 A 
ATOM     12  C   UNL     1       1.085  -2.059   0.582  0.00  0.00    -0.041 A 
ATOM     13  C   UNL     1      -0.057  -2.759   0.181  0.00  0.00    +0.002 A 
ATOM     14  C   UNL     1      -1.119  -2.070  -0.408  0.00  0.00    +0.013 A 
ATOM     15  C   UNL     1      -1.037  -0.704  -0.586  0.00  0.00    -0.047 A 
ATOM     16  C   UNL     1      -2.184   0.043  -1.216  0.00  0.00    +0.044 C 
ATOM     17  C   UNL     1       2.236  -2.794   1.218  0.00  0.00    +0.044 C 
ENDBRANCH   1  13
BRANCH   7  18
ATOM     18  C   UNL     1       0.923  -8.788  -0.756  0.00  0.00    +0.087 A 
ATOM     19  C   UNL     1       1.626  -7.956  -1.631  0.00  0.00    +0.057 A 
ATOM     20  C   UNL     1       2.167  -8.477  -2.788  0.00  0.00    +0.108 A 
ATOM     21  C   UNL     1       2.013  -9.820  -3.084  0.00  0.00    +0.030 A 
ATOM     22  C   UNL     1       1.318 -10.650  -2.223  0.00  0.00    +0.024 A 
ATOM     23  C   UNL     1       0.776 -10.144  -1.059  0.00  0.00    +0.066 A 
ATOM     24 CL   UNL     1      -0.090 -11.188   0.025  0.00  0.00    -0.081 Cl
BRANCH  20  25
ATOM     25  S   UNL     1       3.054  -7.430  -3.892  0.00  0.00    +0.061 S 
ATOM     26  O   UNL     1       2.993  -8.044  -5.172  0.00  0.00    -0.153 OA
ATOM     27  O   UNL     1       2.589  -6.107  -3.659  0.00  0.00    -0.153 OA
BRANCH  25  28
ATOM     28  N   UNL     1       4.643  -7.462  -3.427  0.00  0.00    -0.172 NA
ATOM     29  C   UNL     1       5.164  -6.499  -2.443  0.00  0.00    +0.137 C 
ATOM     30  C   UNL     1       5.915  -7.277  -1.357  0.00  0.00    +0.177 C 
ATOM     31  O   UNL     1       6.876  -8.138  -1.973  0.00  0.00    -0.377 OA
ATOM     32  C   UNL     1       6.307  -9.136  -2.823  0.00  0.00    +0.177 C 
ATOM     33  C   UNL     1       5.575  -8.457  -3.981  0.00  0.00    +0.137 C 
ENDBRANCH  25  28
ENDBRANCH  20  25
ENDBRANCH   7  18
TORSDOF 4
