REMARK  Name = ZINC24142130
REMARK  10 active torsions:
REMARK  status: ('A' for Active; 'I' for Inactive)
REMARK    1  A    between atoms: C_1  and  C_2
REMARK    2  A    between atoms: N_13  and  C_30
REMARK    3  A    between atoms: C_14  and  S_16
REMARK    4  A    between atoms: S_16  and  C_17
REMARK    5  A    between atoms: C_17  and  C_18
REMARK    6  A    between atoms: C_24  and  C_27
REMARK    7  A    between atoms: C_30  and  C_31
REMARK    8  A    between atoms: C_31  and  C_32
REMARK    9  A    between atoms: C_32  and  C_33
REMARK   10  A    between atoms: C_32  and  C_34
REMARK                            x       y       z     vdW  Elec       q    Type
REMARK                         _______ _______ _______ _____ _____    ______ ____
ROOT
ATOM      1  C   UNL     1      -0.759   1.596  -1.226  0.00  0.00    +0.008 C 
ATOM      2  C   UNL     1      -0.013   1.086   0.008  0.00  0.00    -0.009 C 
ATOM      3  C   UNL     1      -0.710   1.583   1.277  0.00  0.00    +0.008 C 
ATOM      4  C   UNL     1      -0.125   0.880   2.502  0.00  0.00    +0.037 C 
ATOM      5  C   UNL     1       1.393   1.037   2.484  0.00  0.00    -0.023 A 
ATOM      6  C   UNL     1       2.037   1.368   1.341  0.00  0.00    -0.004 A 
ATOM      7  S   UNL     1       3.756   1.439   1.778  0.00  0.00    -0.073 S 
ATOM      8  C   UNL     1       3.610   1.025   3.488  0.00  0.00    +0.117 A 
ATOM      9  C   UNL     1       2.219   0.844   3.665  0.00  0.00    +0.076 A 
ATOM     10  C   UNL     1       1.766   0.493   4.978  0.00  0.00    +0.263 A 
ATOM     11  O   UNL     1       0.586   0.317   5.231  0.00  0.00    -0.267 OA
ATOM     12  N   UNL     1       2.729   0.369   5.922  0.00  0.00    -0.287 N 
ATOM     13  C   UNL     1       4.051   0.561   5.661  0.00  0.00    +0.173 A 
ATOM     14  N   UNL     1       4.505   0.887   4.458  0.00  0.00    -0.216 NA
ATOM     15  C   UNL     1       1.426   1.621  -0.003  0.00  0.00    +0.046 C 
ENDROOT
BRANCH  13  16
ATOM     16  S   UNL     1       5.208   0.369   6.976  0.00  0.00    -0.078 S 
BRANCH  16  17
ATOM     17  C   UNL     1       6.748   0.728   6.095  0.00  0.00    +0.173 C 
BRANCH  17  18
ATOM     18  C   UNL     1       7.910   0.621   7.049  0.00  0.00    +0.226 C 
ATOM     19  O   UNL     1       7.715   0.330   8.211  0.00  0.00    -0.275 OA
ATOM     20  N   UNL     1       9.164   0.847   6.612  0.00  0.00    -0.300 N 
ATOM     21  C   UNL     1       9.415   1.200   5.208  0.00  0.00    +0.108 C 
ATOM     22  C   UNL     1      10.230   2.496   5.163  0.00  0.00    +0.020 C 
ATOM     23  C   UNL     1      11.497   2.327   6.005  0.00  0.00    +0.016 C 
ATOM     24  C   UNL     1      11.112   2.048   7.460  0.00  0.00    +0.092 C 
ATOM     25  C   UNL     1      10.306   0.752   7.532  0.00  0.00    +0.120 C 
BRANCH  24  26
ATOM     26  C   UNL     1      12.360   1.914   8.294  0.00  0.00    +0.215 C 
ATOM     27  O   UNL     1      13.450   2.029   7.776  0.00  0.00    -0.276 OA
ATOM     28  N   UNL     1      12.264   1.665   9.615  0.00  0.00    -0.329 N 
ATOM     29  H   UNL     1      13.175   1.567  10.224  0.00  0.00    +0.145 HD
ATOM     30  H   UNL     1      11.274   1.561  10.085  0.00  0.00    +0.145 HD
ENDBRANCH  24  26
ENDBRANCH  17  18
ENDBRANCH  16  17
ENDBRANCH  13  16
BRANCH  12  31
ATOM     31  C   UNL     1       2.330   0.012   7.285  0.00  0.00    +0.127 C 
BRANCH  31  32
ATOM     32  C   UNL     1       2.051   1.286   8.085  0.00  0.00    +0.025 C 
BRANCH  32  33
ATOM     33  C   UNL     1       1.634   0.913   9.509  0.00  0.00    -0.016 C 
ATOM     34  C   UNL     1       2.805   0.236  10.223  0.00  0.00    +0.007 C 
ATOM     35  C   UNL     1       1.236   2.179  10.272  0.00  0.00    +0.007 C 
ENDBRANCH  32  33
ENDBRANCH  31  32
ENDBRANCH  12  31
TORSDOF 7
