REMARK  Name = ZINC08922867
REMARK  7 active torsions:
REMARK  status: ('A' for Active; 'I' for Inactive)
REMARK    1  A    between atoms: C_1  and  C_2
REMARK    2  A    between atoms: C_2  and  C_3
REMARK    3  A    between atoms: C_2  and  C_4
REMARK    4  A    between atoms: C_2  and  C_5
REMARK    5  A    between atoms: C_12  and  C_16
REMARK    6  A    between atoms: N_18  and  N_19
REMARK    7  A    between atoms: C_20  and  C_21
REMARK                            x       y       z     vdW  Elec       q    Type
REMARK                         _______ _______ _______ _____ _____    ______ ____
ROOT
ATOM      1  C   UNL     1      -3.418   1.525   0.685  0.00  0.00    +0.276 C 
ATOM      2  O   UNL     1      -3.644   2.711   0.566  0.00  0.00    -0.270 OA
ATOM      3  N   UNL     1      -2.163   1.059   0.526  0.00  0.00    -0.204 N 
ATOM      4  H   UNL     1      -1.983   0.111   0.621  0.00  0.00    +0.177 HD
ENDROOT
BRANCH   1  12
ATOM      5  C   UNL     1      -9.234   0.445   1.803  0.00  0.00    -0.038 A 
ATOM      6  C   UNL     1      -9.284  -0.829   1.269  0.00  0.00    +0.008 A 
ATOM      7  C   UNL     1      -8.149  -1.396   0.721  0.00  0.00    +0.050 A 
ATOM      8  C   UNL     1      -6.956  -0.688   0.705  0.00  0.00    +0.162 A 
ATOM      9  C   UNL     1      -6.907   0.594   1.239  0.00  0.00    +0.163 A 
ATOM     10  C   UNL     1      -8.050   1.157   1.789  0.00  0.00    +0.053 A 
ATOM     11  O   UNL     1      -5.749   1.309   1.230  0.00  0.00    -0.472 OA
ATOM     12  C   UNL     1      -4.540   0.573   1.009  0.00  0.00    +0.297 C 
ATOM     13  C   UNL     1      -4.766  -0.382  -0.171  0.00  0.00    +0.283 C 
ATOM     14  O   UNL     1      -5.846  -1.260   0.165  0.00  0.00    -0.484 OA
BRANCH   5  16
ATOM     15  C   UNL     1     -11.636   0.070   2.290  0.00  0.00    +0.015 C 
ATOM     16  C   UNL     1     -10.474   1.059   2.401  0.00  0.00    -0.013 C 
ATOM     17  C   UNL     1     -10.221   1.386   3.874  0.00  0.00    +0.015 C 
ATOM     18  C   UNL     1     -10.822   2.343   1.645  0.00  0.00    +0.015 C 
ENDBRANCH   5  16
ENDBRANCH   1  12
BRANCH   3  19
ATOM     19  N   UNL     1      -1.120   1.944   0.225  0.00  0.00    -0.188 NA
ATOM     20  C   UNL     1       0.060   1.483  -0.057  0.00  0.00    +0.138 C 
BRANCH  20  21
ATOM     21  C   UNL     1       0.204   0.157  -0.683  0.00  0.00    -0.002 A 
ATOM     22  C   UNL     1       1.470  -0.419  -0.822  0.00  0.00    +0.013 A 
ATOM     23  C   UNL     1       1.601  -1.661  -1.407  0.00  0.00    +0.050 A 
ATOM     24  C   UNL     1       0.480  -2.342  -1.860  0.00  0.00    +0.166 A 
ATOM     25  C   UNL     1      -0.785  -1.773  -1.725  0.00  0.00    +0.167 A 
ATOM     26  C   UNL     1      -0.925  -0.531  -1.135  0.00  0.00    +0.059 A 
ATOM     27  O   UNL     1      -1.708  -2.635  -2.244  0.00  0.00    -0.453 OA
ATOM     28  C   UNL     1      -0.960  -3.551  -3.064  0.00  0.00    +0.466 C 
ATOM     29  O   UNL     1       0.348  -3.560  -2.463  0.00  0.00    -0.453 OA
ENDBRANCH  20  21
ENDBRANCH   3  19
TORSDOF 4
