REMARK  Name = ZINC06557560
REMARK  5 active torsions:
REMARK  status: ('A' for Active; 'I' for Inactive)
REMARK    1  A    between atoms: C_4  and  C_7
REMARK    2  A    between atoms: C_7  and  C_10
REMARK    3  A    between atoms: N_8  and  O_9
REMARK    4  A    between atoms: C_10  and  C_11
REMARK    5  A    between atoms: C_11  and  O_21
REMARK                            x       y       z     vdW  Elec       q    Type
REMARK                         _______ _______ _______ _____ _____    ______ ____
ROOT
ATOM      1  C   UNL     1       5.174  -2.670   0.076  0.00  0.00    +0.174 C 
ATOM      2  C   UNL     1       5.236  -4.163   0.303  0.00  0.00    +0.014 A 
ATOM      3  C   UNL     1       4.736  -5.238  -0.397  0.00  0.00    +0.009 A 
ATOM      4  C   UNL     1       4.956  -6.524   0.063  0.00  0.00    +0.000 A 
ATOM      5  C   UNL     1       5.678  -6.725   1.225  0.00  0.00    +0.002 A 
ATOM      6  C   UNL     1       6.180  -5.650   1.928  0.00  0.00    +0.024 A 
ATOM      7  C   UNL     1       5.963  -4.351   1.471  0.00  0.00    +0.040 A 
ATOM      8  N   UNL     1       6.360  -3.121   1.996  0.00  0.00    -0.282 N 
ATOM      9  C   UNL     1       5.942  -2.089   1.244  0.00  0.00    +0.254 C 
ATOM     10  O   UNL     1       6.143  -0.912   1.460  0.00  0.00    -0.272 OA
ATOM     11  H   UNL     1       6.879  -3.022   2.810  0.00  0.00    +0.155 HD
ENDROOT
BRANCH   1  12
ATOM     12  O   UNL     1       5.802  -2.322  -1.159  0.00  0.00    -0.374 OA
ATOM     13  H   UNL     1       5.817  -1.372  -1.339  0.00  0.00    +0.211 HD
ENDBRANCH   1  12
BRANCH   1  14
ATOM     14  C   UNL     1       3.723  -2.184   0.095  0.00  0.00    +0.108 C 
BRANCH  14  15
ATOM     15  C   UNL     1       3.694  -0.683  -0.037  0.00  0.00    +0.091 C 
ATOM     16  N   UNL     1       4.800  -0.022  -0.142  0.00  0.00    -0.091 NA
BRANCH  15  20
ATOM     17  C   UNL     1      -0.020   1.373  -0.064  0.00  0.00    +0.000 A 
ATOM     18  C   UNL     1       1.040   1.857  -0.810  0.00  0.00    +0.001 A 
ATOM     19  C   UNL     1       2.250   1.194  -0.805  0.00  0.00    +0.010 A 
ATOM     20  C   UNL     1       2.402   0.032  -0.046  0.00  0.00    -0.000 A 
ATOM     21  C   UNL     1       1.328  -0.451   0.704  0.00  0.00    +0.010 A 
ATOM     22  C   UNL     1       0.124   0.222   0.690  0.00  0.00    +0.001 A 
ENDBRANCH  15  20
BRANCH  16  23
ATOM     23  O   UNL     1       4.782   1.394  -0.135  0.00  0.00    -0.409 OA
ATOM     24  H   UNL     1       5.656   1.799  -0.218  0.00  0.00    +0.328 HD
ENDBRANCH  16  23
ENDBRANCH  14  15
ENDBRANCH   1  14
TORSDOF 5
