REMARK  Name = ZINC40827037
REMARK  8 active torsions:
REMARK  status: ('A' for Active; 'I' for Inactive)
REMARK    1  A    between atoms: C_1  and  C_2
REMARK    2  A    between atoms: C_4  and  C_39
REMARK    3  A    between atoms: C_10  and  C_11
REMARK    4  A    between atoms: C_11  and  C_12
REMARK    5  A    between atoms: N_14  and  N_15
REMARK    6  A    between atoms: C_22  and  C_38
REMARK    7  A    between atoms: C_23  and  C_25
REMARK    8  A    between atoms: N_27  and  C_28
REMARK                            x       y       z     vdW  Elec       q    Type
REMARK                         _______ _______ _______ _____ _____    ______ ____
ROOT
ATOM      1  N   UNL     1       2.285  -6.369  -2.960  0.00  0.00    -0.184 NA
ATOM      2  C   UNL     1       2.671  -7.421  -3.614  0.00  0.00    +0.070 C 
ATOM      3  C   UNL     1       1.691  -8.464  -4.131  0.00  0.00    +0.058 C 
ATOM      4  C   UNL     1       2.282  -9.852  -3.864  0.00  0.00    +0.014 C 
ATOM      5  C   UNL     1       3.570 -10.055  -4.667  0.00  0.00    +0.075 C 
ATOM      6  C   UNL     1       4.513  -8.910  -4.399  0.00  0.00    +0.115 A 
ATOM      7  C   UNL     1       4.094  -7.692  -3.915  0.00  0.00    +0.042 A 
ATOM      8  C   UNL     1       5.225  -6.875  -3.792  0.00  0.00    +0.009 A 
ATOM      9  C   UNL     1       6.286  -7.627  -4.213  0.00  0.00    +0.193 A 
ATOM     10  O   UNL     1       5.832  -8.853  -4.568  0.00  0.00    -0.454 OA
ATOM     11  C   UNL     1       5.263  -5.453  -3.295  0.00  0.00    +0.048 C 
ENDROOT
BRANCH   1  14
ATOM     12  C   UNL     1       0.524  -5.070  -2.023  0.00  0.00    +0.237 C 
ATOM     13  O   UNL     1       1.343  -4.264  -1.635  0.00  0.00    -0.274 OA
ATOM     14  N   UNL     1       0.924  -6.163  -2.702  0.00  0.00    -0.206 N 
ATOM     15  H   UNL     1       0.269  -6.808  -3.013  0.00  0.00    +0.177 HD
BRANCH  12  16
ATOM     16  C   UNL     1      -0.941  -4.849  -1.746  0.00  0.00    +0.136 C 
BRANCH  16  26
ATOM     17  C   UNL     1      -0.765  -1.826   4.441  0.00  0.00    +0.044 C 
ATOM     18  C   UNL     1      -0.837  -2.365   3.036  0.00  0.00    -0.047 A 
ATOM     19  C   UNL     1      -0.575  -3.708   2.802  0.00  0.00    +0.007 A 
ATOM     20  C   UNL     1      -0.636  -4.214   1.533  0.00  0.00    -0.039 A 
ATOM     21  C   UNL     1      -0.964  -3.375   0.469  0.00  0.00    +0.027 A 
ATOM     22  C   UNL     1      -1.231  -2.015   0.700  0.00  0.00    +0.136 A 
ATOM     23  C   UNL     1      -1.169  -1.522   1.997  0.00  0.00    +0.050 A 
ATOM     24  O   UNL     1      -1.516  -1.455  -0.493  0.00  0.00    -0.463 OA
ATOM     25  C   UNL     1      -1.450  -2.367  -1.479  0.00  0.00    +0.200 A 
ATOM     26  C   UNL     1      -1.119  -3.565  -0.978  0.00  0.00    +0.007 A 
ATOM     27  C   UNL     1      -0.349  -5.673   1.286  0.00  0.00    +0.044 C 
ENDBRANCH  16  26
ENDBRANCH  12  16
ENDBRANCH   1  14
BRANCH   9  28
ATOM     28  C   UNL     1       7.684  -7.184  -4.261  0.00  0.00    +0.284 C 
ATOM     29  O   UNL     1       7.978  -6.057  -3.906  0.00  0.00    -0.266 OA
ATOM     30  N   UNL     1       8.643  -8.024  -4.698  0.00  0.00    -0.279 N 
ATOM     31  H   UNL     1       8.401  -8.898  -5.043  0.00  0.00    +0.155 HD
BRANCH  30  32
ATOM     32  C   UNL     1       9.987  -7.635  -4.655  0.00  0.00    +0.037 A 
ATOM     33  C   UNL     1      10.863  -8.050  -5.650  0.00  0.00    +0.027 A 
ATOM     34  C   UNL     1      12.189  -7.668  -5.607  0.00  0.00    +0.051 A 
ATOM     35  C   UNL     1      12.651  -6.869  -4.571  0.00  0.00    +0.162 A 
ATOM     36  C   UNL     1      11.777  -6.450  -3.575  0.00  0.00    +0.164 A 
ATOM     37  C   UNL     1      10.444  -6.831  -3.621  0.00  0.00    +0.072 A 
ATOM     38  O   UNL     1      12.210  -5.659  -2.556  0.00  0.00    -0.485 OA
ATOM     39  C   UNL     1      13.624  -5.601  -2.342  0.00  0.00    +0.270 C 
ATOM     40  C   UNL     1      14.308  -5.400  -3.701  0.00  0.00    +0.270 C 
ATOM     41  O   UNL     1      13.963  -6.506  -4.544  0.00  0.00    -0.485 OA
ENDBRANCH  30  32
ENDBRANCH   9  28
TORSDOF 5
