REMARK  Name = ZINC35359440
REMARK  4 active torsions:
REMARK  status: ('A' for Active; 'I' for Inactive)
REMARK    1  A    between atoms: C_6  and  C_7
REMARK    2  A    between atoms: C_7  and  C_8
REMARK    3  A    between atoms: C_8  and  C_10
REMARK    4  A    between atoms: C_8  and  N_21
REMARK                            x       y       z     vdW  Elec       q    Type
REMARK                         _______ _______ _______ _____ _____    ______ ____
ROOT
ATOM      1  C   UNL     1      -1.745  -1.028  -1.429  0.00  0.00    -0.038 C 
ENDROOT
BRANCH   1   2
ATOM      2  C   UNL     1      -2.972  -1.903  -1.424  0.00  0.00    -0.043 A 
ATOM      3  C   UNL     1      -4.226  -1.341  -1.589  0.00  0.00    +0.009 A 
ATOM      4  C   UNL     1      -5.344  -2.143  -1.584  0.00  0.00    -0.017 A 
ATOM      5  C   UNL     1      -5.234  -3.517  -1.414  0.00  0.00    +0.038 A 
ATOM      6  C   UNL     1      -3.969  -4.077  -1.248  0.00  0.00    +0.043 A 
ATOM      7  C   UNL     1      -2.848  -3.271  -1.260  0.00  0.00    +0.044 A 
ATOM      8 CL   UNL     1      -1.275  -3.978  -1.060  0.00  0.00    -0.083 Cl
ATOM      9  N   UNL     1      -6.497  -4.110  -1.445  0.00  0.00    -0.285 N 
ATOM     10  C   UNL     1      -7.477  -3.209  -1.629  0.00  0.00    +0.222 C 
ATOM     11  O   UNL     1      -8.666  -3.442  -1.696  0.00  0.00    -0.275 OA
ATOM     12  C   UNL     1      -6.819  -1.850  -1.735  0.00  0.00    +0.133 C 
ATOM     13  H   UNL     1      -6.650  -5.063  -1.346  0.00  0.00    +0.155 HD
ENDBRANCH   1   2
BRANCH   1  14
ATOM     14  N   UNL     1      -2.059   0.253  -2.076  0.00  0.00    +0.383 N 
ATOM     15  H   UNL     1      -1.238   0.838  -2.080  0.00  0.00    -0.089 HD
ATOM     16  H   UNL     1      -2.357   0.086  -3.026  0.00  0.00    -0.089 HD
ATOM     17  H   UNL     1      -2.799   0.714  -1.568  0.00  0.00    -0.089 HD
ENDBRANCH   1  14
BRANCH   1  18
ATOM     18  C   UNL     1      -1.293  -0.775   0.010  0.00  0.00    +0.023 C 
BRANCH  18  24
ATOM     19  C   UNL     1      -0.017   1.378   0.010  0.00  0.00    +0.004 A 
ATOM     20  C   UNL     1       1.171   2.086   0.002  0.00  0.00    +0.015 A 
ATOM     21  C   UNL     1       2.378   1.411  -0.013  0.00  0.00    +0.018 A 
ATOM     22  C   UNL     1       2.396   0.027  -0.021  0.00  0.00    +0.015 A 
ATOM     23  C   UNL     1       1.208  -0.679  -0.013  0.00  0.00    +0.004 A 
ATOM     24  C   UNL     1       0.002  -0.004   0.002  0.00  0.00    -0.049 A 
ATOM     25 BR   UNL     1       4.003   2.378  -0.024  0.00  0.00    -0.050 Br
ENDBRANCH  18  24
ENDBRANCH   1  18
TORSDOF 4
