REMARK  Name = ZINC10555433
REMARK  6 active torsions:
REMARK  status: ('A' for Active; 'I' for Inactive)
REMARK    1  A    between atoms: C_1  and  C_2
REMARK    2  A    between atoms: N_10  and  C_14
REMARK    3  A    between atoms: C_14  and  C_15
REMARK    4  A    between atoms: C_20  and  C_23
REMARK    5  A    between atoms: C_26  and  S_29
REMARK    6  A    between atoms: S_29  and  C_30
REMARK                            x       y       z     vdW  Elec       q    Type
REMARK                         _______ _______ _______ _____ _____    ______ ____
ROOT
ATOM      1  C   UNL     1       2.121  -4.158  -0.043  0.00  0.00    +0.237 C 
ATOM      2  O   UNL     1       1.000  -4.622  -0.035  0.00  0.00    -0.274 OA
ATOM      3  N   UNL     1       2.297  -2.822  -0.036  0.00  0.00    -0.263 N 
ATOM      4  C   UNL     1       1.195  -1.976  -0.021  0.00  0.00    +0.165 A 
ATOM      5  N   UNL     1       1.154  -0.657  -0.018  0.00  0.00    -0.225 NA
ATOM      6  C   UNL     1       0.002  -0.004   0.002  0.00  0.00    +0.080 A 
ATOM      7  C   UNL     1      -1.169  -0.710   0.009  0.00  0.00    +0.076 A 
ATOM      8  S   UNL     1      -0.545  -2.386  -0.006  0.00  0.00    -0.060 S 
ATOM      9  H   UNL     1       3.193  -2.451  -0.043  0.00  0.00    +0.157 HD
ENDROOT
BRANCH   6  10
ATOM     10  C   UNL     1      -0.018   1.479   0.010  0.00  0.00    +0.001 A 
ATOM     11  C   UNL     1      -1.234   2.161   0.020  0.00  0.00    +0.011 A 
ATOM     12  C   UNL     1      -1.251   3.539   0.033  0.00  0.00    +0.015 A 
ATOM     13  C   UNL     1      -0.056   4.250   0.026  0.00  0.00    +0.008 A 
ATOM     14  C   UNL     1       1.158   3.572   0.010  0.00  0.00    +0.015 A 
ATOM     15  C   UNL     1       1.179   2.193   0.003  0.00  0.00    +0.011 A 
BRANCH  13  16
ATOM     16  S   UNL     1      -0.080   6.012   0.036  0.00  0.00    -0.129 S 
ATOM     17  C   UNL     1      -1.845   6.426   0.056  0.00  0.00    +0.090 C 
ENDBRANCH  13  16
ENDBRANCH   6  10
BRANCH   1  18
ATOM     18  C   UNL     1       3.316  -5.076  -0.060  0.00  0.00    +0.214 C 
BRANCH  18  28
ATOM     19  C   UNL     1       0.842 -12.660  -0.662  0.00  0.00    +0.007 C 
ATOM     20  C   UNL     1       1.283 -11.287  -1.171  0.00  0.00    -0.014 C 
ATOM     21  C   UNL     1       0.323 -10.216  -0.647  0.00  0.00    +0.006 C 
ATOM     22  C   UNL     1       0.758  -8.844  -1.167  0.00  0.00    +0.035 C 
ATOM     23  C   UNL     1       2.179  -8.548  -0.701  0.00  0.00    +0.113 C 
ATOM     24  C   UNL     1       3.144  -9.620  -1.195  0.00  0.00    +0.035 C 
ATOM     25  C   UNL     1       2.700 -10.989  -0.675  0.00  0.00    +0.006 C 
ATOM     26  C   UNL     1       2.617  -7.183  -1.182  0.00  0.00    +0.247 C 
ATOM     27  O   UNL     1       2.726  -6.809  -2.330  0.00  0.00    -0.273 OA
ATOM     28  N   UNL     1       2.863  -6.469  -0.064  0.00  0.00    -0.215 N 
ATOM     29  C   UNL     1       2.646  -7.193   1.041  0.00  0.00    +0.310 C 
ATOM     30  O   UNL     1       2.803  -6.768   2.169  0.00  0.00    -0.252 OA
ATOM     31  N   UNL     1       2.230  -8.443   0.762  0.00  0.00    -0.285 N 
ATOM     32  H   UNL     1       2.012  -9.139   1.402  0.00  0.00    +0.151 HD
ENDBRANCH  18  28
ENDBRANCH   1  18
TORSDOF 4
