REMARK  Name = ZINC08773015
REMARK  9 active torsions:
REMARK  status: ('A' for Active; 'I' for Inactive)
REMARK    1  A    between atoms: C_4  and  C_8
REMARK    2  A    between atoms: C_8  and  O_9
REMARK    3  A    between atoms: O_9  and  N_10
REMARK    4  A    between atoms: C_11  and  C_12
REMARK    5  A    between atoms: N_19  and  C_22
REMARK    6  A    between atoms: C_22  and  C_23
REMARK    7  A    between atoms: C_23  and  N_24
REMARK    8  A    between atoms: N_24  and  C_25
REMARK    9  A    between atoms: C_28  and  C_30
REMARK                            x       y       z     vdW  Elec       q    Type
REMARK                         _______ _______ _______ _____ _____    ______ ____
ROOT
ATOM      1  C   UNL     1      -1.328   1.812   0.018  0.00  0.00    +0.206 C 
ATOM      2  C   UNL     1      -2.025   1.550  -1.303  0.00  0.00    +0.238 C 
ATOM      3  O   UNL     1      -1.502   1.839  -2.358  0.00  0.00    -0.274 OA
ATOM      4  N   UNL     1      -3.250   0.983  -1.261  0.00  0.00    -0.239 N 
ATOM      5  C   UNL     1      -3.841   0.659  -0.105  0.00  0.00    +0.315 C 
ATOM      6  O   UNL     1      -4.944   0.153  -0.160  0.00  0.00    -0.252 OA
ATOM      7  N   UNL     1      -3.306   0.852   1.106  0.00  0.00    -0.223 N 
ATOM      8  C   UNL     1      -2.086   1.406   1.268  0.00  0.00    +0.240 C 
ATOM      9  O   UNL     1      -1.613   1.573   2.372  0.00  0.00    -0.274 OA
ATOM     10  H   UNL     1      -3.715   0.806  -2.093  0.00  0.00    +0.159 HD
ENDROOT
BRANCH   1  12
ATOM     11  N   UNL     1       1.087   1.731   0.001  0.00  0.00    -0.096 NA
ATOM     12  C   UNL     1      -0.013   1.076   0.008  0.00  0.00    +0.148 C 
BRANCH  11  13
ATOM     13  O   UNL     1       2.322   1.039  -0.015  0.00  0.00    -0.389 OA
BRANCH  13  14
ATOM     14  C   UNL     1       3.467   1.895  -0.021  0.00  0.00    +0.302 C 
BRANCH  14  18
ATOM     15  C   UNL     1       7.021  -0.480  -0.067  0.00  0.00    +0.004 A 
ATOM     16  C   UNL     1       6.435  -0.090  -1.257  0.00  0.00    +0.039 A 
ATOM     17  C   UNL     1       5.284   0.679  -1.244  0.00  0.00    +0.131 A 
ATOM     18  C   UNL     1       4.720   1.058  -0.037  0.00  0.00    +0.046 A 
ATOM     19  C   UNL     1       5.310   0.672   1.152  0.00  0.00    +0.050 A 
ATOM     20  C   UNL     1       6.457  -0.102   1.137  0.00  0.00    +0.020 A 
ATOM     21 CL   UNL     1       4.607   1.152   2.666  0.00  0.00    -0.083 Cl
ATOM     22  F   UNL     1       4.712   1.060  -2.407  0.00  0.00    -0.205 F 
ENDBRANCH  14  18
ENDBRANCH  13  14
ENDBRANCH  11  13
ENDBRANCH   1  12
BRANCH   7  23
ATOM     23  C   UNL     1      -4.066   0.448   2.291  0.00  0.00    +0.136 C 
BRANCH  23  24
ATOM     24  C   UNL     1      -4.934   1.616   2.763  0.00  0.00    +0.122 C 
BRANCH  24  25
ATOM     25  N   UNL     1      -5.694   1.213   3.948  0.00  0.00    -0.328 N 
ATOM     26  H   UNL     1      -5.595   0.317   4.306  0.00  0.00    +0.147 HD
BRANCH  25  27
ATOM     27  C   UNL     1      -6.559   2.114   4.560  0.00  0.00    +0.115 A 
ATOM     28  C   UNL     1      -7.283   1.722   5.683  0.00  0.00    +0.079 A 
ATOM     29  C   UNL     1      -8.135   2.631   6.284  0.00  0.00    +0.037 A 
ATOM     30  C   UNL     1      -8.243   3.902   5.734  0.00  0.00    +0.072 A 
ATOM     31  C   UNL     1      -7.499   4.221   4.617  0.00  0.00    +0.096 A 
ATOM     32 CL   UNL     1      -7.114   0.117   6.322  0.00  0.00    -0.080 Cl
ATOM     33  N   UNL     1      -6.648   3.356   4.002  0.00  0.00    -0.348 N 
ATOM     34  H   UNL     1      -6.107   3.621   3.171  0.00  0.00    +0.167 HD
BRANCH  30  35
ATOM     35  C   UNL     1      -9.164   4.923   6.352  0.00  0.00    +0.419 C 
ATOM     36  F   UNL     1      -9.096   6.114   5.622  0.00  0.00    -0.166 F 
ATOM     37  F   UNL     1     -10.476   4.439   6.335  0.00  0.00    -0.166 F 
ATOM     38  F   UNL     1      -8.773   5.163   7.674  0.00  0.00    -0.166 F 
ENDBRANCH  30  35
ENDBRANCH  25  27
ENDBRANCH  24  25
ENDBRANCH  23  24
ENDBRANCH   7  23
TORSDOF 9
