REMARK  Name = ZINC16464326
REMARK  7 active torsions:
REMARK  status: ('A' for Active; 'I' for Inactive)
REMARK    1  A    between atoms: C_1  and  C_2
REMARK    2  A    between atoms: C_2  and  C_4
REMARK    3  A    between atoms: C_2  and  N_14
REMARK    4  A    between atoms: C_15  and  C_17
REMARK    5  A    between atoms: C_17  and  N_18
REMARK    6  A    between atoms: C_21  and  C_25
REMARK    7  A    between atoms: C_21  and  C_26
REMARK                            x       y       z     vdW  Elec       q    Type
REMARK                         _______ _______ _______ _____ _____    ______ ____
ROOT
ATOM      1  C   UNL     1      -5.733   2.953  -2.313  0.00  0.00    +0.213 C 
ENDROOT
BRANCH   1   2
ATOM      2  N   UNL     1      -5.668   3.952  -1.244  0.00  0.00    -0.215 N 
ATOM      3  C   UNL     1      -6.647   4.838  -0.974  0.00  0.00    +0.251 C 
ATOM      4  O   UNL     1      -7.708   4.955  -1.550  0.00  0.00    -0.272 OA
ATOM      5  C   UNL     1      -6.147   5.659   0.198  0.00  0.00    +0.135 C 
ATOM      6  N   UNL     1      -4.819   5.086   0.479  0.00  0.00    -0.281 N 
ATOM      7  C   UNL     1      -4.629   4.098  -0.413  0.00  0.00    +0.310 C 
ATOM      8  O   UNL     1      -3.626   3.413  -0.460  0.00  0.00    -0.252 OA
ATOM      9  C   UNL     1      -7.074   5.495   1.404  0.00  0.00    +0.047 C 
ATOM     10  H   UNL     1      -4.202   5.367   1.173  0.00  0.00    +0.152 HD
BRANCH   5  11
ATOM     11  C   UNL     1      -6.027   7.112  -0.184  0.00  0.00    -0.013 A 
ATOM     12  C   UNL     1      -5.073   7.909   0.420  0.00  0.00    +0.009 A 
ATOM     13  C   UNL     1      -4.958   9.240   0.068  0.00  0.00    +0.041 A 
ATOM     14  C   UNL     1      -5.803   9.778  -0.888  0.00  0.00    +0.158 A 
ATOM     15  C   UNL     1      -6.764   8.980  -1.490  0.00  0.00    +0.159 A 
ATOM     16  C   UNL     1      -6.876   7.647  -1.135  0.00  0.00    +0.047 A 
ATOM     17  F   UNL     1      -7.589   9.503  -2.423  0.00  0.00    -0.202 F 
ATOM     18  F   UNL     1      -5.692  11.080  -1.233  0.00  0.00    -0.202 F 
ENDBRANCH   5  11
ENDBRANCH   1   2
BRANCH   1  20
ATOM     19  N   UNL     1      -5.122   2.794  -4.705  0.00  0.00    -0.307 N 
ATOM     20  C   UNL     1      -5.166   3.537  -3.581  0.00  0.00    +0.231 C 
ATOM     21  O   UNL     1      -4.748   4.676  -3.591  0.00  0.00    -0.274 OA
ATOM     22  H   UNL     1      -5.457   1.883  -4.697  0.00  0.00    +0.149 HD
BRANCH  19  24
ATOM     23  C   UNL     1      -4.093   2.230  -6.850  0.00  0.00    +0.033 C 
ATOM     24  C   UNL     1      -4.571   3.361  -5.938  0.00  0.00    +0.101 C 
BRANCH  24  25
ATOM     25  C   UNL     1      -5.636   4.160  -6.643  0.00  0.00    -0.020 A 
ATOM     26  C   UNL     1      -6.952   3.886  -6.429  0.00  0.00    +0.006 A 
ATOM     27  C   UNL     1      -7.950   4.614  -7.073  0.00  0.00    +0.001 A 
ATOM     28  C   UNL     1      -7.639   5.621  -7.934  0.00  0.00    +0.008 A 
ATOM     29  C   UNL     1      -6.292   5.934  -8.180  0.00  0.00    -0.018 A 
ATOM     30  C   UNL     1      -5.276   5.197  -7.521  0.00  0.00    -0.013 A 
ATOM     31  C   UNL     1      -3.928   5.507  -7.771  0.00  0.00    +0.009 A 
ATOM     32  C   UNL     1      -3.617   6.513  -8.632  0.00  0.00    +0.001 A 
ATOM     33  C   UNL     1      -4.616   7.241  -9.276  0.00  0.00    +0.001 A 
ATOM     34  C   UNL     1      -5.931   6.966  -9.062  0.00  0.00    +0.008 A 
ENDBRANCH  24  25
ENDBRANCH  19  24
ENDBRANCH   1  20
TORSDOF 5
