REMARK  Name = ZINC65566143
REMARK  5 active torsions:
REMARK  status: ('A' for Active; 'I' for Inactive)
REMARK    1  A    between atoms: C_1  and  C_2
REMARK    2  A    between atoms: C_2  and  C_3
REMARK    3  A    between atoms: C_9  and  C_11
REMARK    4  A    between atoms: C_19  and  C_26
REMARK    5  A    between atoms: C_22  and  C_25
REMARK                            x       y       z     vdW  Elec       q    Type
REMARK                         _______ _______ _______ _____ _____    ______ ____
ROOT
ATOM      1  C   UNL     1      -3.975  -1.250   2.513  0.00  0.00    +0.033 A 
ATOM      2  C   UNL     1      -5.280  -1.763   2.587  0.00  0.00    +0.016 A 
ATOM      3  C   UNL     1      -5.870  -1.871   3.817  0.00  0.00    +0.042 A 
ATOM      4  C   UNL     1      -5.164  -1.473   4.951  0.00  0.00    +0.099 A 
ATOM      5  N   UNL     1      -3.933  -0.991   4.854  0.00  0.00    -0.349 N 
ATOM      6  C   UNL     1      -3.326  -0.876   3.691  0.00  0.00    +0.095 A 
ATOM      7  N   UNL     1      -5.759  -1.581   6.198  0.00  0.00    -0.316 N 
ATOM      8  C   UNL     1      -4.994  -1.293   7.419  0.00  0.00    +0.109 C 
ATOM      9  C   UNL     1      -5.758  -0.255   8.247  0.00  0.00    +0.004 C 
ATOM     10  C   UNL     1      -7.181  -0.757   8.500  0.00  0.00    +0.009 C 
ATOM     11  C   UNL     1      -7.906  -0.938   7.164  0.00  0.00    +0.004 C 
ATOM     12  C   UNL     1      -7.168  -1.978   6.324  0.00  0.00    +0.109 C 
ATOM     13  C   UNL     1      -7.932   0.395   6.413  0.00  0.00    +0.009 C 
ATOM     14  C   UNL     1      -5.045  -0.043   9.584  0.00  0.00    +0.009 C 
ATOM     15  H   UNL     1      -3.466  -0.721   5.660  0.00  0.00    +0.167 HD
ENDROOT
BRANCH   1  22
ATOM     16  C   UNL     1      -1.423  -0.497   0.010  0.00  0.00    +0.048 A 
ATOM     17  C   UNL     1      -2.026  -0.852  -1.161  0.00  0.00    +0.093 A 
ATOM     18  C   UNL     1      -3.337  -1.365  -1.124  0.00  0.00    +0.252 A 
ATOM     19  O   UNL     1      -3.906  -1.693  -2.152  0.00  0.00    -0.268 OA
ATOM     20  N   UNL     1      -3.951  -1.487   0.072  0.00  0.00    -0.307 N 
ATOM     21  H   UNL     1      -4.854  -1.838   0.122  0.00  0.00    +0.170 HD
ATOM     22  C   UNL     1      -3.298  -1.115   1.210  0.00  0.00    +0.142 A 
ATOM     23  N   UNL     1      -2.069  -0.640   1.165  0.00  0.00    -0.234 NA
BRANCH  16  25
ATOM     24  C   UNL     1      -0.073   1.583  -0.010  0.00  0.00    +0.010 C 
ATOM     25  C   UNL     1      -0.020   0.054  -0.004  0.00  0.00    +0.052 C 
ENDBRANCH  16  25
ENDBRANCH   1  22
TORSDOF 2
