REMARK  Name = ZINC35933328
REMARK  5 active torsions:
REMARK  status: ('A' for Active; 'I' for Inactive)
REMARK    1  A    between atoms: C_1  and  C_2
REMARK    2  A    between atoms: C_7  and  C_8
REMARK    3  A    between atoms: N_17  and  C_18
REMARK    4  A    between atoms: C_18  and  C_19
REMARK    5  A    between atoms: C_28  and  C_30
REMARK                            x       y       z     vdW  Elec       q    Type
REMARK                         _______ _______ _______ _____ _____    ______ ____
ROOT
ATOM      1  C   UNL     1      -1.564  -2.420   4.620  0.00  0.00    +0.199 C 
ATOM      2  O   UNL     1      -0.648  -2.723   5.354  0.00  0.00    -0.278 OA
ATOM      3  N   UNL     1      -2.764  -3.016   4.758  0.00  0.00    -0.301 N 
ATOM      4  C   UNL     1      -2.993  -3.999   5.759  0.00  0.00    +0.109 C 
ATOM      5  C   UNL     1      -2.557  -5.447   5.361  0.00  0.00    +0.038 C 
ATOM      6  C   UNL     1      -2.905  -5.638   3.848  0.00  0.00    +0.109 C 
ATOM      7  N   UNL     1      -4.124  -5.032   3.440  0.00  0.00    -0.296 N 
ATOM      8  C   UNL     1      -4.035  -3.682   2.826  0.00  0.00    +0.127 C 
ATOM      9  C   UNL     1      -3.909  -2.670   3.877  0.00  0.00    +0.126 C 
ATOM     10  C   UNL     1      -5.308  -5.654   3.602  0.00  0.00    +0.247 C 
ATOM     11  O   UNL     1      -5.362  -6.714   4.197  0.00  0.00    -0.270 OA
ENDROOT
BRANCH  10  12
ATOM     12  C   UNL     1      -6.539  -5.051   3.058  0.00  0.00    +0.045 A 
ATOM     13  C   UNL     1      -6.620  -4.713   1.715  0.00  0.00    +0.014 A 
ATOM     14  C   UNL     1      -7.777  -4.144   1.197  0.00  0.00    +0.001 A 
ATOM     15  C   UNL     1      -8.860  -3.903   1.988  0.00  0.00    +0.008 A 
ATOM     16  C   UNL     1      -8.822  -4.230   3.354  0.00  0.00    -0.017 A 
ATOM     17  C   UNL     1      -7.654  -4.816   3.900  0.00  0.00    -0.006 A 
ATOM     18  C   UNL     1      -7.620  -5.146   5.262  0.00  0.00    +0.009 A 
ATOM     19  C   UNL     1      -8.711  -4.905   6.042  0.00  0.00    +0.001 A 
ATOM     20  C   UNL     1      -9.863  -4.334   5.506  0.00  0.00    +0.001 A 
ATOM     21  C   UNL     1      -9.927  -3.990   4.191  0.00  0.00    +0.008 A 
ENDBRANCH  10  12
BRANCH   1  22
ATOM     22  C   UNL     1      -1.360  -1.377   3.551  0.00  0.00    +0.020 C 
BRANCH  22  31
ATOM     23  C   UNL     1       0.250   0.043   2.491  0.00  0.00    -0.005 C 
ATOM     24  C   UNL     1       1.653   0.629   2.614  0.00  0.00    -0.047 A 
ATOM     25  C   UNL     1       2.345   1.222   1.561  0.00  0.00    +0.010 A 
ATOM     26  C   UNL     1       3.590   1.714   1.762  0.00  0.00    +0.045 A 
ATOM     27  S   UNL     1       3.854   1.356   3.492  0.00  0.00    -0.101 S 
ATOM     28  C   UNL     1       2.295   0.584   3.815  0.00  0.00    -0.010 A 
ATOM     29  C   UNL     1       1.760   0.007   5.085  0.00  0.00    +0.024 C 
ATOM     30  C   UNL     1       0.250  -0.213   4.895  0.00  0.00    -0.072 C 
ATOM     31  N   UNL     1       0.023  -0.883   3.607  0.00  0.00    +0.393 N 
ATOM     32  H   UNL     1       0.656  -1.664   3.524  0.00  0.00    -0.080 HD
BRANCH  23  39
ATOM     33  C   UNL     1      -0.631   1.434   0.117  0.00  0.00    +0.044 C 
ATOM     34  C   UNL     1      -0.296  -0.034   0.049  0.00  0.00    -0.049 A 
ATOM     35  C   UNL     1      -0.405  -0.713  -1.150  0.00  0.00    +0.003 A 
ATOM     36  C   UNL     1      -0.098  -2.059  -1.212  0.00  0.00    +0.000 A 
ATOM     37  C   UNL     1       0.318  -2.726  -0.075  0.00  0.00    +0.000 A 
ATOM     38  C   UNL     1       0.428  -2.047   1.124  0.00  0.00    +0.002 A 
ATOM     39  C   UNL     1       0.125  -0.699   1.185  0.00  0.00    -0.054 A 
ENDBRANCH  23  39
ENDBRANCH  22  31
ENDBRANCH   1  22
TORSDOF 4
