REMARK  Name = ZINC66692207
REMARK  11 active torsions:
REMARK  status: ('A' for Active; 'I' for Inactive)
REMARK    1  A    between atoms: C_1  and  C_2
REMARK    2  A    between atoms: C_2  and  C_3
REMARK    3  A    between atoms: C_3  and  C_4
REMARK    4  A    between atoms: C_4  and  C_6
REMARK    5  A    between atoms: C_4  and  N_22
REMARK    6  A    between atoms: C_12  and  C_15
REMARK    7  A    between atoms: C_23  and  O_25
REMARK    8  A    between atoms: O_25  and  C_26
REMARK    9  A    between atoms: C_26  and  C_27
REMARK   10  A    between atoms: C_26  and  C_28
REMARK   11  A    between atoms: C_26  and  C_29
REMARK                            x       y       z     vdW  Elec       q    Type
REMARK                         _______ _______ _______ _____ _____    ______ ____
ROOT
ATOM      1  C   UNL     1      -2.826  -2.585   0.015  0.00  0.00    +0.236 C 
ATOM      2  O   UNL     1      -3.355  -2.884   1.065  0.00  0.00    -0.274 OA
ATOM      3  N   UNL     1      -3.505  -2.717  -1.142  0.00  0.00    -0.295 N 
ATOM      4  C   UNL     1      -2.851  -2.468  -2.436  0.00  0.00    +0.136 C 
ATOM      5  C   UNL     1      -3.728  -1.506  -3.245  0.00  0.00    +0.179 C 
ATOM      6  O   UNL     1      -5.063  -2.016  -3.296  0.00  0.00    -0.369 OA
ATOM      7  C   UNL     1      -5.699  -2.120  -2.019  0.00  0.00    +0.166 C 
ATOM      8  C   UNL     1      -4.920  -3.119  -1.149  0.00  0.00    +0.144 C 
ENDROOT
BRANCH   7   9
ATOM      9  C   UNL     1      -7.113  -2.607  -2.200  0.00  0.00    -0.015 A 
ATOM     10  C   UNL     1      -7.391  -3.596  -3.126  0.00  0.00    +0.006 A 
ATOM     11  C   UNL     1      -8.688  -4.043  -3.292  0.00  0.00    +0.003 A 
ATOM     12  C   UNL     1      -9.710  -3.501  -2.534  0.00  0.00    +0.038 A 
ATOM     13  C   UNL     1      -9.433  -2.511  -1.608  0.00  0.00    +0.124 A 
ATOM     14  C   UNL     1      -8.132  -2.068  -1.437  0.00  0.00    +0.044 A 
ATOM     15  F   UNL     1     -10.430  -1.981  -0.867  0.00  0.00    -0.205 F 
ENDBRANCH   7   9
BRANCH   1  16
ATOM     16  C   UNL     1      -1.411  -2.067   0.004  0.00  0.00    +0.162 C 
BRANCH  16  17
ATOM     17  N   UNL     1      -0.710  -2.536   1.202  0.00  0.00    -0.270 N 
ATOM     18  C   UNL     1       0.633  -2.650   1.195  0.00  0.00    +0.401 C 
ATOM     19  O   UNL     1       1.262  -2.363   0.196  0.00  0.00    -0.226 OA
ATOM     20  H   UNL     1      -1.212  -2.765   1.999  0.00  0.00    +0.153 HD
BRANCH  18  21
ATOM     21  O   UNL     1       1.278  -3.081   2.295  0.00  0.00    -0.445 OA
BRANCH  21  22
ATOM     22  C   UNL     1       2.701  -3.178   2.217  0.00  0.00    +0.107 C 
ATOM     23  C   UNL     1       3.289  -1.799   1.910  0.00  0.00    +0.055 C 
ATOM     24  C   UNL     1       3.252  -3.681   3.553  0.00  0.00    +0.055 C 
ATOM     25  C   UNL     1       3.086  -4.156   1.105  0.00  0.00    +0.055 C 
ENDBRANCH  21  22
ENDBRANCH  18  21
ENDBRANCH  16  17
BRANCH  16  26
ATOM     26  C   UNL     1      -1.429  -0.537  -0.010  0.00  0.00    +0.031 C 
BRANCH  26  28
ATOM     27  C   UNL     1      -0.018   1.518  -0.183  0.00  0.00    +0.004 C 
ATOM     28  C   UNL     1      -0.000  -0.012  -0.169  0.00  0.00    -0.001 C 
ENDBRANCH  26  28
ENDBRANCH  16  26
ENDBRANCH   1  16
TORSDOF 7
