REMARK  Name = ZINC04338742
REMARK  7 active torsions:
REMARK  status: ('A' for Active; 'I' for Inactive)
REMARK    1  A    between atoms: C_1  and  C_2
REMARK    2  A    between atoms: C_7  and  O_18
REMARK    3  A    between atoms: C_8  and  C_12
REMARK    4  A    between atoms: N_13  and  N_14
REMARK    5  A    between atoms: N_14  and  C_15
REMARK    6  A    between atoms: C_15  and  N_17
REMARK    7  A    between atoms: O_18  and  C_19
REMARK                            x       y       z     vdW  Elec       q    Type
REMARK                         _______ _______ _______ _____ _____    ______ ____
ROOT
ATOM      1  C   UNL     1       9.572   0.856   1.858  0.00  0.00    +0.052 C 
ATOM      2  C   UNL     1       9.363   0.802   0.344  0.00  0.00    +0.175 C 
ATOM      3  C   UNL     1       8.632  -0.500  -0.062  0.00  0.00    +0.083 C 
ATOM      4  C   UNL     1       7.180  -0.058  -0.061  0.00  0.00    +0.001 A 
ATOM      5  C   UNL     1       6.000  -0.772  -0.056  0.00  0.00    +0.053 A 
ATOM      6  C   UNL     1       4.785  -0.107  -0.044  0.00  0.00    +0.129 A 
ATOM      7  C   UNL     1       4.766   1.294  -0.036  0.00  0.00    +0.040 A 
ATOM      8  C   UNL     1       5.964   2.007  -0.050  0.00  0.00    +0.059 A 
ATOM      9  C   UNL     1       7.178   1.332  -0.060  0.00  0.00    +0.125 A 
ATOM     10  O   UNL     1       8.448   1.827  -0.081  0.00  0.00    -0.488 OA
ENDROOT
BRANCH   7  11
ATOM     11  C   UNL     1       3.479   2.014  -0.020  0.00  0.00    +0.142 C 
ATOM     12  N   UNL     1       2.364   1.349  -0.013  0.00  0.00    -0.188 NA
BRANCH  12  13
ATOM     13  N   UNL     1       1.142   2.033   0.002  0.00  0.00    -0.219 N 
ATOM     14  H   UNL     1       1.129   3.003   0.007  0.00  0.00    +0.176 HD
BRANCH  13  15
ATOM     15  C   UNL     1      -0.016   1.344   0.009  0.00  0.00    +0.147 C 
ATOM     16  S   UNL     1      -1.510   2.179   0.021  0.00  0.00    -0.017 S 
BRANCH  15  17
ATOM     17  N   UNL     1       0.002  -0.004   0.002  0.00  0.00    -0.339 N 
ATOM     18  H   UNL     1       0.849  -0.478  -0.009  0.00  0.00    +0.144 HD
ATOM     19  H   UNL     1      -0.831  -0.500   0.007  0.00  0.00    +0.144 HD
ENDBRANCH  15  17
ENDBRANCH  13  15
ENDBRANCH  12  13
ENDBRANCH   7  11
BRANCH   6  20
ATOM     20  O   UNL     1       3.621  -0.808  -0.041  0.00  0.00    -0.494 OA
ATOM     21  C   UNL     1       3.722  -2.234  -0.049  0.00  0.00    +0.277 C 
ENDBRANCH   6  20
TORSDOF 5
