REMARK  Name = ZINC35671290
REMARK  13 active torsions:
REMARK  status: ('A' for Active; 'I' for Inactive)
REMARK    1  A    between atoms: C_1  and  C_2
REMARK    2  A    between atoms: C_2  and  C_3
REMARK    3  A    between atoms: C_2  and  C_4
REMARK    4  A    between atoms: C_2  and  C_5
REMARK    5  A    between atoms: C_8  and  C_11
REMARK    6  A    between atoms: C_11  and  C_13
REMARK    7  A    between atoms: C_11  and  N_31
REMARK    8  A    between atoms: C_13  and  N_14
REMARK    9  A    between atoms: N_14  and  C_15
REMARK   10  A    between atoms: C_16  and  C_29
REMARK   11  A    between atoms: C_18  and  C_20
REMARK   12  A    between atoms: C_20  and  O_21
REMARK   13  A    between atoms: O_21  and  C_22
REMARK                            x       y       z     vdW  Elec       q    Type
REMARK                         _______ _______ _______ _____ _____    ______ ____
ROOT
ATOM      1  C   UNL     1       3.572  -3.148  -4.468  0.00  0.00    +0.094 C 
ENDROOT
BRANCH   1   2
ATOM      2  N   UNL     1       2.701  -4.204  -3.944  0.00  0.00    -0.314 N 
ATOM      3  H   UNL     1       1.743  -4.062  -3.894  0.00  0.00    +0.149 HD
BRANCH   2   4
ATOM      4  C   UNL     1       3.245  -5.399  -3.522  0.00  0.00    +0.225 A 
ATOM      5  C   UNL     1       2.557  -6.487  -3.012  0.00  0.00    +0.201 A 
ATOM      6  N   UNL     1       3.487  -7.442  -2.728  0.00  0.00    -0.198 NA
ATOM      7  C   UNL     1       4.661  -6.983  -3.038  0.00  0.00    +0.237 A 
ATOM      8  O   UNL     1       4.547  -5.739  -3.531  0.00  0.00    -0.421 OA
BRANCH   5   9
ATOM      9  C   UNL     1       1.142  -6.589  -2.819  0.00  0.00    +0.124 C 
ATOM     10  N   UNL     1       0.019  -6.670  -2.666  0.00  0.00    -0.189 NA
ENDBRANCH   5   9
BRANCH   7  11
ATOM     11  C   UNL     1       5.957  -7.735  -2.875  0.00  0.00    +0.324 C 
BRANCH  11  12
ATOM     12  O   UNL     1       6.233  -8.472  -4.068  0.00  0.00    -0.483 OA
BRANCH  12  13
ATOM     13  C   UNL     1       7.374  -9.210  -4.087  0.00  0.00    +0.121 A 
ATOM     14  C   UNL     1       8.207  -9.230  -2.977  0.00  0.00    +0.047 A 
ATOM     15  C   UNL     1       9.366  -9.981  -2.998  0.00  0.00    +0.023 A 
ATOM     16  C   UNL     1       9.697 -10.713  -4.125  0.00  0.00    +0.041 A 
ATOM     17  C   UNL     1       8.868 -10.695  -5.232  0.00  0.00    +0.023 A 
ATOM     18  C   UNL     1       7.704  -9.950  -5.213  0.00  0.00    +0.047 A 
ATOM     19 CL   UNL     1      11.155 -11.656  -4.149  0.00  0.00    -0.084 Cl
ENDBRANCH  12  13
ENDBRANCH  11  12
ENDBRANCH   7  11
ENDBRANCH   2   4
ENDBRANCH   1   2
BRANCH   1  20
ATOM     20  C   UNL     1       2.743  -1.890  -4.736  0.00  0.00    -0.020 C 
BRANCH  20  21
ATOM     21  N   UNL     1       3.597  -0.862  -5.346  0.00  0.00    +0.385 N 
ATOM     22  C   UNL     1       2.814   0.363  -5.551  0.00  0.00    -0.078 C 
ATOM     23  C   UNL     1       3.719   1.463  -6.111  0.00  0.00    -0.019 C 
ATOM     24  C   UNL     1       4.307   1.001  -7.448  0.00  0.00    -0.004 C 
ATOM     25  C   UNL     1       5.058  -0.317  -7.236  0.00  0.00    -0.019 C 
ATOM     26  C   UNL     1       4.104  -1.350  -6.634  0.00  0.00    -0.078 C 
ATOM     27  H   UNL     1       4.373  -0.664  -4.733  0.00  0.00    -0.081 HD
ENDBRANCH  20  21
BRANCH  20  31
ATOM     28  C   UNL     1       1.155  -0.421  -1.052  0.00  0.00    -0.042 A 
ATOM     29  C   UNL     1       0.358  -1.168  -1.900  0.00  0.00    +0.004 A 
ATOM     30  C   UNL     1       0.872  -1.643  -3.092  0.00  0.00    +0.002 A 
ATOM     31  C   UNL     1       2.183  -1.371  -3.437  0.00  0.00    -0.059 A 
ATOM     32  C   UNL     1       2.979  -0.624  -2.590  0.00  0.00    +0.002 A 
ATOM     33  C   UNL     1       2.464  -0.145  -1.399  0.00  0.00    +0.004 A 
BRANCH  28  35
ATOM     34  C   UNL     1       0.666   1.625   0.261  0.00  0.00    +0.015 C 
ATOM     35  C   UNL     1       0.595   0.097   0.247  0.00  0.00    -0.013 C 
ATOM     36  C   UNL     1       1.412  -0.462   1.414  0.00  0.00    +0.015 C 
ATOM     37  C   UNL     1      -0.863  -0.347   0.387  0.00  0.00    +0.015 C 
ENDBRANCH  28  35
ENDBRANCH  20  31
ENDBRANCH   1  20
TORSDOF 10
