REMARK  Name = ZINC45924979
REMARK  8 active torsions:
REMARK  status: ('A' for Active; 'I' for Inactive)
REMARK    1  A    between atoms: C_3  and  S_6
REMARK    2  A    between atoms: S_6  and  C_9
REMARK    3  A    between atoms: C_12  and  S_16
REMARK    4  A    between atoms: C_14  and  N_15
REMARK    5  A    between atoms: S_16  and  C_17
REMARK    6  A    between atoms: C_17  and  C_18
REMARK    7  A    between atoms: N_20  and  C_21
REMARK    8  A    between atoms: C_26  and  C_27
REMARK                            x       y       z     vdW  Elec       q    Type
REMARK                         _______ _______ _______ _____ _____    ______ ____
ROOT
ATOM      1  C   UNL     1       4.544   2.135   1.638  0.00  0.00    +0.152 A 
ATOM      2  C   UNL     1       5.561   1.353   2.151  0.00  0.00    +0.144 A 
ATOM      3  N   UNL     1       5.911   1.496   3.420  0.00  0.00    -0.228 NA
ATOM      4  C   UNL     1       5.300   2.376   4.201  0.00  0.00    +0.190 A 
ATOM      5  N   UNL     1       4.320   3.144   3.748  0.00  0.00    -0.205 NA
ATOM      6  C   UNL     1       3.922   3.057   2.482  0.00  0.00    +0.146 A 
ENDROOT
BRANCH   1   7
ATOM      7  S   UNL     1       4.047   1.977  -0.045  0.00  0.00    +0.036 S 
ATOM      8  O   UNL     1       4.848   0.948  -0.610  0.00  0.00    -0.164 OA
ATOM      9  O   UNL     1       4.006   3.292  -0.582  0.00  0.00    -0.164 OA
BRANCH   7  12
ATOM     10  C   UNL     1       0.029   1.397  -0.036  0.00  0.00    +0.009 A 
ATOM     11  C   UNL     1       1.229   2.084  -0.033  0.00  0.00    +0.035 A 
ATOM     12  C   UNL     1       2.388   1.381  -0.045  0.00  0.00    +0.131 A 
ATOM     13  S   UNL     1       1.799  -0.304  -0.061  0.00  0.00    -0.078 S 
ATOM     14  C   UNL     1       0.048   0.042  -0.051  0.00  0.00    +0.047 A 
ENDBRANCH   7  12
ENDBRANCH   1   7
BRANCH   6  15
ATOM     15  N   UNL     1       2.901   3.866   2.010  0.00  0.00    -0.342 N 
ATOM     16  H   UNL     1       2.613   3.794   1.086  0.00  0.00    +0.144 HD
ATOM     17  H   UNL     1       2.474   4.504   2.603  0.00  0.00    +0.144 HD
ENDBRANCH   6  15
BRANCH   4  18
ATOM     18  S   UNL     1       5.803   2.527   5.883  0.00  0.00    -0.077 S 
BRANCH  18  19
ATOM     19  C   UNL     1       7.138   1.311   6.053  0.00  0.00    +0.173 C 
BRANCH  19  20
ATOM     20  C   UNL     1       7.665   1.337   7.465  0.00  0.00    +0.227 C 
ATOM     21  O   UNL     1       7.186   2.102   8.276  0.00  0.00    -0.275 OA
ATOM     22  N   UNL     1       8.667   0.512   7.825  0.00  0.00    -0.284 N 
ATOM     23  H   UNL     1       8.995  -0.154   7.201  0.00  0.00    +0.155 HD
BRANCH  22  24
ATOM     24  C   UNL     1       9.234   0.616   9.101  0.00  0.00    +0.045 A 
ATOM     25  C   UNL     1       9.171   1.817   9.794  0.00  0.00    +0.025 A 
ATOM     26  C   UNL     1       9.732   1.917  11.052  0.00  0.00    +0.022 A 
ATOM     27  C   UNL     1      10.356   0.821  11.622  0.00  0.00    +0.042 A 
ATOM     28  C   UNL     1      10.421  -0.377  10.933  0.00  0.00    +0.034 A 
ATOM     29  C   UNL     1       9.856  -0.484   9.677  0.00  0.00    +0.077 A 
ATOM     30 CL   UNL     1      11.061   0.950  13.203  0.00  0.00    -0.084 Cl
BRANCH  29  31
ATOM     31  C   UNL     1       9.921  -1.791   8.930  0.00  0.00    +0.419 C 
ATOM     32  F   UNL     1      10.590  -2.741   9.709  0.00  0.00    -0.166 F 
ATOM     33  F   UNL     1       8.623  -2.239   8.661  0.00  0.00    -0.166 F 
ATOM     34  F   UNL     1      10.609  -1.606   7.726  0.00  0.00    -0.166 F 
ENDBRANCH  29  31
ENDBRANCH  22  24
ENDBRANCH  19  20
ENDBRANCH  18  19
ENDBRANCH   4  18
TORSDOF 8
