REMARK  Name = ZINC14185134
REMARK  11 active torsions:
REMARK  status: ('A' for Active; 'I' for Inactive)
REMARK    1  A    between atoms: C_1  and  C_2
REMARK    2  A    between atoms: C_2  and  O_3
REMARK    3  A    between atoms: O_3  and  C_4
REMARK    4  A    between atoms: C_4  and  C_6
REMARK    5  A    between atoms: C_7  and  C_33
REMARK    6  A    between atoms: C_11  and  C_15
REMARK    7  A    between atoms: C_15  and  N_69
REMARK    8  A    between atoms: N_21  and  C_22
REMARK    9  A    between atoms: C_28  and  O_30
REMARK   10  A    between atoms: O_30  and  C_31
REMARK   11  A    between atoms: C_31  and  C_32
REMARK                            x       y       z     vdW  Elec       q    Type
REMARK                         _______ _______ _______ _____ _____    ______ ____
ROOT
ATOM      1  C   UNL     1      -0.702  -6.903   0.309  0.00  0.00    +0.102 A 
ATOM      2  C   UNL     1      -1.002  -6.235  -0.839  0.00  0.00    -0.017 A 
ATOM      3  C   UNL     1      -1.391  -4.891  -0.783  0.00  0.00    +0.051 A 
ATOM      4  C   UNL     1      -1.746  -4.008  -1.846  0.00  0.00    +0.131 A 
ATOM      5  N   UNL     1      -2.090  -2.762  -1.563  0.00  0.00    -0.219 NA
ATOM      6  C   UNL     1      -2.107  -2.299  -0.326  0.00  0.00    +0.116 A 
ATOM      7  N   UNL     1      -1.789  -3.065   0.701  0.00  0.00    -0.227 NA
ATOM      8  C   UNL     1      -1.438  -4.321   0.513  0.00  0.00    +0.114 A 
ATOM      9  S   UNL     1      -0.950  -5.661   1.568  0.00  0.00    -0.062 S 
ATOM     10  N   UNL     1      -1.737  -4.449  -3.154  0.00  0.00    -0.326 N 
ATOM     11  C   UNL     1      -0.918  -6.942  -2.168  0.00  0.00    +0.046 C 
ATOM     12  H   UNL     1      -1.577  -5.386  -3.348  0.00  0.00    +0.148 HD
ENDROOT
BRANCH  10  13
ATOM     13  C   UNL     1      -1.969  -3.503  -4.248  0.00  0.00    +0.075 C 
ATOM     14  C   UNL     1      -3.474  -3.337  -4.468  0.00  0.00    +0.041 C 
ATOM     15  C   UNL     1      -3.713  -2.321  -5.590  0.00  0.00    +0.113 C 
ATOM     16  N   UNL     1      -2.973  -2.752  -6.783  0.00  0.00    -0.267 N 
ATOM     17  C   UNL     1      -1.535  -3.028  -6.662  0.00  0.00    +0.113 C 
ATOM     18  C   UNL     1      -1.321  -4.036  -5.528  0.00  0.00    +0.041 C 
ATOM     19  C   UNL     1      -3.601  -2.893  -7.968  0.00  0.00    +0.403 C 
ATOM     20  O   UNL     1      -2.978  -3.250  -8.947  0.00  0.00    -0.226 OA
BRANCH  19  21
ATOM     21  O   UNL     1      -4.919  -2.636  -8.065  0.00  0.00    -0.451 OA
BRANCH  21  22
ATOM     22  C   UNL     1      -5.530  -2.808  -9.371  0.00  0.00    +0.230 C 
ATOM     23  C   UNL     1      -7.020  -2.474  -9.286  0.00  0.00    +0.048 C 
ENDBRANCH  21  22
ENDBRANCH  19  21
ENDBRANCH  10  13
BRANCH   1  24
ATOM     24  C   UNL     1      -0.279  -8.297   0.472  0.00  0.00    +0.346 C 
ATOM     25  O   UNL     1      -0.159  -9.014  -0.503  0.00  0.00    -0.244 OA
BRANCH  24  26
ATOM     26  O   UNL     1      -0.023  -8.785   1.703  0.00  0.00    -0.461 OA
BRANCH  26  28
ATOM     27  C   UNL     1       0.634 -10.544   3.253  0.00  0.00    +0.048 C 
ATOM     28  C   UNL     1       0.391 -10.174   1.789  0.00  0.00    +0.229 C 
ENDBRANCH  26  28
ENDBRANCH  24  26
ENDBRANCH   1  24
BRANCH   6  29
ATOM     29  C   UNL     1      -2.504  -0.866  -0.081  0.00  0.00    -0.001 C 
BRANCH  29  35
ATOM     30  C   UNL     1      -1.677   1.409  -0.125  0.00  0.00    -0.078 C 
ATOM     31  C   UNL     1      -0.421   2.262  -0.316  0.00  0.00    -0.019 C 
ATOM     32  C   UNL     1       0.563   1.973   0.821  0.00  0.00    -0.004 C 
ATOM     33  C   UNL     1       0.893   0.477   0.832  0.00  0.00    -0.019 C 
ATOM     34  C   UNL     1      -0.401  -0.324   0.989  0.00  0.00    -0.078 C 
ATOM     35  N   UNL     1      -1.295  -0.019  -0.148  0.00  0.00    +0.384 N 
ATOM     36  H   UNL     1      -0.798  -0.217  -1.025  0.00  0.00    -0.081 HD
ENDBRANCH  29  35
ENDBRANCH   6  29
TORSDOF 8
